version 2
run nodebug-47-20200605-19:41:13-18076
attr configname nodebug
attr datetime 20200605-19:41:13
attr experiment nodebug
attr inifile omnetpp.ini
attr iterationvars ""
attr iterationvars2 $repetition=47
attr measurement ""
attr network "\"org.car2x.veins.modules.application.ExtTraCIScenarioManagerLaunchd.IntersectionExampleScenario\""
attr processid 18076
attr repetition 47
attr replication #47
attr resultdir results
attr runnumber 47
attr seedset 47
param **.coreDebug false
param **.debug false
param *.**.nic.mac1609_4.bitrate 18Mbps
param *.**.nic.mac1609_4.txPower 20mW
param *.**.nic.mac1609_4.useServiceChannel false
param *.**.nic.phy80211p.analogueModels "xmldoc(\"config.xml\")"
param *.**.nic.phy80211p.decider "xmldoc(\"config.xml\")"
param *.**.nic.phy80211p.sensitivity -89dBm
param *.**.nic.phy80211p.thermalNoise -110dBm
param *.**.nic.phy80211p.usePropagationDelay true
param *.**.nic.phy80211p.useThermalNoise true
param *.annotations.draw false
param *.connectionManager.alpha 2.0
param *.connectionManager.carrierFrequency "5.890e9 Hz"
param *.connectionManager.pMax 20mW
param *.connectionManager.sat -89dBm
param *.connectionManager.sendDirect true
param *.manager.autoShutdown true
param *.manager.host "\"localhost\""
param *.manager.launchConfig "xmldoc(\"paramics.launchd.xml\")"
param *.manager.margin 25
param *.manager.moduleDisplayString "\"\""
param *.manager.moduleName "\"node\""
param *.manager.moduleType "\"org.car2x.veins.nodes.Car\""
param *.manager.port 9999
param *.manager.updateInterval 250ms
param *.node[*0].veinsmobility.accidentCount 0
param *.node[*0].veinsmobility.accidentDuration 30s
param *.node[*0].veinsmobility.accidentStart 75s
param *.node[*].appl.LiderSelectZoneRadio 55.0
param *.node[*].appl.ShareDataZoneRadio 110.0
param *.node[*].appl.TiempoSemaforo 30.0
param *.node[*].appl.beaconInterval 1s
param *.node[*].appl.beaconPriority 3
param *.node[*].appl.dataOnSch false
param *.node[*].appl.dataPriority 2
param *.node[*].appl.debug false
param *.node[*].appl.headerLength "256 bit"
param *.node[*].appl.maxOffset 0.005s
param *.node[*].appl.sendBeacons false
param *.node[*].appl.sendData true
param *.node[*].applType "\"Dummy\""
param *.node[*].mobilityType "\"TraCIMobility\""
param *.node[*].mobilityType.debug true
param *.node[*].veinsmobility.x 0
param *.node[*].veinsmobility.y 0
param *.node[*].veinsmobility.z 1.895
param *.node[*].veinsmobilityType "\"org.car2x.veins.modules.mobility.traci.TraCIMobility\""
param *.node[*].veinsmobilityType.debug true
param *.playgroundSizeX 8500m
param *.playgroundSizeY 8500m
param *.playgroundSizeZ 50m
param *.world.use2D false
param *.world.useTorus false

scalar IntersectionExampleScenario.node[0].appl 	VehicleRemoved 	0
scalar IntersectionExampleScenario.node[0].appl 	ArrivedAtDest 	1
scalar IntersectionExampleScenario.node[0].appl 	IntersectionEnterTime 	0.25
scalar IntersectionExampleScenario.node[0].appl 	IntersectionExitTime 	23.543933475856
scalar IntersectionExampleScenario.node[0].appl 	NumberOfCollisions 	0
scalar IntersectionExampleScenario.node[0].nic.phy80211p 	busyTime 	0
scalar IntersectionExampleScenario.node[0].nic.mac1609_4 	ReceivedUnicastPackets 	0
scalar IntersectionExampleScenario.node[0].nic.mac1609_4 	ReceivedBroadcasts 	0
scalar IntersectionExampleScenario.node[0].nic.mac1609_4 	SentPackets 	0
scalar IntersectionExampleScenario.node[0].nic.mac1609_4 	SNIRLostPackets 	0
scalar IntersectionExampleScenario.node[0].nic.mac1609_4 	RXTXLostPackets 	0
scalar IntersectionExampleScenario.node[0].nic.mac1609_4 	TotalLostPackets 	0
scalar IntersectionExampleScenario.node[0].nic.mac1609_4 	DroppedPacketsInMac 	0
scalar IntersectionExampleScenario.node[0].nic.mac1609_4 	TooLittleTime 	0
scalar IntersectionExampleScenario.node[0].nic.mac1609_4 	TimesIntoBackoff 	0
scalar IntersectionExampleScenario.node[0].nic.mac1609_4 	SlotsBackoff 	0
scalar IntersectionExampleScenario.node[0].nic.mac1609_4 	NumInternalContention 	0
scalar IntersectionExampleScenario.node[0].nic.mac1609_4 	totalBusyTime 	0
scalar IntersectionExampleScenario.node[0].veinsmobility 	startTime 	0.25
scalar IntersectionExampleScenario.node[0].veinsmobility 	totalTime 	39.5
scalar IntersectionExampleScenario.node[0].veinsmobility 	stopTime 	40
scalar IntersectionExampleScenario.node[0].veinsmobility 	minSpeed 	5.6500000953674
scalar IntersectionExampleScenario.node[0].veinsmobility 	maxSpeed 	15.5
scalar IntersectionExampleScenario.node[0].veinsmobility 	totalDistance 	553.65596008301
scalar IntersectionExampleScenario.node[0].veinsmobility 	totalCO2Emission 	116.12893195025
scalar IntersectionExampleScenario.node[1].appl 	VehicleRemoved 	0
scalar IntersectionExampleScenario.node[1].appl 	ArrivedAtDest 	1
scalar IntersectionExampleScenario.node[1].appl 	IntersectionEnterTime 	6
scalar IntersectionExampleScenario.node[1].appl 	IntersectionExitTime 	29.551824951282
scalar IntersectionExampleScenario.node[1].appl 	NumberOfCollisions 	0
scalar IntersectionExampleScenario.node[1].nic.phy80211p 	busyTime 	0
scalar IntersectionExampleScenario.node[1].nic.mac1609_4 	ReceivedUnicastPackets 	0
scalar IntersectionExampleScenario.node[1].nic.mac1609_4 	ReceivedBroadcasts 	0
scalar IntersectionExampleScenario.node[1].nic.mac1609_4 	SentPackets 	0
scalar IntersectionExampleScenario.node[1].nic.mac1609_4 	SNIRLostPackets 	0
scalar IntersectionExampleScenario.node[1].nic.mac1609_4 	RXTXLostPackets 	0
scalar IntersectionExampleScenario.node[1].nic.mac1609_4 	TotalLostPackets 	0
scalar IntersectionExampleScenario.node[1].nic.mac1609_4 	DroppedPacketsInMac 	0
scalar IntersectionExampleScenario.node[1].nic.mac1609_4 	TooLittleTime 	0
scalar IntersectionExampleScenario.node[1].nic.mac1609_4 	TimesIntoBackoff 	0
scalar IntersectionExampleScenario.node[1].nic.mac1609_4 	SlotsBackoff 	0
scalar IntersectionExampleScenario.node[1].nic.mac1609_4 	NumInternalContention 	0
scalar IntersectionExampleScenario.node[1].nic.mac1609_4 	totalBusyTime 	0
scalar IntersectionExampleScenario.node[1].veinsmobility 	startTime 	6
scalar IntersectionExampleScenario.node[1].veinsmobility 	totalTime 	40
scalar IntersectionExampleScenario.node[1].veinsmobility 	stopTime 	46.25
scalar IntersectionExampleScenario.node[1].veinsmobility 	minSpeed 	5.6500000953674
scalar IntersectionExampleScenario.node[1].veinsmobility 	maxSpeed 	15.64999961853
scalar IntersectionExampleScenario.node[1].veinsmobility 	totalDistance 	551.72983332107
scalar IntersectionExampleScenario.node[1].veinsmobility 	totalCO2Emission 	124.50108936671
scalar IntersectionExampleScenario.node[3].appl 	VehicleRemoved 	0
scalar IntersectionExampleScenario.node[3].appl 	ArrivedAtDest 	1
scalar IntersectionExampleScenario.node[3].appl 	IntersectionEnterTime 	10.25
scalar IntersectionExampleScenario.node[3].appl 	IntersectionExitTime 	35.290275993088
scalar IntersectionExampleScenario.node[3].appl 	NumberOfCollisions 	0
scalar IntersectionExampleScenario.node[3].nic.phy80211p 	busyTime 	0
scalar IntersectionExampleScenario.node[3].nic.mac1609_4 	ReceivedUnicastPackets 	0
scalar IntersectionExampleScenario.node[3].nic.mac1609_4 	ReceivedBroadcasts 	0
scalar IntersectionExampleScenario.node[3].nic.mac1609_4 	SentPackets 	0
scalar IntersectionExampleScenario.node[3].nic.mac1609_4 	SNIRLostPackets 	0
scalar IntersectionExampleScenario.node[3].nic.mac1609_4 	RXTXLostPackets 	0
scalar IntersectionExampleScenario.node[3].nic.mac1609_4 	TotalLostPackets 	0
scalar IntersectionExampleScenario.node[3].nic.mac1609_4 	DroppedPacketsInMac 	0
scalar IntersectionExampleScenario.node[3].nic.mac1609_4 	TooLittleTime 	0
scalar IntersectionExampleScenario.node[3].nic.mac1609_4 	TimesIntoBackoff 	0
scalar IntersectionExampleScenario.node[3].nic.mac1609_4 	SlotsBackoff 	0
scalar IntersectionExampleScenario.node[3].nic.mac1609_4 	NumInternalContention 	0
scalar IntersectionExampleScenario.node[3].nic.mac1609_4 	totalBusyTime 	0
scalar IntersectionExampleScenario.node[3].veinsmobility 	startTime 	10.25
scalar IntersectionExampleScenario.node[3].veinsmobility 	totalTime 	42
scalar IntersectionExampleScenario.node[3].veinsmobility 	stopTime 	52.5
scalar IntersectionExampleScenario.node[3].veinsmobility 	minSpeed 	3.8894097805023
scalar IntersectionExampleScenario.node[3].veinsmobility 	maxSpeed 	15.25
scalar IntersectionExampleScenario.node[3].veinsmobility 	totalDistance 	545.22648544115
scalar IntersectionExampleScenario.node[3].veinsmobility 	totalCO2Emission 	129.64539263128
scalar IntersectionExampleScenario.node[5].appl 	VehicleRemoved 	0
scalar IntersectionExampleScenario.node[5].appl 	ArrivedAtDest 	1
scalar IntersectionExampleScenario.node[5].appl 	IntersectionEnterTime 	14.75
scalar IntersectionExampleScenario.node[5].appl 	IntersectionExitTime 	38.750654744421
scalar IntersectionExampleScenario.node[5].appl 	NumberOfCollisions 	0
scalar IntersectionExampleScenario.node[5].nic.phy80211p 	busyTime 	0
scalar IntersectionExampleScenario.node[5].nic.mac1609_4 	ReceivedUnicastPackets 	0
scalar IntersectionExampleScenario.node[5].nic.mac1609_4 	ReceivedBroadcasts 	0
scalar IntersectionExampleScenario.node[5].nic.mac1609_4 	SentPackets 	0
scalar IntersectionExampleScenario.node[5].nic.mac1609_4 	SNIRLostPackets 	0
scalar IntersectionExampleScenario.node[5].nic.mac1609_4 	RXTXLostPackets 	0
scalar IntersectionExampleScenario.node[5].nic.mac1609_4 	TotalLostPackets 	0
scalar IntersectionExampleScenario.node[5].nic.mac1609_4 	DroppedPacketsInMac 	0
scalar IntersectionExampleScenario.node[5].nic.mac1609_4 	TooLittleTime 	0
scalar IntersectionExampleScenario.node[5].nic.mac1609_4 	TimesIntoBackoff 	0
scalar IntersectionExampleScenario.node[5].nic.mac1609_4 	SlotsBackoff 	0
scalar IntersectionExampleScenario.node[5].nic.mac1609_4 	NumInternalContention 	0
scalar IntersectionExampleScenario.node[5].nic.mac1609_4 	totalBusyTime 	0
scalar IntersectionExampleScenario.node[5].veinsmobility 	startTime 	14.75
scalar IntersectionExampleScenario.node[5].veinsmobility 	totalTime 	41
scalar IntersectionExampleScenario.node[5].veinsmobility 	stopTime 	56
scalar IntersectionExampleScenario.node[5].veinsmobility 	minSpeed 	5.6500000953674
scalar IntersectionExampleScenario.node[5].veinsmobility 	maxSpeed 	15.25
scalar IntersectionExampleScenario.node[5].veinsmobility 	totalDistance 	546.38148915261
scalar IntersectionExampleScenario.node[5].veinsmobility 	totalCO2Emission 	125.47812668728
scalar IntersectionExampleScenario.node[2].appl 	VehicleRemoved 	0
scalar IntersectionExampleScenario.node[2].appl 	ArrivedAtDest 	1
scalar IntersectionExampleScenario.node[2].appl 	IntersectionEnterTime 	6.75
scalar IntersectionExampleScenario.node[2].appl 	IntersectionExitTime 	45.253001419478
scalar IntersectionExampleScenario.node[2].appl 	NumberOfCollisions 	0
scalar IntersectionExampleScenario.node[2].nic.phy80211p 	busyTime 	0
scalar IntersectionExampleScenario.node[2].nic.mac1609_4 	ReceivedUnicastPackets 	0
scalar IntersectionExampleScenario.node[2].nic.mac1609_4 	ReceivedBroadcasts 	0
scalar IntersectionExampleScenario.node[2].nic.mac1609_4 	SentPackets 	0
scalar IntersectionExampleScenario.node[2].nic.mac1609_4 	SNIRLostPackets 	0
scalar IntersectionExampleScenario.node[2].nic.mac1609_4 	RXTXLostPackets 	0
scalar IntersectionExampleScenario.node[2].nic.mac1609_4 	TotalLostPackets 	0
scalar IntersectionExampleScenario.node[2].nic.mac1609_4 	DroppedPacketsInMac 	0
scalar IntersectionExampleScenario.node[2].nic.mac1609_4 	TooLittleTime 	0
scalar IntersectionExampleScenario.node[2].nic.mac1609_4 	TimesIntoBackoff 	0
scalar IntersectionExampleScenario.node[2].nic.mac1609_4 	SlotsBackoff 	0
scalar IntersectionExampleScenario.node[2].nic.mac1609_4 	NumInternalContention 	0
scalar IntersectionExampleScenario.node[2].nic.mac1609_4 	totalBusyTime 	0
scalar IntersectionExampleScenario.node[2].veinsmobility 	startTime 	6.75
scalar IntersectionExampleScenario.node[2].veinsmobility 	totalTime 	54.75
scalar IntersectionExampleScenario.node[2].veinsmobility 	stopTime 	61.75
scalar IntersectionExampleScenario.node[2].veinsmobility 	minSpeed 	0
scalar IntersectionExampleScenario.node[2].veinsmobility 	maxSpeed 	15.375
scalar IntersectionExampleScenario.node[2].veinsmobility 	totalDistance 	553.95883178711
scalar IntersectionExampleScenario.node[2].veinsmobility 	totalCO2Emission 	145.71430122193
scalar IntersectionExampleScenario.node[4].appl 	VehicleRemoved 	0
scalar IntersectionExampleScenario.node[4].appl 	ArrivedAtDest 	1
scalar IntersectionExampleScenario.node[4].appl 	IntersectionEnterTime 	14.25
scalar IntersectionExampleScenario.node[4].appl 	IntersectionExitTime 	46.284193486092
scalar IntersectionExampleScenario.node[4].appl 	NumberOfCollisions 	0
scalar IntersectionExampleScenario.node[4].nic.phy80211p 	busyTime 	0
scalar IntersectionExampleScenario.node[4].nic.mac1609_4 	ReceivedUnicastPackets 	0
scalar IntersectionExampleScenario.node[4].nic.mac1609_4 	ReceivedBroadcasts 	0
scalar IntersectionExampleScenario.node[4].nic.mac1609_4 	SentPackets 	0
scalar IntersectionExampleScenario.node[4].nic.mac1609_4 	SNIRLostPackets 	0
scalar IntersectionExampleScenario.node[4].nic.mac1609_4 	RXTXLostPackets 	0
scalar IntersectionExampleScenario.node[4].nic.mac1609_4 	TotalLostPackets 	0
scalar IntersectionExampleScenario.node[4].nic.mac1609_4 	DroppedPacketsInMac 	0
scalar IntersectionExampleScenario.node[4].nic.mac1609_4 	TooLittleTime 	0
scalar IntersectionExampleScenario.node[4].nic.mac1609_4 	TimesIntoBackoff 	0
scalar IntersectionExampleScenario.node[4].nic.mac1609_4 	SlotsBackoff 	0
scalar IntersectionExampleScenario.node[4].nic.mac1609_4 	NumInternalContention 	0
scalar IntersectionExampleScenario.node[4].nic.mac1609_4 	totalBusyTime 	0
scalar IntersectionExampleScenario.node[4].veinsmobility 	startTime 	14.25
scalar IntersectionExampleScenario.node[4].veinsmobility 	totalTime 	48
scalar IntersectionExampleScenario.node[4].veinsmobility 	stopTime 	62.5
scalar IntersectionExampleScenario.node[4].veinsmobility 	minSpeed 	1.1004600524902
scalar IntersectionExampleScenario.node[4].veinsmobility 	maxSpeed 	16.5
scalar IntersectionExampleScenario.node[4].veinsmobility 	totalDistance 	543.39820624108
scalar IntersectionExampleScenario.node[4].veinsmobility 	totalCO2Emission 	141.10604458537
scalar IntersectionExampleScenario.node[11].appl 	VehicleRemoved 	0
scalar IntersectionExampleScenario.node[11].appl 	ArrivedAtDest 	1
scalar IntersectionExampleScenario.node[11].appl 	IntersectionEnterTime 	21.75
scalar IntersectionExampleScenario.node[11].appl 	IntersectionExitTime 	48.25984418008
scalar IntersectionExampleScenario.node[11].appl 	NumberOfCollisions 	0
scalar IntersectionExampleScenario.node[11].nic.phy80211p 	busyTime 	0
scalar IntersectionExampleScenario.node[11].nic.mac1609_4 	ReceivedUnicastPackets 	0
scalar IntersectionExampleScenario.node[11].nic.mac1609_4 	ReceivedBroadcasts 	0
scalar IntersectionExampleScenario.node[11].nic.mac1609_4 	SentPackets 	0
scalar IntersectionExampleScenario.node[11].nic.mac1609_4 	SNIRLostPackets 	0
scalar IntersectionExampleScenario.node[11].nic.mac1609_4 	RXTXLostPackets 	0
scalar IntersectionExampleScenario.node[11].nic.mac1609_4 	TotalLostPackets 	0
scalar IntersectionExampleScenario.node[11].nic.mac1609_4 	DroppedPacketsInMac 	0
scalar IntersectionExampleScenario.node[11].nic.mac1609_4 	TooLittleTime 	0
scalar IntersectionExampleScenario.node[11].nic.mac1609_4 	TimesIntoBackoff 	0
scalar IntersectionExampleScenario.node[11].nic.mac1609_4 	SlotsBackoff 	0
scalar IntersectionExampleScenario.node[11].nic.mac1609_4 	NumInternalContention 	0
scalar IntersectionExampleScenario.node[11].nic.mac1609_4 	totalBusyTime 	0
scalar IntersectionExampleScenario.node[11].veinsmobility 	startTime 	21.75
scalar IntersectionExampleScenario.node[11].veinsmobility 	totalTime 	42.25
scalar IntersectionExampleScenario.node[11].veinsmobility 	stopTime 	64.25
scalar IntersectionExampleScenario.node[11].veinsmobility 	minSpeed 	5.6500000953674
scalar IntersectionExampleScenario.node[11].veinsmobility 	maxSpeed 	16.27499961853
scalar IntersectionExampleScenario.node[11].veinsmobility 	totalDistance 	554.92185974121
scalar IntersectionExampleScenario.node[11].veinsmobility 	totalCO2Emission 	138.05154920988
scalar IntersectionExampleScenario.node[14].appl 	VehicleRemoved 	0
scalar IntersectionExampleScenario.node[14].appl 	ArrivedAtDest 	1
scalar IntersectionExampleScenario.node[14].appl 	IntersectionEnterTime 	26.5
scalar IntersectionExampleScenario.node[14].appl 	IntersectionExitTime 	50.586193627852
scalar IntersectionExampleScenario.node[14].appl 	NumberOfCollisions 	0
scalar IntersectionExampleScenario.node[14].nic.phy80211p 	busyTime 	0
scalar IntersectionExampleScenario.node[14].nic.mac1609_4 	ReceivedUnicastPackets 	0
scalar IntersectionExampleScenario.node[14].nic.mac1609_4 	ReceivedBroadcasts 	0
scalar IntersectionExampleScenario.node[14].nic.mac1609_4 	SentPackets 	0
scalar IntersectionExampleScenario.node[14].nic.mac1609_4 	SNIRLostPackets 	0
scalar IntersectionExampleScenario.node[14].nic.mac1609_4 	RXTXLostPackets 	0
scalar IntersectionExampleScenario.node[14].nic.mac1609_4 	TotalLostPackets 	0
scalar IntersectionExampleScenario.node[14].nic.mac1609_4 	DroppedPacketsInMac 	0
scalar IntersectionExampleScenario.node[14].nic.mac1609_4 	TooLittleTime 	0
scalar IntersectionExampleScenario.node[14].nic.mac1609_4 	TimesIntoBackoff 	0
scalar IntersectionExampleScenario.node[14].nic.mac1609_4 	SlotsBackoff 	0
scalar IntersectionExampleScenario.node[14].nic.mac1609_4 	NumInternalContention 	0
scalar IntersectionExampleScenario.node[14].nic.mac1609_4 	totalBusyTime 	0
scalar IntersectionExampleScenario.node[14].veinsmobility 	startTime 	26.5
scalar IntersectionExampleScenario.node[14].veinsmobility 	totalTime 	39.25
scalar IntersectionExampleScenario.node[14].veinsmobility 	stopTime 	66
scalar IntersectionExampleScenario.node[14].veinsmobility 	minSpeed 	5.6500000953674
scalar IntersectionExampleScenario.node[14].veinsmobility 	maxSpeed 	16.27499961853
scalar IntersectionExampleScenario.node[14].veinsmobility 	totalDistance 	553.19290161133
scalar IntersectionExampleScenario.node[14].veinsmobility 	totalCO2Emission 	127.92913113116
scalar IntersectionExampleScenario.node[8].appl 	VehicleRemoved 	0
scalar IntersectionExampleScenario.node[8].appl 	ArrivedAtDest 	1
scalar IntersectionExampleScenario.node[8].appl 	IntersectionEnterTime 	15.75
scalar IntersectionExampleScenario.node[8].appl 	IntersectionExitTime 	52.617781996552
scalar IntersectionExampleScenario.node[8].appl 	NumberOfCollisions 	0
scalar IntersectionExampleScenario.node[8].nic.phy80211p 	busyTime 	0
scalar IntersectionExampleScenario.node[8].nic.mac1609_4 	ReceivedUnicastPackets 	0
scalar IntersectionExampleScenario.node[8].nic.mac1609_4 	ReceivedBroadcasts 	0
scalar IntersectionExampleScenario.node[8].nic.mac1609_4 	SentPackets 	0
scalar IntersectionExampleScenario.node[8].nic.mac1609_4 	SNIRLostPackets 	0
scalar IntersectionExampleScenario.node[8].nic.mac1609_4 	RXTXLostPackets 	0
scalar IntersectionExampleScenario.node[8].nic.mac1609_4 	TotalLostPackets 	0
scalar IntersectionExampleScenario.node[8].nic.mac1609_4 	DroppedPacketsInMac 	0
scalar IntersectionExampleScenario.node[8].nic.mac1609_4 	TooLittleTime 	0
scalar IntersectionExampleScenario.node[8].nic.mac1609_4 	TimesIntoBackoff 	0
scalar IntersectionExampleScenario.node[8].nic.mac1609_4 	SlotsBackoff 	0
scalar IntersectionExampleScenario.node[8].nic.mac1609_4 	NumInternalContention 	0
scalar IntersectionExampleScenario.node[8].nic.mac1609_4 	totalBusyTime 	0
scalar IntersectionExampleScenario.node[8].veinsmobility 	startTime 	15.75
scalar IntersectionExampleScenario.node[8].veinsmobility 	totalTime 	54
scalar IntersectionExampleScenario.node[8].veinsmobility 	stopTime 	70
scalar IntersectionExampleScenario.node[8].veinsmobility 	minSpeed 	0
scalar IntersectionExampleScenario.node[8].veinsmobility 	maxSpeed 	15.25
scalar IntersectionExampleScenario.node[8].veinsmobility 	totalDistance 	516.55565549285
scalar IntersectionExampleScenario.node[8].veinsmobility 	totalCO2Emission 	139.43968181936
scalar IntersectionExampleScenario.node[6].appl 	VehicleRemoved 	0
scalar IntersectionExampleScenario.node[6].appl 	ArrivedAtDest 	1
scalar IntersectionExampleScenario.node[6].appl 	IntersectionEnterTime 	14.75
scalar IntersectionExampleScenario.node[6].appl 	IntersectionExitTime 	54.366904474591
scalar IntersectionExampleScenario.node[6].appl 	NumberOfCollisions 	0
scalar IntersectionExampleScenario.node[6].nic.phy80211p 	busyTime 	0
scalar IntersectionExampleScenario.node[6].nic.mac1609_4 	ReceivedUnicastPackets 	0
scalar IntersectionExampleScenario.node[6].nic.mac1609_4 	ReceivedBroadcasts 	0
scalar IntersectionExampleScenario.node[6].nic.mac1609_4 	SentPackets 	0
scalar IntersectionExampleScenario.node[6].nic.mac1609_4 	SNIRLostPackets 	0
scalar IntersectionExampleScenario.node[6].nic.mac1609_4 	RXTXLostPackets 	0
scalar IntersectionExampleScenario.node[6].nic.mac1609_4 	TotalLostPackets 	0
scalar IntersectionExampleScenario.node[6].nic.mac1609_4 	DroppedPacketsInMac 	0
scalar IntersectionExampleScenario.node[6].nic.mac1609_4 	TooLittleTime 	0
scalar IntersectionExampleScenario.node[6].nic.mac1609_4 	TimesIntoBackoff 	0
scalar IntersectionExampleScenario.node[6].nic.mac1609_4 	SlotsBackoff 	0
scalar IntersectionExampleScenario.node[6].nic.mac1609_4 	NumInternalContention 	0
scalar IntersectionExampleScenario.node[6].nic.mac1609_4 	totalBusyTime 	0
scalar IntersectionExampleScenario.node[6].veinsmobility 	startTime 	14.75
scalar IntersectionExampleScenario.node[6].veinsmobility 	totalTime 	55.5
scalar IntersectionExampleScenario.node[6].veinsmobility 	stopTime 	70.5
scalar IntersectionExampleScenario.node[6].veinsmobility 	minSpeed 	0
scalar IntersectionExampleScenario.node[6].veinsmobility 	maxSpeed 	16
scalar IntersectionExampleScenario.node[6].veinsmobility 	totalDistance 	550.92034711919
scalar IntersectionExampleScenario.node[6].veinsmobility 	totalCO2Emission 	150.41795767254
scalar IntersectionExampleScenario.node[7].appl 	VehicleRemoved 	0
scalar IntersectionExampleScenario.node[7].appl 	ArrivedAtDest 	1
scalar IntersectionExampleScenario.node[7].appl 	IntersectionEnterTime 	15
scalar IntersectionExampleScenario.node[7].appl 	IntersectionExitTime 	56.536682477832
scalar IntersectionExampleScenario.node[7].appl 	NumberOfCollisions 	0
scalar IntersectionExampleScenario.node[7].nic.phy80211p 	busyTime 	0
scalar IntersectionExampleScenario.node[7].nic.mac1609_4 	ReceivedUnicastPackets 	0
scalar IntersectionExampleScenario.node[7].nic.mac1609_4 	ReceivedBroadcasts 	0
scalar IntersectionExampleScenario.node[7].nic.mac1609_4 	SentPackets 	0
scalar IntersectionExampleScenario.node[7].nic.mac1609_4 	SNIRLostPackets 	0
scalar IntersectionExampleScenario.node[7].nic.mac1609_4 	RXTXLostPackets 	0
scalar IntersectionExampleScenario.node[7].nic.mac1609_4 	TotalLostPackets 	0
scalar IntersectionExampleScenario.node[7].nic.mac1609_4 	DroppedPacketsInMac 	0
scalar IntersectionExampleScenario.node[7].nic.mac1609_4 	TooLittleTime 	0
scalar IntersectionExampleScenario.node[7].nic.mac1609_4 	TimesIntoBackoff 	0
scalar IntersectionExampleScenario.node[7].nic.mac1609_4 	SlotsBackoff 	0
scalar IntersectionExampleScenario.node[7].nic.mac1609_4 	NumInternalContention 	0
scalar IntersectionExampleScenario.node[7].nic.mac1609_4 	totalBusyTime 	0
scalar IntersectionExampleScenario.node[7].veinsmobility 	startTime 	15
scalar IntersectionExampleScenario.node[7].veinsmobility 	totalTime 	57
scalar IntersectionExampleScenario.node[7].veinsmobility 	stopTime 	72.25
scalar IntersectionExampleScenario.node[7].veinsmobility 	minSpeed 	0
scalar IntersectionExampleScenario.node[7].veinsmobility 	maxSpeed 	16.125
scalar IntersectionExampleScenario.node[7].veinsmobility 	totalDistance 	575.70887756348
scalar IntersectionExampleScenario.node[7].veinsmobility 	totalCO2Emission 	154.31725294924
scalar IntersectionExampleScenario.node[10].appl 	VehicleRemoved 	0
scalar IntersectionExampleScenario.node[10].appl 	ArrivedAtDest 	1
scalar IntersectionExampleScenario.node[10].appl 	IntersectionEnterTime 	20
scalar IntersectionExampleScenario.node[10].appl 	IntersectionExitTime 	58.844316979637
scalar IntersectionExampleScenario.node[10].appl 	NumberOfCollisions 	0
scalar IntersectionExampleScenario.node[10].nic.phy80211p 	busyTime 	0
scalar IntersectionExampleScenario.node[10].nic.mac1609_4 	ReceivedUnicastPackets 	0
scalar IntersectionExampleScenario.node[10].nic.mac1609_4 	ReceivedBroadcasts 	0
scalar IntersectionExampleScenario.node[10].nic.mac1609_4 	SentPackets 	0
scalar IntersectionExampleScenario.node[10].nic.mac1609_4 	SNIRLostPackets 	0
scalar IntersectionExampleScenario.node[10].nic.mac1609_4 	RXTXLostPackets 	0
scalar IntersectionExampleScenario.node[10].nic.mac1609_4 	TotalLostPackets 	0
scalar IntersectionExampleScenario.node[10].nic.mac1609_4 	DroppedPacketsInMac 	0
scalar IntersectionExampleScenario.node[10].nic.mac1609_4 	TooLittleTime 	0
scalar IntersectionExampleScenario.node[10].nic.mac1609_4 	TimesIntoBackoff 	0
scalar IntersectionExampleScenario.node[10].nic.mac1609_4 	SlotsBackoff 	0
scalar IntersectionExampleScenario.node[10].nic.mac1609_4 	NumInternalContention 	0
scalar IntersectionExampleScenario.node[10].nic.mac1609_4 	totalBusyTime 	0
scalar IntersectionExampleScenario.node[10].veinsmobility 	startTime 	20
scalar IntersectionExampleScenario.node[10].veinsmobility 	totalTime 	55.25
scalar IntersectionExampleScenario.node[10].veinsmobility 	stopTime 	75.5
scalar IntersectionExampleScenario.node[10].veinsmobility 	minSpeed 	0
scalar IntersectionExampleScenario.node[10].veinsmobility 	maxSpeed 	15.375
scalar IntersectionExampleScenario.node[10].veinsmobility 	totalDistance 	567.34372325772
scalar IntersectionExampleScenario.node[10].veinsmobility 	totalCO2Emission 	146.11971741002
scalar IntersectionExampleScenario.node[9].appl 	VehicleRemoved 	0
scalar IntersectionExampleScenario.node[9].appl 	ArrivedAtDest 	1
scalar IntersectionExampleScenario.node[9].appl 	IntersectionEnterTime 	16.25
scalar IntersectionExampleScenario.node[9].appl 	IntersectionExitTime 	61.315800485987
scalar IntersectionExampleScenario.node[9].appl 	NumberOfCollisions 	0
scalar IntersectionExampleScenario.node[9].nic.phy80211p 	busyTime 	0
scalar IntersectionExampleScenario.node[9].nic.mac1609_4 	ReceivedUnicastPackets 	0
scalar IntersectionExampleScenario.node[9].nic.mac1609_4 	ReceivedBroadcasts 	0
scalar IntersectionExampleScenario.node[9].nic.mac1609_4 	SentPackets 	0
scalar IntersectionExampleScenario.node[9].nic.mac1609_4 	SNIRLostPackets 	0
scalar IntersectionExampleScenario.node[9].nic.mac1609_4 	RXTXLostPackets 	0
scalar IntersectionExampleScenario.node[9].nic.mac1609_4 	TotalLostPackets 	0
scalar IntersectionExampleScenario.node[9].nic.mac1609_4 	DroppedPacketsInMac 	0
scalar IntersectionExampleScenario.node[9].nic.mac1609_4 	TooLittleTime 	0
scalar IntersectionExampleScenario.node[9].nic.mac1609_4 	TimesIntoBackoff 	0
scalar IntersectionExampleScenario.node[9].nic.mac1609_4 	SlotsBackoff 	0
scalar IntersectionExampleScenario.node[9].nic.mac1609_4 	NumInternalContention 	0
scalar IntersectionExampleScenario.node[9].nic.mac1609_4 	totalBusyTime 	0
scalar IntersectionExampleScenario.node[9].veinsmobility 	startTime 	16.25
scalar IntersectionExampleScenario.node[9].veinsmobility 	totalTime 	61.5
scalar IntersectionExampleScenario.node[9].veinsmobility 	stopTime 	78
scalar IntersectionExampleScenario.node[9].veinsmobility 	minSpeed 	0
scalar IntersectionExampleScenario.node[9].veinsmobility 	maxSpeed 	15.375
scalar IntersectionExampleScenario.node[9].veinsmobility 	totalDistance 	551.9021922504
scalar IntersectionExampleScenario.node[9].veinsmobility 	totalCO2Emission 	151.05475127104
scalar IntersectionExampleScenario.node[12].appl 	VehicleRemoved 	0
scalar IntersectionExampleScenario.node[12].appl 	ArrivedAtDest 	1
scalar IntersectionExampleScenario.node[12].appl 	IntersectionEnterTime 	22.25
scalar IntersectionExampleScenario.node[12].appl 	IntersectionExitTime 	62.59953025874
scalar IntersectionExampleScenario.node[12].appl 	NumberOfCollisions 	0
scalar IntersectionExampleScenario.node[12].nic.phy80211p 	busyTime 	0
scalar IntersectionExampleScenario.node[12].nic.mac1609_4 	ReceivedUnicastPackets 	0
scalar IntersectionExampleScenario.node[12].nic.mac1609_4 	ReceivedBroadcasts 	0
scalar IntersectionExampleScenario.node[12].nic.mac1609_4 	SentPackets 	0
scalar IntersectionExampleScenario.node[12].nic.mac1609_4 	SNIRLostPackets 	0
scalar IntersectionExampleScenario.node[12].nic.mac1609_4 	RXTXLostPackets 	0
scalar IntersectionExampleScenario.node[12].nic.mac1609_4 	TotalLostPackets 	0
scalar IntersectionExampleScenario.node[12].nic.mac1609_4 	DroppedPacketsInMac 	0
scalar IntersectionExampleScenario.node[12].nic.mac1609_4 	TooLittleTime 	0
scalar IntersectionExampleScenario.node[12].nic.mac1609_4 	TimesIntoBackoff 	0
scalar IntersectionExampleScenario.node[12].nic.mac1609_4 	SlotsBackoff 	0
scalar IntersectionExampleScenario.node[12].nic.mac1609_4 	NumInternalContention 	0
scalar IntersectionExampleScenario.node[12].nic.mac1609_4 	totalBusyTime 	0
scalar IntersectionExampleScenario.node[12].veinsmobility 	startTime 	22.25
scalar IntersectionExampleScenario.node[12].veinsmobility 	totalTime 	56
scalar IntersectionExampleScenario.node[12].veinsmobility 	stopTime 	78.5
scalar IntersectionExampleScenario.node[12].veinsmobility 	minSpeed 	0
scalar IntersectionExampleScenario.node[12].veinsmobility 	maxSpeed 	15.5
scalar IntersectionExampleScenario.node[12].veinsmobility 	totalDistance 	551.27207183838
scalar IntersectionExampleScenario.node[12].veinsmobility 	totalCO2Emission 	146.12453649253
scalar IntersectionExampleScenario.node[24].appl 	VehicleRemoved 	0
scalar IntersectionExampleScenario.node[24].appl 	ArrivedAtDest 	1
scalar IntersectionExampleScenario.node[24].appl 	IntersectionEnterTime 	43
scalar IntersectionExampleScenario.node[24].appl 	IntersectionExitTime 	66.607892143395
scalar IntersectionExampleScenario.node[24].appl 	NumberOfCollisions 	0
scalar IntersectionExampleScenario.node[24].nic.phy80211p 	busyTime 	0
scalar IntersectionExampleScenario.node[24].nic.mac1609_4 	ReceivedUnicastPackets 	0
scalar IntersectionExampleScenario.node[24].nic.mac1609_4 	ReceivedBroadcasts 	0
scalar IntersectionExampleScenario.node[24].nic.mac1609_4 	SentPackets 	0
scalar IntersectionExampleScenario.node[24].nic.mac1609_4 	SNIRLostPackets 	0
scalar IntersectionExampleScenario.node[24].nic.mac1609_4 	RXTXLostPackets 	0
scalar IntersectionExampleScenario.node[24].nic.mac1609_4 	TotalLostPackets 	0
scalar IntersectionExampleScenario.node[24].nic.mac1609_4 	DroppedPacketsInMac 	0
scalar IntersectionExampleScenario.node[24].nic.mac1609_4 	TooLittleTime 	0
scalar IntersectionExampleScenario.node[24].nic.mac1609_4 	TimesIntoBackoff 	0
scalar IntersectionExampleScenario.node[24].nic.mac1609_4 	SlotsBackoff 	0
scalar IntersectionExampleScenario.node[24].nic.mac1609_4 	NumInternalContention 	0
scalar IntersectionExampleScenario.node[24].nic.mac1609_4 	totalBusyTime 	0
scalar IntersectionExampleScenario.node[24].veinsmobility 	startTime 	43
scalar IntersectionExampleScenario.node[24].veinsmobility 	totalTime 	40
scalar IntersectionExampleScenario.node[24].veinsmobility 	stopTime 	83.25
scalar IntersectionExampleScenario.node[24].veinsmobility 	minSpeed 	5.6500000953674
scalar IntersectionExampleScenario.node[24].veinsmobility 	maxSpeed 	15.02499961853
scalar IntersectionExampleScenario.node[24].veinsmobility 	totalDistance 	551.90744781494
scalar IntersectionExampleScenario.node[24].veinsmobility 	totalCO2Emission 	116.84076291444
scalar IntersectionExampleScenario.node[13].appl 	VehicleRemoved 	0
scalar IntersectionExampleScenario.node[13].appl 	ArrivedAtDest 	1
scalar IntersectionExampleScenario.node[13].appl 	IntersectionEnterTime 	24
scalar IntersectionExampleScenario.node[13].appl 	IntersectionExitTime 	69.537854777416
scalar IntersectionExampleScenario.node[13].appl 	NumberOfCollisions 	0
scalar IntersectionExampleScenario.node[13].nic.phy80211p 	busyTime 	0
scalar IntersectionExampleScenario.node[13].nic.mac1609_4 	ReceivedUnicastPackets 	0
scalar IntersectionExampleScenario.node[13].nic.mac1609_4 	ReceivedBroadcasts 	0
scalar IntersectionExampleScenario.node[13].nic.mac1609_4 	SentPackets 	0
scalar IntersectionExampleScenario.node[13].nic.mac1609_4 	SNIRLostPackets 	0
scalar IntersectionExampleScenario.node[13].nic.mac1609_4 	RXTXLostPackets 	0
scalar IntersectionExampleScenario.node[13].nic.mac1609_4 	TotalLostPackets 	0
scalar IntersectionExampleScenario.node[13].nic.mac1609_4 	DroppedPacketsInMac 	0
scalar IntersectionExampleScenario.node[13].nic.mac1609_4 	TooLittleTime 	0
scalar IntersectionExampleScenario.node[13].nic.mac1609_4 	TimesIntoBackoff 	0
scalar IntersectionExampleScenario.node[13].nic.mac1609_4 	SlotsBackoff 	0
scalar IntersectionExampleScenario.node[13].nic.mac1609_4 	NumInternalContention 	0
scalar IntersectionExampleScenario.node[13].nic.mac1609_4 	totalBusyTime 	0
scalar IntersectionExampleScenario.node[13].veinsmobility 	startTime 	24
scalar IntersectionExampleScenario.node[13].veinsmobility 	totalTime 	61.5
scalar IntersectionExampleScenario.node[13].veinsmobility 	stopTime 	85.75
scalar IntersectionExampleScenario.node[13].veinsmobility 	minSpeed 	0
scalar IntersectionExampleScenario.node[13].veinsmobility 	maxSpeed 	15.64999961853
scalar IntersectionExampleScenario.node[13].veinsmobility 	totalDistance 	550.77426376258
scalar IntersectionExampleScenario.node[13].veinsmobility 	totalCO2Emission 	154.40555967214
scalar IntersectionExampleScenario.node[19].appl 	VehicleRemoved 	0
scalar IntersectionExampleScenario.node[19].appl 	ArrivedAtDest 	1
scalar IntersectionExampleScenario.node[19].appl 	IntersectionEnterTime 	37.5
scalar IntersectionExampleScenario.node[19].appl 	IntersectionExitTime 	69.789170737611
scalar IntersectionExampleScenario.node[19].appl 	NumberOfCollisions 	0
scalar IntersectionExampleScenario.node[19].nic.phy80211p 	busyTime 	0
scalar IntersectionExampleScenario.node[19].nic.mac1609_4 	ReceivedUnicastPackets 	0
scalar IntersectionExampleScenario.node[19].nic.mac1609_4 	ReceivedBroadcasts 	0
scalar IntersectionExampleScenario.node[19].nic.mac1609_4 	SentPackets 	0
scalar IntersectionExampleScenario.node[19].nic.mac1609_4 	SNIRLostPackets 	0
scalar IntersectionExampleScenario.node[19].nic.mac1609_4 	RXTXLostPackets 	0
scalar IntersectionExampleScenario.node[19].nic.mac1609_4 	TotalLostPackets 	0
scalar IntersectionExampleScenario.node[19].nic.mac1609_4 	DroppedPacketsInMac 	0
scalar IntersectionExampleScenario.node[19].nic.mac1609_4 	TooLittleTime 	0
scalar IntersectionExampleScenario.node[19].nic.mac1609_4 	TimesIntoBackoff 	0
scalar IntersectionExampleScenario.node[19].nic.mac1609_4 	SlotsBackoff 	0
scalar IntersectionExampleScenario.node[19].nic.mac1609_4 	NumInternalContention 	0
scalar IntersectionExampleScenario.node[19].nic.mac1609_4 	totalBusyTime 	0
scalar IntersectionExampleScenario.node[19].veinsmobility 	startTime 	37.5
scalar IntersectionExampleScenario.node[19].veinsmobility 	totalTime 	49
scalar IntersectionExampleScenario.node[19].veinsmobility 	stopTime 	86.75
scalar IntersectionExampleScenario.node[19].veinsmobility 	minSpeed 	1.526584982872
scalar IntersectionExampleScenario.node[19].veinsmobility 	maxSpeed 	15.64999961853
scalar IntersectionExampleScenario.node[19].veinsmobility 	totalDistance 	544.90448685429
scalar IntersectionExampleScenario.node[19].veinsmobility 	totalCO2Emission 	137.09673814385
scalar IntersectionExampleScenario.node[23].appl 	VehicleRemoved 	0
scalar IntersectionExampleScenario.node[23].appl 	ArrivedAtDest 	1
scalar IntersectionExampleScenario.node[23].appl 	IntersectionEnterTime 	41.75
scalar IntersectionExampleScenario.node[23].appl 	IntersectionExitTime 	72.289198541024
scalar IntersectionExampleScenario.node[23].appl 	NumberOfCollisions 	0
scalar IntersectionExampleScenario.node[23].nic.phy80211p 	busyTime 	0
scalar IntersectionExampleScenario.node[23].nic.mac1609_4 	ReceivedUnicastPackets 	0
scalar IntersectionExampleScenario.node[23].nic.mac1609_4 	ReceivedBroadcasts 	0
scalar IntersectionExampleScenario.node[23].nic.mac1609_4 	SentPackets 	0
scalar IntersectionExampleScenario.node[23].nic.mac1609_4 	SNIRLostPackets 	0
scalar IntersectionExampleScenario.node[23].nic.mac1609_4 	RXTXLostPackets 	0
scalar IntersectionExampleScenario.node[23].nic.mac1609_4 	TotalLostPackets 	0
scalar IntersectionExampleScenario.node[23].nic.mac1609_4 	DroppedPacketsInMac 	0
scalar IntersectionExampleScenario.node[23].nic.mac1609_4 	TooLittleTime 	0
scalar IntersectionExampleScenario.node[23].nic.mac1609_4 	TimesIntoBackoff 	0
scalar IntersectionExampleScenario.node[23].nic.mac1609_4 	SlotsBackoff 	0
scalar IntersectionExampleScenario.node[23].nic.mac1609_4 	NumInternalContention 	0
scalar IntersectionExampleScenario.node[23].nic.mac1609_4 	totalBusyTime 	0
scalar IntersectionExampleScenario.node[23].veinsmobility 	startTime 	41.75
scalar IntersectionExampleScenario.node[23].veinsmobility 	totalTime 	46.5
scalar IntersectionExampleScenario.node[23].veinsmobility 	stopTime 	88.5
scalar IntersectionExampleScenario.node[23].veinsmobility 	minSpeed 	4.3304615020752
scalar IntersectionExampleScenario.node[23].veinsmobility 	maxSpeed 	15.64999961853
scalar IntersectionExampleScenario.node[23].veinsmobility 	totalDistance 	555.37908581292
scalar IntersectionExampleScenario.node[23].veinsmobility 	totalCO2Emission 	137.4500498777
scalar IntersectionExampleScenario.node[27].appl 	VehicleRemoved 	0
scalar IntersectionExampleScenario.node[27].appl 	ArrivedAtDest 	1
scalar IntersectionExampleScenario.node[27].appl 	IntersectionEnterTime 	46.75
scalar IntersectionExampleScenario.node[27].appl 	IntersectionExitTime 	74.293710219965
scalar IntersectionExampleScenario.node[27].appl 	NumberOfCollisions 	0
scalar IntersectionExampleScenario.node[27].nic.phy80211p 	busyTime 	0
scalar IntersectionExampleScenario.node[27].nic.mac1609_4 	ReceivedUnicastPackets 	0
scalar IntersectionExampleScenario.node[27].nic.mac1609_4 	ReceivedBroadcasts 	0
scalar IntersectionExampleScenario.node[27].nic.mac1609_4 	SentPackets 	0
scalar IntersectionExampleScenario.node[27].nic.mac1609_4 	SNIRLostPackets 	0
scalar IntersectionExampleScenario.node[27].nic.mac1609_4 	RXTXLostPackets 	0
scalar IntersectionExampleScenario.node[27].nic.mac1609_4 	TotalLostPackets 	0
scalar IntersectionExampleScenario.node[27].nic.mac1609_4 	DroppedPacketsInMac 	0
scalar IntersectionExampleScenario.node[27].nic.mac1609_4 	TooLittleTime 	0
scalar IntersectionExampleScenario.node[27].nic.mac1609_4 	TimesIntoBackoff 	0
scalar IntersectionExampleScenario.node[27].nic.mac1609_4 	SlotsBackoff 	0
scalar IntersectionExampleScenario.node[27].nic.mac1609_4 	NumInternalContention 	0
scalar IntersectionExampleScenario.node[27].nic.mac1609_4 	totalBusyTime 	0
scalar IntersectionExampleScenario.node[27].veinsmobility 	startTime 	46.75
scalar IntersectionExampleScenario.node[27].veinsmobility 	totalTime 	44.25
scalar IntersectionExampleScenario.node[27].veinsmobility 	stopTime 	91.25
scalar IntersectionExampleScenario.node[27].veinsmobility 	minSpeed 	3.4075274467468
scalar IntersectionExampleScenario.node[27].veinsmobility 	maxSpeed 	15.64999961853
scalar IntersectionExampleScenario.node[27].veinsmobility 	totalDistance 	522.31417586342
scalar IntersectionExampleScenario.node[27].veinsmobility 	totalCO2Emission 	139.96415311968
scalar IntersectionExampleScenario.node[16].appl 	VehicleRemoved 	0
scalar IntersectionExampleScenario.node[16].appl 	ArrivedAtDest 	1
scalar IntersectionExampleScenario.node[16].appl 	IntersectionEnterTime 	29
scalar IntersectionExampleScenario.node[16].appl 	IntersectionExitTime 	77.371234915132
scalar IntersectionExampleScenario.node[16].appl 	NumberOfCollisions 	0
scalar IntersectionExampleScenario.node[16].nic.phy80211p 	busyTime 	0
scalar IntersectionExampleScenario.node[16].nic.mac1609_4 	ReceivedUnicastPackets 	0
scalar IntersectionExampleScenario.node[16].nic.mac1609_4 	ReceivedBroadcasts 	0
scalar IntersectionExampleScenario.node[16].nic.mac1609_4 	SentPackets 	0
scalar IntersectionExampleScenario.node[16].nic.mac1609_4 	SNIRLostPackets 	0
scalar IntersectionExampleScenario.node[16].nic.mac1609_4 	RXTXLostPackets 	0
scalar IntersectionExampleScenario.node[16].nic.mac1609_4 	TotalLostPackets 	0
scalar IntersectionExampleScenario.node[16].nic.mac1609_4 	DroppedPacketsInMac 	0
scalar IntersectionExampleScenario.node[16].nic.mac1609_4 	TooLittleTime 	0
scalar IntersectionExampleScenario.node[16].nic.mac1609_4 	TimesIntoBackoff 	0
scalar IntersectionExampleScenario.node[16].nic.mac1609_4 	SlotsBackoff 	0
scalar IntersectionExampleScenario.node[16].nic.mac1609_4 	NumInternalContention 	0
scalar IntersectionExampleScenario.node[16].nic.mac1609_4 	totalBusyTime 	0
scalar IntersectionExampleScenario.node[16].veinsmobility 	startTime 	29
scalar IntersectionExampleScenario.node[16].veinsmobility 	totalTime 	63.5
scalar IntersectionExampleScenario.node[16].veinsmobility 	stopTime 	92.75
scalar IntersectionExampleScenario.node[16].veinsmobility 	minSpeed 	0
scalar IntersectionExampleScenario.node[16].veinsmobility 	maxSpeed 	16.27499961853
scalar IntersectionExampleScenario.node[16].veinsmobility 	totalDistance 	566.80693054199
scalar IntersectionExampleScenario.node[16].veinsmobility 	totalCO2Emission 	163.52577990533
scalar IntersectionExampleScenario.node[18].appl 	VehicleRemoved 	0
scalar IntersectionExampleScenario.node[18].appl 	ArrivedAtDest 	1
scalar IntersectionExampleScenario.node[18].appl 	IntersectionEnterTime 	32.25
scalar IntersectionExampleScenario.node[18].appl 	IntersectionExitTime 	79.337526402203
scalar IntersectionExampleScenario.node[18].appl 	NumberOfCollisions 	0
scalar IntersectionExampleScenario.node[18].nic.phy80211p 	busyTime 	0
scalar IntersectionExampleScenario.node[18].nic.mac1609_4 	ReceivedUnicastPackets 	0
scalar IntersectionExampleScenario.node[18].nic.mac1609_4 	ReceivedBroadcasts 	0
scalar IntersectionExampleScenario.node[18].nic.mac1609_4 	SentPackets 	0
scalar IntersectionExampleScenario.node[18].nic.mac1609_4 	SNIRLostPackets 	0
scalar IntersectionExampleScenario.node[18].nic.mac1609_4 	RXTXLostPackets 	0
scalar IntersectionExampleScenario.node[18].nic.mac1609_4 	TotalLostPackets 	0
scalar IntersectionExampleScenario.node[18].nic.mac1609_4 	DroppedPacketsInMac 	0
scalar IntersectionExampleScenario.node[18].nic.mac1609_4 	TooLittleTime 	0
scalar IntersectionExampleScenario.node[18].nic.mac1609_4 	TimesIntoBackoff 	0
scalar IntersectionExampleScenario.node[18].nic.mac1609_4 	SlotsBackoff 	0
scalar IntersectionExampleScenario.node[18].nic.mac1609_4 	NumInternalContention 	0
scalar IntersectionExampleScenario.node[18].nic.mac1609_4 	totalBusyTime 	0
scalar IntersectionExampleScenario.node[18].veinsmobility 	startTime 	32.25
scalar IntersectionExampleScenario.node[18].veinsmobility 	totalTime 	62.5
scalar IntersectionExampleScenario.node[18].veinsmobility 	stopTime 	95
scalar IntersectionExampleScenario.node[18].veinsmobility 	minSpeed 	0
scalar IntersectionExampleScenario.node[18].veinsmobility 	maxSpeed 	16.27499961853
scalar IntersectionExampleScenario.node[18].veinsmobility 	totalDistance 	572.34663391113
scalar IntersectionExampleScenario.node[18].veinsmobility 	totalCO2Emission 	162.46183996248
scalar IntersectionExampleScenario.node[28].appl 	VehicleRemoved 	0
scalar IntersectionExampleScenario.node[28].appl 	ArrivedAtDest 	1
scalar IntersectionExampleScenario.node[28].appl 	IntersectionEnterTime 	47
scalar IntersectionExampleScenario.node[28].appl 	IntersectionExitTime 	80.793172724079
scalar IntersectionExampleScenario.node[28].appl 	NumberOfCollisions 	0
scalar IntersectionExampleScenario.node[28].nic.phy80211p 	busyTime 	0
scalar IntersectionExampleScenario.node[28].nic.mac1609_4 	ReceivedUnicastPackets 	0
scalar IntersectionExampleScenario.node[28].nic.mac1609_4 	ReceivedBroadcasts 	0
scalar IntersectionExampleScenario.node[28].nic.mac1609_4 	SentPackets 	0
scalar IntersectionExampleScenario.node[28].nic.mac1609_4 	SNIRLostPackets 	0
scalar IntersectionExampleScenario.node[28].nic.mac1609_4 	RXTXLostPackets 	0
scalar IntersectionExampleScenario.node[28].nic.mac1609_4 	TotalLostPackets 	0
scalar IntersectionExampleScenario.node[28].nic.mac1609_4 	DroppedPacketsInMac 	0
scalar IntersectionExampleScenario.node[28].nic.mac1609_4 	TooLittleTime 	0
scalar IntersectionExampleScenario.node[28].nic.mac1609_4 	TimesIntoBackoff 	0
scalar IntersectionExampleScenario.node[28].nic.mac1609_4 	SlotsBackoff 	0
scalar IntersectionExampleScenario.node[28].nic.mac1609_4 	NumInternalContention 	0
scalar IntersectionExampleScenario.node[28].nic.mac1609_4 	totalBusyTime 	0
scalar IntersectionExampleScenario.node[28].veinsmobility 	startTime 	47
scalar IntersectionExampleScenario.node[28].veinsmobility 	totalTime 	49.5
scalar IntersectionExampleScenario.node[28].veinsmobility 	stopTime 	96.75
scalar IntersectionExampleScenario.node[28].veinsmobility 	minSpeed 	1.3256752490997
scalar IntersectionExampleScenario.node[28].veinsmobility 	maxSpeed 	16.89999961853
scalar IntersectionExampleScenario.node[28].veinsmobility 	totalDistance 	544.62538612143
scalar IntersectionExampleScenario.node[28].veinsmobility 	totalCO2Emission 	148.07133620849
scalar IntersectionExampleScenario.node[30].appl 	VehicleRemoved 	0
scalar IntersectionExampleScenario.node[30].appl 	ArrivedAtDest 	1
scalar IntersectionExampleScenario.node[30].appl 	IntersectionEnterTime 	57.5
scalar IntersectionExampleScenario.node[30].appl 	IntersectionExitTime 	83.331397017319
scalar IntersectionExampleScenario.node[30].appl 	NumberOfCollisions 	0
scalar IntersectionExampleScenario.node[30].nic.phy80211p 	busyTime 	0
scalar IntersectionExampleScenario.node[30].nic.mac1609_4 	ReceivedUnicastPackets 	0
scalar IntersectionExampleScenario.node[30].nic.mac1609_4 	ReceivedBroadcasts 	0
scalar IntersectionExampleScenario.node[30].nic.mac1609_4 	SentPackets 	0
scalar IntersectionExampleScenario.node[30].nic.mac1609_4 	SNIRLostPackets 	0
scalar IntersectionExampleScenario.node[30].nic.mac1609_4 	RXTXLostPackets 	0
scalar IntersectionExampleScenario.node[30].nic.mac1609_4 	TotalLostPackets 	0
scalar IntersectionExampleScenario.node[30].nic.mac1609_4 	DroppedPacketsInMac 	0
scalar IntersectionExampleScenario.node[30].nic.mac1609_4 	TooLittleTime 	0
scalar IntersectionExampleScenario.node[30].nic.mac1609_4 	TimesIntoBackoff 	0
scalar IntersectionExampleScenario.node[30].nic.mac1609_4 	SlotsBackoff 	0
scalar IntersectionExampleScenario.node[30].nic.mac1609_4 	NumInternalContention 	0
scalar IntersectionExampleScenario.node[30].nic.mac1609_4 	totalBusyTime 	0
scalar IntersectionExampleScenario.node[30].veinsmobility 	startTime 	57.5
scalar IntersectionExampleScenario.node[30].veinsmobility 	totalTime 	42
scalar IntersectionExampleScenario.node[30].veinsmobility 	stopTime 	99.75
scalar IntersectionExampleScenario.node[30].veinsmobility 	minSpeed 	5.6500000953674
scalar IntersectionExampleScenario.node[30].veinsmobility 	maxSpeed 	15.64999961853
scalar IntersectionExampleScenario.node[30].veinsmobility 	totalDistance 	550.89616079591
scalar IntersectionExampleScenario.node[30].veinsmobility 	totalCO2Emission 	136.41709007493
scalar IntersectionExampleScenario.node[15].appl 	VehicleRemoved 	0
scalar IntersectionExampleScenario.node[15].appl 	ArrivedAtDest 	1
scalar IntersectionExampleScenario.node[15].appl 	IntersectionEnterTime 	26.5
scalar IntersectionExampleScenario.node[15].appl 	IntersectionExitTime 	84.864618712803
scalar IntersectionExampleScenario.node[15].appl 	NumberOfCollisions 	0
scalar IntersectionExampleScenario.node[15].nic.phy80211p 	busyTime 	0
scalar IntersectionExampleScenario.node[15].nic.mac1609_4 	ReceivedUnicastPackets 	0
scalar IntersectionExampleScenario.node[15].nic.mac1609_4 	ReceivedBroadcasts 	0
scalar IntersectionExampleScenario.node[15].nic.mac1609_4 	SentPackets 	0
scalar IntersectionExampleScenario.node[15].nic.mac1609_4 	SNIRLostPackets 	0
scalar IntersectionExampleScenario.node[15].nic.mac1609_4 	RXTXLostPackets 	0
scalar IntersectionExampleScenario.node[15].nic.mac1609_4 	TotalLostPackets 	0
scalar IntersectionExampleScenario.node[15].nic.mac1609_4 	DroppedPacketsInMac 	0
scalar IntersectionExampleScenario.node[15].nic.mac1609_4 	TooLittleTime 	0
scalar IntersectionExampleScenario.node[15].nic.mac1609_4 	TimesIntoBackoff 	0
scalar IntersectionExampleScenario.node[15].nic.mac1609_4 	SlotsBackoff 	0
scalar IntersectionExampleScenario.node[15].nic.mac1609_4 	NumInternalContention 	0
scalar IntersectionExampleScenario.node[15].nic.mac1609_4 	totalBusyTime 	0
scalar IntersectionExampleScenario.node[15].veinsmobility 	startTime 	26.5
scalar IntersectionExampleScenario.node[15].veinsmobility 	totalTime 	74.5
scalar IntersectionExampleScenario.node[15].veinsmobility 	stopTime 	101.25
scalar IntersectionExampleScenario.node[15].veinsmobility 	minSpeed 	0
scalar IntersectionExampleScenario.node[15].veinsmobility 	maxSpeed 	15.375
scalar IntersectionExampleScenario.node[15].veinsmobility 	totalDistance 	549.8151028676
scalar IntersectionExampleScenario.node[15].veinsmobility 	totalCO2Emission 	169.84391076117
scalar IntersectionExampleScenario.node[17].appl 	VehicleRemoved 	0
scalar IntersectionExampleScenario.node[17].appl 	ArrivedAtDest 	1
scalar IntersectionExampleScenario.node[17].appl 	IntersectionEnterTime 	30.5
scalar IntersectionExampleScenario.node[17].appl 	IntersectionExitTime 	86.080499773409
scalar IntersectionExampleScenario.node[17].appl 	NumberOfCollisions 	0
scalar IntersectionExampleScenario.node[17].nic.phy80211p 	busyTime 	0
scalar IntersectionExampleScenario.node[17].nic.mac1609_4 	ReceivedUnicastPackets 	0
scalar IntersectionExampleScenario.node[17].nic.mac1609_4 	ReceivedBroadcasts 	0
scalar IntersectionExampleScenario.node[17].nic.mac1609_4 	SentPackets 	0
scalar IntersectionExampleScenario.node[17].nic.mac1609_4 	SNIRLostPackets 	0
scalar IntersectionExampleScenario.node[17].nic.mac1609_4 	RXTXLostPackets 	0
scalar IntersectionExampleScenario.node[17].nic.mac1609_4 	TotalLostPackets 	0
scalar IntersectionExampleScenario.node[17].nic.mac1609_4 	DroppedPacketsInMac 	0
scalar IntersectionExampleScenario.node[17].nic.mac1609_4 	TooLittleTime 	0
scalar IntersectionExampleScenario.node[17].nic.mac1609_4 	TimesIntoBackoff 	0
scalar IntersectionExampleScenario.node[17].nic.mac1609_4 	SlotsBackoff 	0
scalar IntersectionExampleScenario.node[17].nic.mac1609_4 	NumInternalContention 	0
scalar IntersectionExampleScenario.node[17].nic.mac1609_4 	totalBusyTime 	0
scalar IntersectionExampleScenario.node[17].veinsmobility 	startTime 	30.5
scalar IntersectionExampleScenario.node[17].veinsmobility 	totalTime 	71.75
scalar IntersectionExampleScenario.node[17].veinsmobility 	stopTime 	102.5
scalar IntersectionExampleScenario.node[17].veinsmobility 	minSpeed 	0
scalar IntersectionExampleScenario.node[17].veinsmobility 	maxSpeed 	15.875
scalar IntersectionExampleScenario.node[17].veinsmobility 	totalDistance 	548.88032237346
scalar IntersectionExampleScenario.node[17].veinsmobility 	totalCO2Emission 	168.97120636991
scalar IntersectionExampleScenario.node[22].appl 	VehicleRemoved 	0
scalar IntersectionExampleScenario.node[22].appl 	ArrivedAtDest 	1
scalar IntersectionExampleScenario.node[22].appl 	IntersectionEnterTime 	40.75
scalar IntersectionExampleScenario.node[22].appl 	IntersectionExitTime 	88.580240273557
scalar IntersectionExampleScenario.node[22].appl 	NumberOfCollisions 	0
scalar IntersectionExampleScenario.node[22].nic.phy80211p 	busyTime 	0
scalar IntersectionExampleScenario.node[22].nic.mac1609_4 	ReceivedUnicastPackets 	0
scalar IntersectionExampleScenario.node[22].nic.mac1609_4 	ReceivedBroadcasts 	0
scalar IntersectionExampleScenario.node[22].nic.mac1609_4 	SentPackets 	0
scalar IntersectionExampleScenario.node[22].nic.mac1609_4 	SNIRLostPackets 	0
scalar IntersectionExampleScenario.node[22].nic.mac1609_4 	RXTXLostPackets 	0
scalar IntersectionExampleScenario.node[22].nic.mac1609_4 	TotalLostPackets 	0
scalar IntersectionExampleScenario.node[22].nic.mac1609_4 	DroppedPacketsInMac 	0
scalar IntersectionExampleScenario.node[22].nic.mac1609_4 	TooLittleTime 	0
scalar IntersectionExampleScenario.node[22].nic.mac1609_4 	TimesIntoBackoff 	0
scalar IntersectionExampleScenario.node[22].nic.mac1609_4 	SlotsBackoff 	0
scalar IntersectionExampleScenario.node[22].nic.mac1609_4 	NumInternalContention 	0
scalar IntersectionExampleScenario.node[22].nic.mac1609_4 	totalBusyTime 	0
scalar IntersectionExampleScenario.node[22].veinsmobility 	startTime 	40.75
scalar IntersectionExampleScenario.node[22].veinsmobility 	totalTime 	64.25
scalar IntersectionExampleScenario.node[22].veinsmobility 	stopTime 	105.25
scalar IntersectionExampleScenario.node[22].veinsmobility 	minSpeed 	0
scalar IntersectionExampleScenario.node[22].veinsmobility 	maxSpeed 	15.375
scalar IntersectionExampleScenario.node[22].veinsmobility 	totalDistance 	519.20742519629
scalar IntersectionExampleScenario.node[22].veinsmobility 	totalCO2Emission 	154.28363227977
scalar IntersectionExampleScenario.node[20].appl 	VehicleRemoved 	0
scalar IntersectionExampleScenario.node[20].appl 	ArrivedAtDest 	1
scalar IntersectionExampleScenario.node[20].appl 	IntersectionEnterTime 	39
scalar IntersectionExampleScenario.node[20].appl 	IntersectionExitTime 	91.354411994835
scalar IntersectionExampleScenario.node[20].appl 	NumberOfCollisions 	0
scalar IntersectionExampleScenario.node[20].nic.phy80211p 	busyTime 	0
scalar IntersectionExampleScenario.node[20].nic.mac1609_4 	ReceivedUnicastPackets 	0
scalar IntersectionExampleScenario.node[20].nic.mac1609_4 	ReceivedBroadcasts 	0
scalar IntersectionExampleScenario.node[20].nic.mac1609_4 	SentPackets 	0
scalar IntersectionExampleScenario.node[20].nic.mac1609_4 	SNIRLostPackets 	0
scalar IntersectionExampleScenario.node[20].nic.mac1609_4 	RXTXLostPackets 	0
scalar IntersectionExampleScenario.node[20].nic.mac1609_4 	TotalLostPackets 	0
scalar IntersectionExampleScenario.node[20].nic.mac1609_4 	DroppedPacketsInMac 	0
scalar IntersectionExampleScenario.node[20].nic.mac1609_4 	TooLittleTime 	0
scalar IntersectionExampleScenario.node[20].nic.mac1609_4 	TimesIntoBackoff 	0
scalar IntersectionExampleScenario.node[20].nic.mac1609_4 	SlotsBackoff 	0
scalar IntersectionExampleScenario.node[20].nic.mac1609_4 	NumInternalContention 	0
scalar IntersectionExampleScenario.node[20].nic.mac1609_4 	totalBusyTime 	0
scalar IntersectionExampleScenario.node[20].veinsmobility 	startTime 	39
scalar IntersectionExampleScenario.node[20].veinsmobility 	totalTime 	68.5
scalar IntersectionExampleScenario.node[20].veinsmobility 	stopTime 	107.75
scalar IntersectionExampleScenario.node[20].veinsmobility 	minSpeed 	0
scalar IntersectionExampleScenario.node[20].veinsmobility 	maxSpeed 	15.375
scalar IntersectionExampleScenario.node[20].veinsmobility 	totalDistance 	549.70426144183
scalar IntersectionExampleScenario.node[20].veinsmobility 	totalCO2Emission 	175.17638965005
scalar IntersectionExampleScenario.node[25].appl 	VehicleRemoved 	0
scalar IntersectionExampleScenario.node[25].appl 	ArrivedAtDest 	1
scalar IntersectionExampleScenario.node[25].appl 	IntersectionEnterTime 	44.75
scalar IntersectionExampleScenario.node[25].appl 	IntersectionExitTime 	99.53934697638
scalar IntersectionExampleScenario.node[25].appl 	NumberOfCollisions 	0
scalar IntersectionExampleScenario.node[25].nic.phy80211p 	busyTime 	0
scalar IntersectionExampleScenario.node[25].nic.mac1609_4 	ReceivedUnicastPackets 	0
scalar IntersectionExampleScenario.node[25].nic.mac1609_4 	ReceivedBroadcasts 	0
scalar IntersectionExampleScenario.node[25].nic.mac1609_4 	SentPackets 	0
scalar IntersectionExampleScenario.node[25].nic.mac1609_4 	SNIRLostPackets 	0
scalar IntersectionExampleScenario.node[25].nic.mac1609_4 	RXTXLostPackets 	0
scalar IntersectionExampleScenario.node[25].nic.mac1609_4 	TotalLostPackets 	0
scalar IntersectionExampleScenario.node[25].nic.mac1609_4 	DroppedPacketsInMac 	0
scalar IntersectionExampleScenario.node[25].nic.mac1609_4 	TooLittleTime 	0
scalar IntersectionExampleScenario.node[25].nic.mac1609_4 	TimesIntoBackoff 	0
scalar IntersectionExampleScenario.node[25].nic.mac1609_4 	SlotsBackoff 	0
scalar IntersectionExampleScenario.node[25].nic.mac1609_4 	NumInternalContention 	0
scalar IntersectionExampleScenario.node[25].nic.mac1609_4 	totalBusyTime 	0
scalar IntersectionExampleScenario.node[25].veinsmobility 	startTime 	44.75
scalar IntersectionExampleScenario.node[25].veinsmobility 	totalTime 	70.75
scalar IntersectionExampleScenario.node[25].veinsmobility 	stopTime 	115.75
scalar IntersectionExampleScenario.node[25].veinsmobility 	minSpeed 	0
scalar IntersectionExampleScenario.node[25].veinsmobility 	maxSpeed 	16.5
scalar IntersectionExampleScenario.node[25].veinsmobility 	totalDistance 	561.32337857634
scalar IntersectionExampleScenario.node[25].veinsmobility 	totalCO2Emission 	185.28085211593
scalar IntersectionExampleScenario.node[34].appl 	VehicleRemoved 	0
scalar IntersectionExampleScenario.node[34].appl 	ArrivedAtDest 	1
scalar IntersectionExampleScenario.node[34].appl 	IntersectionEnterTime 	74.25
scalar IntersectionExampleScenario.node[34].appl 	IntersectionExitTime 	101.86691622721
scalar IntersectionExampleScenario.node[34].appl 	NumberOfCollisions 	0
scalar IntersectionExampleScenario.node[34].nic.phy80211p 	busyTime 	0
scalar IntersectionExampleScenario.node[34].nic.mac1609_4 	ReceivedUnicastPackets 	0
scalar IntersectionExampleScenario.node[34].nic.mac1609_4 	ReceivedBroadcasts 	0
scalar IntersectionExampleScenario.node[34].nic.mac1609_4 	SentPackets 	0
scalar IntersectionExampleScenario.node[34].nic.mac1609_4 	SNIRLostPackets 	0
scalar IntersectionExampleScenario.node[34].nic.mac1609_4 	RXTXLostPackets 	0
scalar IntersectionExampleScenario.node[34].nic.mac1609_4 	TotalLostPackets 	0
scalar IntersectionExampleScenario.node[34].nic.mac1609_4 	DroppedPacketsInMac 	0
scalar IntersectionExampleScenario.node[34].nic.mac1609_4 	TooLittleTime 	0
scalar IntersectionExampleScenario.node[34].nic.mac1609_4 	TimesIntoBackoff 	0
scalar IntersectionExampleScenario.node[34].nic.mac1609_4 	SlotsBackoff 	0
scalar IntersectionExampleScenario.node[34].nic.mac1609_4 	NumInternalContention 	0
scalar IntersectionExampleScenario.node[34].nic.mac1609_4 	totalBusyTime 	0
scalar IntersectionExampleScenario.node[34].veinsmobility 	startTime 	74.25
scalar IntersectionExampleScenario.node[34].veinsmobility 	totalTime 	43.25
scalar IntersectionExampleScenario.node[34].veinsmobility 	stopTime 	117.75
scalar IntersectionExampleScenario.node[34].veinsmobility 	minSpeed 	4.1840915679932
scalar IntersectionExampleScenario.node[34].veinsmobility 	maxSpeed 	16.125
scalar IntersectionExampleScenario.node[34].veinsmobility 	totalDistance 	552.67148590088
scalar IntersectionExampleScenario.node[34].veinsmobility 	totalCO2Emission 	133.6408350842
scalar IntersectionExampleScenario.node[39].appl 	VehicleRemoved 	0
scalar IntersectionExampleScenario.node[39].appl 	ArrivedAtDest 	1
scalar IntersectionExampleScenario.node[39].appl 	IntersectionEnterTime 	82.75
scalar IntersectionExampleScenario.node[39].appl 	IntersectionExitTime 	106.3406211164
scalar IntersectionExampleScenario.node[39].appl 	NumberOfCollisions 	0
scalar IntersectionExampleScenario.node[39].nic.phy80211p 	busyTime 	0
scalar IntersectionExampleScenario.node[39].nic.mac1609_4 	ReceivedUnicastPackets 	0
scalar IntersectionExampleScenario.node[39].nic.mac1609_4 	ReceivedBroadcasts 	0
scalar IntersectionExampleScenario.node[39].nic.mac1609_4 	SentPackets 	0
scalar IntersectionExampleScenario.node[39].nic.mac1609_4 	SNIRLostPackets 	0
scalar IntersectionExampleScenario.node[39].nic.mac1609_4 	RXTXLostPackets 	0
scalar IntersectionExampleScenario.node[39].nic.mac1609_4 	TotalLostPackets 	0
scalar IntersectionExampleScenario.node[39].nic.mac1609_4 	DroppedPacketsInMac 	0
scalar IntersectionExampleScenario.node[39].nic.mac1609_4 	TooLittleTime 	0
scalar IntersectionExampleScenario.node[39].nic.mac1609_4 	TimesIntoBackoff 	0
scalar IntersectionExampleScenario.node[39].nic.mac1609_4 	SlotsBackoff 	0
scalar IntersectionExampleScenario.node[39].nic.mac1609_4 	NumInternalContention 	0
scalar IntersectionExampleScenario.node[39].nic.mac1609_4 	totalBusyTime 	0
scalar IntersectionExampleScenario.node[39].veinsmobility 	startTime 	82.75
scalar IntersectionExampleScenario.node[39].veinsmobility 	totalTime 	39.75
scalar IntersectionExampleScenario.node[39].veinsmobility 	stopTime 	122.75
scalar IntersectionExampleScenario.node[39].veinsmobility 	minSpeed 	5.6500000953674
scalar IntersectionExampleScenario.node[39].veinsmobility 	maxSpeed 	16.27499961853
scalar IntersectionExampleScenario.node[39].veinsmobility 	totalDistance 	543.63251983849
scalar IntersectionExampleScenario.node[39].veinsmobility 	totalCO2Emission 	140.20878195611
scalar IntersectionExampleScenario.node[33].appl 	VehicleRemoved 	0
scalar IntersectionExampleScenario.node[33].appl 	ArrivedAtDest 	1
scalar IntersectionExampleScenario.node[33].appl 	IntersectionEnterTime 	69.25
scalar IntersectionExampleScenario.node[33].appl 	IntersectionExitTime 	109.30389211248
scalar IntersectionExampleScenario.node[33].appl 	NumberOfCollisions 	0
scalar IntersectionExampleScenario.node[33].nic.phy80211p 	busyTime 	0
scalar IntersectionExampleScenario.node[33].nic.mac1609_4 	ReceivedUnicastPackets 	0
scalar IntersectionExampleScenario.node[33].nic.mac1609_4 	ReceivedBroadcasts 	0
scalar IntersectionExampleScenario.node[33].nic.mac1609_4 	SentPackets 	0
scalar IntersectionExampleScenario.node[33].nic.mac1609_4 	SNIRLostPackets 	0
scalar IntersectionExampleScenario.node[33].nic.mac1609_4 	RXTXLostPackets 	0
scalar IntersectionExampleScenario.node[33].nic.mac1609_4 	TotalLostPackets 	0
scalar IntersectionExampleScenario.node[33].nic.mac1609_4 	DroppedPacketsInMac 	0
scalar IntersectionExampleScenario.node[33].nic.mac1609_4 	TooLittleTime 	0
scalar IntersectionExampleScenario.node[33].nic.mac1609_4 	TimesIntoBackoff 	0
scalar IntersectionExampleScenario.node[33].nic.mac1609_4 	SlotsBackoff 	0
scalar IntersectionExampleScenario.node[33].nic.mac1609_4 	NumInternalContention 	0
scalar IntersectionExampleScenario.node[33].nic.mac1609_4 	totalBusyTime 	0
scalar IntersectionExampleScenario.node[33].veinsmobility 	startTime 	69.25
scalar IntersectionExampleScenario.node[33].veinsmobility 	totalTime 	55.75
scalar IntersectionExampleScenario.node[33].veinsmobility 	stopTime 	125.25
scalar IntersectionExampleScenario.node[33].veinsmobility 	minSpeed 	0
scalar IntersectionExampleScenario.node[33].veinsmobility 	maxSpeed 	16
scalar IntersectionExampleScenario.node[33].veinsmobility 	totalDistance 	552.08367919922
scalar IntersectionExampleScenario.node[33].veinsmobility 	totalCO2Emission 	149.95174517585
scalar IntersectionExampleScenario.node[38].appl 	VehicleRemoved 	0
scalar IntersectionExampleScenario.node[38].appl 	ArrivedAtDest 	1
scalar IntersectionExampleScenario.node[38].appl 	IntersectionEnterTime 	80
scalar IntersectionExampleScenario.node[38].appl 	IntersectionExitTime 	110.52823633101
scalar IntersectionExampleScenario.node[38].appl 	NumberOfCollisions 	0
scalar IntersectionExampleScenario.node[38].nic.phy80211p 	busyTime 	0
scalar IntersectionExampleScenario.node[38].nic.mac1609_4 	ReceivedUnicastPackets 	0
scalar IntersectionExampleScenario.node[38].nic.mac1609_4 	ReceivedBroadcasts 	0
scalar IntersectionExampleScenario.node[38].nic.mac1609_4 	SentPackets 	0
scalar IntersectionExampleScenario.node[38].nic.mac1609_4 	SNIRLostPackets 	0
scalar IntersectionExampleScenario.node[38].nic.mac1609_4 	RXTXLostPackets 	0
scalar IntersectionExampleScenario.node[38].nic.mac1609_4 	TotalLostPackets 	0
scalar IntersectionExampleScenario.node[38].nic.mac1609_4 	DroppedPacketsInMac 	0
scalar IntersectionExampleScenario.node[38].nic.mac1609_4 	TooLittleTime 	0
scalar IntersectionExampleScenario.node[38].nic.mac1609_4 	TimesIntoBackoff 	0
scalar IntersectionExampleScenario.node[38].nic.mac1609_4 	SlotsBackoff 	0
scalar IntersectionExampleScenario.node[38].nic.mac1609_4 	NumInternalContention 	0
scalar IntersectionExampleScenario.node[38].nic.mac1609_4 	totalBusyTime 	0
scalar IntersectionExampleScenario.node[38].veinsmobility 	startTime 	80
scalar IntersectionExampleScenario.node[38].veinsmobility 	totalTime 	47.5
scalar IntersectionExampleScenario.node[38].veinsmobility 	stopTime 	127.75
scalar IntersectionExampleScenario.node[38].veinsmobility 	minSpeed 	2.4535837173462
scalar IntersectionExampleScenario.node[38].veinsmobility 	maxSpeed 	15.25
scalar IntersectionExampleScenario.node[38].veinsmobility 	totalDistance 	544.36538001441
scalar IntersectionExampleScenario.node[38].veinsmobility 	totalCO2Emission 	134.33532042635
scalar IntersectionExampleScenario.node[40].appl 	VehicleRemoved 	0
scalar IntersectionExampleScenario.node[40].appl 	ArrivedAtDest 	1
scalar IntersectionExampleScenario.node[40].appl 	IntersectionEnterTime 	83.5
scalar IntersectionExampleScenario.node[40].appl 	IntersectionExitTime 	112.54441426953
scalar IntersectionExampleScenario.node[40].appl 	NumberOfCollisions 	0
scalar IntersectionExampleScenario.node[40].nic.phy80211p 	busyTime 	0
scalar IntersectionExampleScenario.node[40].nic.mac1609_4 	ReceivedUnicastPackets 	0
scalar IntersectionExampleScenario.node[40].nic.mac1609_4 	ReceivedBroadcasts 	0
scalar IntersectionExampleScenario.node[40].nic.mac1609_4 	SentPackets 	0
scalar IntersectionExampleScenario.node[40].nic.mac1609_4 	SNIRLostPackets 	0
scalar IntersectionExampleScenario.node[40].nic.mac1609_4 	RXTXLostPackets 	0
scalar IntersectionExampleScenario.node[40].nic.mac1609_4 	TotalLostPackets 	0
scalar IntersectionExampleScenario.node[40].nic.mac1609_4 	DroppedPacketsInMac 	0
scalar IntersectionExampleScenario.node[40].nic.mac1609_4 	TooLittleTime 	0
scalar IntersectionExampleScenario.node[40].nic.mac1609_4 	TimesIntoBackoff 	0
scalar IntersectionExampleScenario.node[40].nic.mac1609_4 	SlotsBackoff 	0
scalar IntersectionExampleScenario.node[40].nic.mac1609_4 	NumInternalContention 	0
scalar IntersectionExampleScenario.node[40].nic.mac1609_4 	totalBusyTime 	0
scalar IntersectionExampleScenario.node[40].veinsmobility 	startTime 	83.5
scalar IntersectionExampleScenario.node[40].veinsmobility 	totalTime 	44.75
scalar IntersectionExampleScenario.node[40].veinsmobility 	stopTime 	128.5
scalar IntersectionExampleScenario.node[40].veinsmobility 	minSpeed 	4.3638510704041
scalar IntersectionExampleScenario.node[40].veinsmobility 	maxSpeed 	15.715023040771
scalar IntersectionExampleScenario.node[40].veinsmobility 	totalDistance 	564.09072876035
scalar IntersectionExampleScenario.node[40].veinsmobility 	totalCO2Emission 	142.55196401286
scalar IntersectionExampleScenario.node[42].appl 	VehicleRemoved 	0
scalar IntersectionExampleScenario.node[42].appl 	ArrivedAtDest 	1
scalar IntersectionExampleScenario.node[42].appl 	IntersectionEnterTime 	86.75
scalar IntersectionExampleScenario.node[42].appl 	IntersectionExitTime 	114.6181281551
scalar IntersectionExampleScenario.node[42].appl 	NumberOfCollisions 	0
scalar IntersectionExampleScenario.node[42].nic.phy80211p 	busyTime 	0
scalar IntersectionExampleScenario.node[42].nic.mac1609_4 	ReceivedUnicastPackets 	0
scalar IntersectionExampleScenario.node[42].nic.mac1609_4 	ReceivedBroadcasts 	0
scalar IntersectionExampleScenario.node[42].nic.mac1609_4 	SentPackets 	0
scalar IntersectionExampleScenario.node[42].nic.mac1609_4 	SNIRLostPackets 	0
scalar IntersectionExampleScenario.node[42].nic.mac1609_4 	RXTXLostPackets 	0
scalar IntersectionExampleScenario.node[42].nic.mac1609_4 	TotalLostPackets 	0
scalar IntersectionExampleScenario.node[42].nic.mac1609_4 	DroppedPacketsInMac 	0
scalar IntersectionExampleScenario.node[42].nic.mac1609_4 	TooLittleTime 	0
scalar IntersectionExampleScenario.node[42].nic.mac1609_4 	TimesIntoBackoff 	0
scalar IntersectionExampleScenario.node[42].nic.mac1609_4 	SlotsBackoff 	0
scalar IntersectionExampleScenario.node[42].nic.mac1609_4 	NumInternalContention 	0
scalar IntersectionExampleScenario.node[42].nic.mac1609_4 	totalBusyTime 	0
scalar IntersectionExampleScenario.node[42].veinsmobility 	startTime 	86.75
scalar IntersectionExampleScenario.node[42].veinsmobility 	totalTime 	43.5
scalar IntersectionExampleScenario.node[42].veinsmobility 	stopTime 	130.5
scalar IntersectionExampleScenario.node[42].veinsmobility 	minSpeed 	5.4749956130981
scalar IntersectionExampleScenario.node[42].veinsmobility 	maxSpeed 	15.64999961853
scalar IntersectionExampleScenario.node[42].veinsmobility 	totalDistance 	567.92861938477
scalar IntersectionExampleScenario.node[42].veinsmobility 	totalCO2Emission 	134.60591438596
scalar IntersectionExampleScenario.node[21].appl 	VehicleRemoved 	0
scalar IntersectionExampleScenario.node[21].appl 	ArrivedAtDest 	1
scalar IntersectionExampleScenario.node[21].appl 	IntersectionEnterTime 	40.5
scalar IntersectionExampleScenario.node[21].appl 	IntersectionExitTime 	117.36463198479
scalar IntersectionExampleScenario.node[21].appl 	NumberOfCollisions 	0
scalar IntersectionExampleScenario.node[21].nic.phy80211p 	busyTime 	0
scalar IntersectionExampleScenario.node[21].nic.mac1609_4 	ReceivedUnicastPackets 	0
scalar IntersectionExampleScenario.node[21].nic.mac1609_4 	ReceivedBroadcasts 	0
scalar IntersectionExampleScenario.node[21].nic.mac1609_4 	SentPackets 	0
scalar IntersectionExampleScenario.node[21].nic.mac1609_4 	SNIRLostPackets 	0
scalar IntersectionExampleScenario.node[21].nic.mac1609_4 	RXTXLostPackets 	0
scalar IntersectionExampleScenario.node[21].nic.mac1609_4 	TotalLostPackets 	0
scalar IntersectionExampleScenario.node[21].nic.mac1609_4 	DroppedPacketsInMac 	0
scalar IntersectionExampleScenario.node[21].nic.mac1609_4 	TooLittleTime 	0
scalar IntersectionExampleScenario.node[21].nic.mac1609_4 	TimesIntoBackoff 	0
scalar IntersectionExampleScenario.node[21].nic.mac1609_4 	SlotsBackoff 	0
scalar IntersectionExampleScenario.node[21].nic.mac1609_4 	NumInternalContention 	0
scalar IntersectionExampleScenario.node[21].nic.mac1609_4 	totalBusyTime 	0
scalar IntersectionExampleScenario.node[21].veinsmobility 	startTime 	40.5
scalar IntersectionExampleScenario.node[21].veinsmobility 	totalTime 	93
scalar IntersectionExampleScenario.node[21].veinsmobility 	stopTime 	133.75
scalar IntersectionExampleScenario.node[21].veinsmobility 	minSpeed 	0
scalar IntersectionExampleScenario.node[21].veinsmobility 	maxSpeed 	15.375
scalar IntersectionExampleScenario.node[21].veinsmobility 	totalDistance 	573.09309387207
scalar IntersectionExampleScenario.node[21].veinsmobility 	totalCO2Emission 	193.71027162567
scalar IntersectionExampleScenario.node[26].appl 	VehicleRemoved 	0
scalar IntersectionExampleScenario.node[26].appl 	ArrivedAtDest 	1
scalar IntersectionExampleScenario.node[26].appl 	IntersectionEnterTime 	46.5
scalar IntersectionExampleScenario.node[26].appl 	IntersectionExitTime 	118.03498990802
scalar IntersectionExampleScenario.node[26].appl 	NumberOfCollisions 	0
scalar IntersectionExampleScenario.node[26].nic.phy80211p 	busyTime 	0
scalar IntersectionExampleScenario.node[26].nic.mac1609_4 	ReceivedUnicastPackets 	0
scalar IntersectionExampleScenario.node[26].nic.mac1609_4 	ReceivedBroadcasts 	0
scalar IntersectionExampleScenario.node[26].nic.mac1609_4 	SentPackets 	0
scalar IntersectionExampleScenario.node[26].nic.mac1609_4 	SNIRLostPackets 	0
scalar IntersectionExampleScenario.node[26].nic.mac1609_4 	RXTXLostPackets 	0
scalar IntersectionExampleScenario.node[26].nic.mac1609_4 	TotalLostPackets 	0
scalar IntersectionExampleScenario.node[26].nic.mac1609_4 	DroppedPacketsInMac 	0
scalar IntersectionExampleScenario.node[26].nic.mac1609_4 	TooLittleTime 	0
scalar IntersectionExampleScenario.node[26].nic.mac1609_4 	TimesIntoBackoff 	0
scalar IntersectionExampleScenario.node[26].nic.mac1609_4 	SlotsBackoff 	0
scalar IntersectionExampleScenario.node[26].nic.mac1609_4 	NumInternalContention 	0
scalar IntersectionExampleScenario.node[26].nic.mac1609_4 	totalBusyTime 	0
scalar IntersectionExampleScenario.node[26].veinsmobility 	startTime 	46.5
scalar IntersectionExampleScenario.node[26].veinsmobility 	totalTime 	88.75
scalar IntersectionExampleScenario.node[26].veinsmobility 	stopTime 	135.5
scalar IntersectionExampleScenario.node[26].veinsmobility 	minSpeed 	0
scalar IntersectionExampleScenario.node[26].veinsmobility 	maxSpeed 	15.02499961853
scalar IntersectionExampleScenario.node[26].veinsmobility 	totalDistance 	552.21288409398
scalar IntersectionExampleScenario.node[26].veinsmobility 	totalCO2Emission 	179.5550402834
scalar IntersectionExampleScenario.node[29].appl 	VehicleRemoved 	0
scalar IntersectionExampleScenario.node[29].appl 	ArrivedAtDest 	1
scalar IntersectionExampleScenario.node[29].appl 	IntersectionEnterTime 	55.5
scalar IntersectionExampleScenario.node[29].appl 	IntersectionExitTime 	120.5405327339
scalar IntersectionExampleScenario.node[29].appl 	NumberOfCollisions 	0
scalar IntersectionExampleScenario.node[29].nic.phy80211p 	busyTime 	0
scalar IntersectionExampleScenario.node[29].nic.mac1609_4 	ReceivedUnicastPackets 	0
scalar IntersectionExampleScenario.node[29].nic.mac1609_4 	ReceivedBroadcasts 	0
scalar IntersectionExampleScenario.node[29].nic.mac1609_4 	SentPackets 	0
scalar IntersectionExampleScenario.node[29].nic.mac1609_4 	SNIRLostPackets 	0
scalar IntersectionExampleScenario.node[29].nic.mac1609_4 	RXTXLostPackets 	0
scalar IntersectionExampleScenario.node[29].nic.mac1609_4 	TotalLostPackets 	0
scalar IntersectionExampleScenario.node[29].nic.mac1609_4 	DroppedPacketsInMac 	0
scalar IntersectionExampleScenario.node[29].nic.mac1609_4 	TooLittleTime 	0
scalar IntersectionExampleScenario.node[29].nic.mac1609_4 	TimesIntoBackoff 	0
scalar IntersectionExampleScenario.node[29].nic.mac1609_4 	SlotsBackoff 	0
scalar IntersectionExampleScenario.node[29].nic.mac1609_4 	NumInternalContention 	0
scalar IntersectionExampleScenario.node[29].nic.mac1609_4 	totalBusyTime 	0
scalar IntersectionExampleScenario.node[29].veinsmobility 	startTime 	55.5
scalar IntersectionExampleScenario.node[29].veinsmobility 	totalTime 	80.75
scalar IntersectionExampleScenario.node[29].veinsmobility 	stopTime 	136.5
scalar IntersectionExampleScenario.node[29].veinsmobility 	minSpeed 	0
scalar IntersectionExampleScenario.node[29].veinsmobility 	maxSpeed 	15.64999961853
scalar IntersectionExampleScenario.node[29].veinsmobility 	totalDistance 	552.75059509277
scalar IntersectionExampleScenario.node[29].veinsmobility 	totalCO2Emission 	170.45999019011
scalar IntersectionExampleScenario.node[31].appl 	VehicleRemoved 	0
scalar IntersectionExampleScenario.node[31].appl 	ArrivedAtDest 	1
scalar IntersectionExampleScenario.node[31].appl 	IntersectionEnterTime 	59.25
scalar IntersectionExampleScenario.node[31].appl 	IntersectionExitTime 	123.25932813942
scalar IntersectionExampleScenario.node[31].appl 	NumberOfCollisions 	0
scalar IntersectionExampleScenario.node[31].nic.phy80211p 	busyTime 	0
scalar IntersectionExampleScenario.node[31].nic.mac1609_4 	ReceivedUnicastPackets 	0
scalar IntersectionExampleScenario.node[31].nic.mac1609_4 	ReceivedBroadcasts 	0
scalar IntersectionExampleScenario.node[31].nic.mac1609_4 	SentPackets 	0
scalar IntersectionExampleScenario.node[31].nic.mac1609_4 	SNIRLostPackets 	0
scalar IntersectionExampleScenario.node[31].nic.mac1609_4 	RXTXLostPackets 	0
scalar IntersectionExampleScenario.node[31].nic.mac1609_4 	TotalLostPackets 	0
scalar IntersectionExampleScenario.node[31].nic.mac1609_4 	DroppedPacketsInMac 	0
scalar IntersectionExampleScenario.node[31].nic.mac1609_4 	TooLittleTime 	0
scalar IntersectionExampleScenario.node[31].nic.mac1609_4 	TimesIntoBackoff 	0
scalar IntersectionExampleScenario.node[31].nic.mac1609_4 	SlotsBackoff 	0
scalar IntersectionExampleScenario.node[31].nic.mac1609_4 	NumInternalContention 	0
scalar IntersectionExampleScenario.node[31].nic.mac1609_4 	totalBusyTime 	0
scalar IntersectionExampleScenario.node[31].veinsmobility 	startTime 	59.25
scalar IntersectionExampleScenario.node[31].veinsmobility 	totalTime 	80.5
scalar IntersectionExampleScenario.node[31].veinsmobility 	stopTime 	140
scalar IntersectionExampleScenario.node[31].veinsmobility 	minSpeed 	0
scalar IntersectionExampleScenario.node[31].veinsmobility 	maxSpeed 	15.02499961853
scalar IntersectionExampleScenario.node[31].veinsmobility 	totalDistance 	559.89749145508
scalar IntersectionExampleScenario.node[31].veinsmobility 	totalCO2Emission 	168.34435641129
scalar IntersectionExampleScenario.node[35].appl 	VehicleRemoved 	0
scalar IntersectionExampleScenario.node[35].appl 	ArrivedAtDest 	1
scalar IntersectionExampleScenario.node[35].appl 	IntersectionEnterTime 	75.75
scalar IntersectionExampleScenario.node[35].appl 	IntersectionExitTime 	124.60878530031
scalar IntersectionExampleScenario.node[35].appl 	NumberOfCollisions 	0
scalar IntersectionExampleScenario.node[35].nic.phy80211p 	busyTime 	0
scalar IntersectionExampleScenario.node[35].nic.mac1609_4 	ReceivedUnicastPackets 	0
scalar IntersectionExampleScenario.node[35].nic.mac1609_4 	ReceivedBroadcasts 	0
scalar IntersectionExampleScenario.node[35].nic.mac1609_4 	SentPackets 	0
scalar IntersectionExampleScenario.node[35].nic.mac1609_4 	SNIRLostPackets 	0
scalar IntersectionExampleScenario.node[35].nic.mac1609_4 	RXTXLostPackets 	0
scalar IntersectionExampleScenario.node[35].nic.mac1609_4 	TotalLostPackets 	0
scalar IntersectionExampleScenario.node[35].nic.mac1609_4 	DroppedPacketsInMac 	0
scalar IntersectionExampleScenario.node[35].nic.mac1609_4 	TooLittleTime 	0
scalar IntersectionExampleScenario.node[35].nic.mac1609_4 	TimesIntoBackoff 	0
scalar IntersectionExampleScenario.node[35].nic.mac1609_4 	SlotsBackoff 	0
scalar IntersectionExampleScenario.node[35].nic.mac1609_4 	NumInternalContention 	0
scalar IntersectionExampleScenario.node[35].nic.mac1609_4 	totalBusyTime 	0
scalar IntersectionExampleScenario.node[35].veinsmobility 	startTime 	75.75
scalar IntersectionExampleScenario.node[35].veinsmobility 	totalTime 	65.75
scalar IntersectionExampleScenario.node[35].veinsmobility 	stopTime 	141.75
scalar IntersectionExampleScenario.node[35].veinsmobility 	minSpeed 	0
scalar IntersectionExampleScenario.node[35].veinsmobility 	maxSpeed 	15.25
scalar IntersectionExampleScenario.node[35].veinsmobility 	totalDistance 	543.38601590545
scalar IntersectionExampleScenario.node[35].veinsmobility 	totalCO2Emission 	154.86514259028
scalar IntersectionExampleScenario.node[36].appl 	VehicleRemoved 	0
scalar IntersectionExampleScenario.node[36].appl 	ArrivedAtDest 	1
scalar IntersectionExampleScenario.node[36].appl 	IntersectionEnterTime 	79
scalar IntersectionExampleScenario.node[36].appl 	IntersectionExitTime 	126.35869896636
scalar IntersectionExampleScenario.node[36].appl 	NumberOfCollisions 	0
scalar IntersectionExampleScenario.node[36].nic.phy80211p 	busyTime 	0
scalar IntersectionExampleScenario.node[36].nic.mac1609_4 	ReceivedUnicastPackets 	0
scalar IntersectionExampleScenario.node[36].nic.mac1609_4 	ReceivedBroadcasts 	0
scalar IntersectionExampleScenario.node[36].nic.mac1609_4 	SentPackets 	0
scalar IntersectionExampleScenario.node[36].nic.mac1609_4 	SNIRLostPackets 	0
scalar IntersectionExampleScenario.node[36].nic.mac1609_4 	RXTXLostPackets 	0
scalar IntersectionExampleScenario.node[36].nic.mac1609_4 	TotalLostPackets 	0
scalar IntersectionExampleScenario.node[36].nic.mac1609_4 	DroppedPacketsInMac 	0
scalar IntersectionExampleScenario.node[36].nic.mac1609_4 	TooLittleTime 	0
scalar IntersectionExampleScenario.node[36].nic.mac1609_4 	TimesIntoBackoff 	0
scalar IntersectionExampleScenario.node[36].nic.mac1609_4 	SlotsBackoff 	0
scalar IntersectionExampleScenario.node[36].nic.mac1609_4 	NumInternalContention 	0
[...]
scalar IntersectionExampleScenario.node[495].veinsmobility 	totalCO2Emission 	220.32037079986
scalar IntersectionExampleScenario.node[524].appl 	VehicleRemoved 	0
scalar IntersectionExampleScenario.node[524].appl 	ArrivedAtDest 	1
scalar IntersectionExampleScenario.node[524].appl 	IntersectionEnterTime 	1462.5
scalar IntersectionExampleScenario.node[524].appl 	IntersectionExitTime 	1493.2820558331
scalar IntersectionExampleScenario.node[524].appl 	NumberOfCollisions 	0
scalar IntersectionExampleScenario.node[524].nic.phy80211p 	busyTime 	0
scalar IntersectionExampleScenario.node[524].nic.mac1609_4 	ReceivedUnicastPackets 	0
scalar IntersectionExampleScenario.node[524].nic.mac1609_4 	ReceivedBroadcasts 	0
scalar IntersectionExampleScenario.node[524].nic.mac1609_4 	SentPackets 	0
scalar IntersectionExampleScenario.node[524].nic.mac1609_4 	SNIRLostPackets 	0
scalar IntersectionExampleScenario.node[524].nic.mac1609_4 	RXTXLostPackets 	0
scalar IntersectionExampleScenario.node[524].nic.mac1609_4 	TotalLostPackets 	0
scalar IntersectionExampleScenario.node[524].nic.mac1609_4 	DroppedPacketsInMac 	0
scalar IntersectionExampleScenario.node[524].nic.mac1609_4 	TooLittleTime 	0
scalar IntersectionExampleScenario.node[524].nic.mac1609_4 	TimesIntoBackoff 	0
scalar IntersectionExampleScenario.node[524].nic.mac1609_4 	SlotsBackoff 	0
scalar IntersectionExampleScenario.node[524].nic.mac1609_4 	NumInternalContention 	0
scalar IntersectionExampleScenario.node[524].nic.mac1609_4 	totalBusyTime 	0
scalar IntersectionExampleScenario.node[524].veinsmobility 	startTime 	1462.5
scalar IntersectionExampleScenario.node[524].veinsmobility 	totalTime 	46.25
scalar IntersectionExampleScenario.node[524].veinsmobility 	stopTime 	1509
scalar IntersectionExampleScenario.node[524].veinsmobility 	minSpeed 	0
scalar IntersectionExampleScenario.node[524].veinsmobility 	maxSpeed 	16.27499961853
scalar IntersectionExampleScenario.node[524].veinsmobility 	totalDistance 	551.43734741211
scalar IntersectionExampleScenario.node[524].veinsmobility 	totalCO2Emission 	142.90014344961
scalar IntersectionExampleScenario.node[525].appl 	VehicleRemoved 	0
scalar IntersectionExampleScenario.node[525].appl 	ArrivedAtDest 	1
scalar IntersectionExampleScenario.node[525].appl 	IntersectionEnterTime 	1467.25
scalar IntersectionExampleScenario.node[525].appl 	IntersectionExitTime 	1495.3684527852
scalar IntersectionExampleScenario.node[525].appl 	NumberOfCollisions 	0
scalar IntersectionExampleScenario.node[525].nic.phy80211p 	busyTime 	0
scalar IntersectionExampleScenario.node[525].nic.mac1609_4 	ReceivedUnicastPackets 	0
scalar IntersectionExampleScenario.node[525].nic.mac1609_4 	ReceivedBroadcasts 	0
scalar IntersectionExampleScenario.node[525].nic.mac1609_4 	SentPackets 	0
scalar IntersectionExampleScenario.node[525].nic.mac1609_4 	SNIRLostPackets 	0
scalar IntersectionExampleScenario.node[525].nic.mac1609_4 	RXTXLostPackets 	0
scalar IntersectionExampleScenario.node[525].nic.mac1609_4 	TotalLostPackets 	0
scalar IntersectionExampleScenario.node[525].nic.mac1609_4 	DroppedPacketsInMac 	0
scalar IntersectionExampleScenario.node[525].nic.mac1609_4 	TooLittleTime 	0
scalar IntersectionExampleScenario.node[525].nic.mac1609_4 	TimesIntoBackoff 	0
scalar IntersectionExampleScenario.node[525].nic.mac1609_4 	SlotsBackoff 	0
scalar IntersectionExampleScenario.node[525].nic.mac1609_4 	NumInternalContention 	0
scalar IntersectionExampleScenario.node[525].nic.mac1609_4 	totalBusyTime 	0
scalar IntersectionExampleScenario.node[525].veinsmobility 	startTime 	1467.25
scalar IntersectionExampleScenario.node[525].veinsmobility 	totalTime 	43.75
scalar IntersectionExampleScenario.node[525].veinsmobility 	stopTime 	1511.25
scalar IntersectionExampleScenario.node[525].veinsmobility 	minSpeed 	3.1867010593414
scalar IntersectionExampleScenario.node[525].veinsmobility 	maxSpeed 	15.64999961853
scalar IntersectionExampleScenario.node[525].veinsmobility 	totalDistance 	552.0422668457
scalar IntersectionExampleScenario.node[525].veinsmobility 	totalCO2Emission 	133.29424787958
scalar IntersectionExampleScenario.node[517].appl 	VehicleRemoved 	0
scalar IntersectionExampleScenario.node[517].appl 	ArrivedAtDest 	1
scalar IntersectionExampleScenario.node[517].appl 	IntersectionEnterTime 	1451.5
scalar IntersectionExampleScenario.node[517].appl 	IntersectionExitTime 	1501.3085081211
scalar IntersectionExampleScenario.node[517].appl 	NumberOfCollisions 	0
scalar IntersectionExampleScenario.node[517].nic.phy80211p 	busyTime 	0
scalar IntersectionExampleScenario.node[517].nic.mac1609_4 	ReceivedUnicastPackets 	0
scalar IntersectionExampleScenario.node[517].nic.mac1609_4 	ReceivedBroadcasts 	0
scalar IntersectionExampleScenario.node[517].nic.mac1609_4 	SentPackets 	0
scalar IntersectionExampleScenario.node[517].nic.mac1609_4 	SNIRLostPackets 	0
scalar IntersectionExampleScenario.node[517].nic.mac1609_4 	RXTXLostPackets 	0
scalar IntersectionExampleScenario.node[517].nic.mac1609_4 	TotalLostPackets 	0
scalar IntersectionExampleScenario.node[517].nic.mac1609_4 	DroppedPacketsInMac 	0
scalar IntersectionExampleScenario.node[517].nic.mac1609_4 	TooLittleTime 	0
scalar IntersectionExampleScenario.node[517].nic.mac1609_4 	TimesIntoBackoff 	0
scalar IntersectionExampleScenario.node[517].nic.mac1609_4 	SlotsBackoff 	0
scalar IntersectionExampleScenario.node[517].nic.mac1609_4 	NumInternalContention 	0
scalar IntersectionExampleScenario.node[517].nic.mac1609_4 	totalBusyTime 	0
scalar IntersectionExampleScenario.node[517].veinsmobility 	startTime 	1451.5
scalar IntersectionExampleScenario.node[517].veinsmobility 	totalTime 	65.75
scalar IntersectionExampleScenario.node[517].veinsmobility 	stopTime 	1517.5
scalar IntersectionExampleScenario.node[517].veinsmobility 	minSpeed 	0
scalar IntersectionExampleScenario.node[517].veinsmobility 	maxSpeed 	15.375
scalar IntersectionExampleScenario.node[517].veinsmobility 	totalDistance 	559.6058665668
scalar IntersectionExampleScenario.node[517].veinsmobility 	totalCO2Emission 	167.49023469009
scalar IntersectionExampleScenario.node[529].appl 	VehicleRemoved 	0
scalar IntersectionExampleScenario.node[529].appl 	ArrivedAtDest 	1
scalar IntersectionExampleScenario.node[529].appl 	IntersectionEnterTime 	1475.75
scalar IntersectionExampleScenario.node[529].appl 	IntersectionExitTime 	1502.8313608931
scalar IntersectionExampleScenario.node[529].appl 	NumberOfCollisions 	0
scalar IntersectionExampleScenario.node[529].nic.phy80211p 	busyTime 	0
scalar IntersectionExampleScenario.node[529].nic.mac1609_4 	ReceivedUnicastPackets 	0
scalar IntersectionExampleScenario.node[529].nic.mac1609_4 	ReceivedBroadcasts 	0
scalar IntersectionExampleScenario.node[529].nic.mac1609_4 	SentPackets 	0
scalar IntersectionExampleScenario.node[529].nic.mac1609_4 	SNIRLostPackets 	0
scalar IntersectionExampleScenario.node[529].nic.mac1609_4 	RXTXLostPackets 	0
scalar IntersectionExampleScenario.node[529].nic.mac1609_4 	TotalLostPackets 	0
scalar IntersectionExampleScenario.node[529].nic.mac1609_4 	DroppedPacketsInMac 	0
scalar IntersectionExampleScenario.node[529].nic.mac1609_4 	TooLittleTime 	0
scalar IntersectionExampleScenario.node[529].nic.mac1609_4 	TimesIntoBackoff 	0
scalar IntersectionExampleScenario.node[529].nic.mac1609_4 	SlotsBackoff 	0
scalar IntersectionExampleScenario.node[529].nic.mac1609_4 	NumInternalContention 	0
scalar IntersectionExampleScenario.node[529].nic.mac1609_4 	totalBusyTime 	0
scalar IntersectionExampleScenario.node[529].veinsmobility 	startTime 	1475.75
scalar IntersectionExampleScenario.node[529].veinsmobility 	totalTime 	42
scalar IntersectionExampleScenario.node[529].veinsmobility 	stopTime 	1518
scalar IntersectionExampleScenario.node[529].veinsmobility 	minSpeed 	4.2299060821533
scalar IntersectionExampleScenario.node[529].veinsmobility 	maxSpeed 	16.89999961853
scalar IntersectionExampleScenario.node[529].veinsmobility 	totalDistance 	550.62461090088
scalar IntersectionExampleScenario.node[529].veinsmobility 	totalCO2Emission 	138.57082955016
scalar IntersectionExampleScenario.node[520].appl 	VehicleRemoved 	0
scalar IntersectionExampleScenario.node[520].appl 	ArrivedAtDest 	1
scalar IntersectionExampleScenario.node[520].appl 	IntersectionEnterTime 	1455
scalar IntersectionExampleScenario.node[520].appl 	IntersectionExitTime 	1507.5568735121
scalar IntersectionExampleScenario.node[520].appl 	NumberOfCollisions 	0
scalar IntersectionExampleScenario.node[520].nic.phy80211p 	busyTime 	0
scalar IntersectionExampleScenario.node[520].nic.mac1609_4 	ReceivedUnicastPackets 	0
scalar IntersectionExampleScenario.node[520].nic.mac1609_4 	ReceivedBroadcasts 	0
scalar IntersectionExampleScenario.node[520].nic.mac1609_4 	SentPackets 	0
scalar IntersectionExampleScenario.node[520].nic.mac1609_4 	SNIRLostPackets 	0
scalar IntersectionExampleScenario.node[520].nic.mac1609_4 	RXTXLostPackets 	0
scalar IntersectionExampleScenario.node[520].nic.mac1609_4 	TotalLostPackets 	0
scalar IntersectionExampleScenario.node[520].nic.mac1609_4 	DroppedPacketsInMac 	0
scalar IntersectionExampleScenario.node[520].nic.mac1609_4 	TooLittleTime 	0
scalar IntersectionExampleScenario.node[520].nic.mac1609_4 	TimesIntoBackoff 	0
scalar IntersectionExampleScenario.node[520].nic.mac1609_4 	SlotsBackoff 	0
scalar IntersectionExampleScenario.node[520].nic.mac1609_4 	NumInternalContention 	0
scalar IntersectionExampleScenario.node[520].nic.mac1609_4 	totalBusyTime 	0
scalar IntersectionExampleScenario.node[520].veinsmobility 	startTime 	1455
scalar IntersectionExampleScenario.node[520].veinsmobility 	totalTime 	69.5
scalar IntersectionExampleScenario.node[520].veinsmobility 	stopTime 	1524.75
scalar IntersectionExampleScenario.node[520].veinsmobility 	minSpeed 	0
scalar IntersectionExampleScenario.node[520].veinsmobility 	maxSpeed 	15.25
scalar IntersectionExampleScenario.node[520].veinsmobility 	totalDistance 	561.88860989959
scalar IntersectionExampleScenario.node[520].veinsmobility 	totalCO2Emission 	162.46464357437
scalar IntersectionExampleScenario.node[521].appl 	VehicleRemoved 	0
scalar IntersectionExampleScenario.node[521].appl 	ArrivedAtDest 	1
scalar IntersectionExampleScenario.node[521].appl 	IntersectionEnterTime 	1457
scalar IntersectionExampleScenario.node[521].appl 	IntersectionExitTime 	1510.0152704116
scalar IntersectionExampleScenario.node[521].appl 	NumberOfCollisions 	0
scalar IntersectionExampleScenario.node[521].nic.phy80211p 	busyTime 	0
scalar IntersectionExampleScenario.node[521].nic.mac1609_4 	ReceivedUnicastPackets 	0
scalar IntersectionExampleScenario.node[521].nic.mac1609_4 	ReceivedBroadcasts 	0
scalar IntersectionExampleScenario.node[521].nic.mac1609_4 	SentPackets 	0
scalar IntersectionExampleScenario.node[521].nic.mac1609_4 	SNIRLostPackets 	0
scalar IntersectionExampleScenario.node[521].nic.mac1609_4 	RXTXLostPackets 	0
scalar IntersectionExampleScenario.node[521].nic.mac1609_4 	TotalLostPackets 	0
scalar IntersectionExampleScenario.node[521].nic.mac1609_4 	DroppedPacketsInMac 	0
scalar IntersectionExampleScenario.node[521].nic.mac1609_4 	TooLittleTime 	0
scalar IntersectionExampleScenario.node[521].nic.mac1609_4 	TimesIntoBackoff 	0
scalar IntersectionExampleScenario.node[521].nic.mac1609_4 	SlotsBackoff 	0
scalar IntersectionExampleScenario.node[521].nic.mac1609_4 	NumInternalContention 	0
scalar IntersectionExampleScenario.node[521].nic.mac1609_4 	totalBusyTime 	0
scalar IntersectionExampleScenario.node[521].veinsmobility 	startTime 	1457
scalar IntersectionExampleScenario.node[521].veinsmobility 	totalTime 	69.75
scalar IntersectionExampleScenario.node[521].veinsmobility 	stopTime 	1527
scalar IntersectionExampleScenario.node[521].veinsmobility 	minSpeed 	0
scalar IntersectionExampleScenario.node[521].veinsmobility 	maxSpeed 	15.389191627502
scalar IntersectionExampleScenario.node[521].veinsmobility 	totalDistance 	573.24580744281
scalar IntersectionExampleScenario.node[521].veinsmobility 	totalCO2Emission 	161.4084973158
scalar IntersectionExampleScenario.node[528].appl 	VehicleRemoved 	0
scalar IntersectionExampleScenario.node[528].appl 	ArrivedAtDest 	1
scalar IntersectionExampleScenario.node[528].appl 	IntersectionEnterTime 	1471.5
scalar IntersectionExampleScenario.node[528].appl 	IntersectionExitTime 	1512.8209992996
scalar IntersectionExampleScenario.node[528].appl 	NumberOfCollisions 	0
scalar IntersectionExampleScenario.node[528].nic.phy80211p 	busyTime 	0
scalar IntersectionExampleScenario.node[528].nic.mac1609_4 	ReceivedUnicastPackets 	0
scalar IntersectionExampleScenario.node[528].nic.mac1609_4 	ReceivedBroadcasts 	0
scalar IntersectionExampleScenario.node[528].nic.mac1609_4 	SentPackets 	0
scalar IntersectionExampleScenario.node[528].nic.mac1609_4 	SNIRLostPackets 	0
scalar IntersectionExampleScenario.node[528].nic.mac1609_4 	RXTXLostPackets 	0
scalar IntersectionExampleScenario.node[528].nic.mac1609_4 	TotalLostPackets 	0
scalar IntersectionExampleScenario.node[528].nic.mac1609_4 	DroppedPacketsInMac 	0
scalar IntersectionExampleScenario.node[528].nic.mac1609_4 	TooLittleTime 	0
scalar IntersectionExampleScenario.node[528].nic.mac1609_4 	TimesIntoBackoff 	0
scalar IntersectionExampleScenario.node[528].nic.mac1609_4 	SlotsBackoff 	0
scalar IntersectionExampleScenario.node[528].nic.mac1609_4 	NumInternalContention 	0
scalar IntersectionExampleScenario.node[528].nic.mac1609_4 	totalBusyTime 	0
scalar IntersectionExampleScenario.node[528].veinsmobility 	startTime 	1471.5
scalar IntersectionExampleScenario.node[528].veinsmobility 	totalTime 	58.25
scalar IntersectionExampleScenario.node[528].veinsmobility 	stopTime 	1530
scalar IntersectionExampleScenario.node[528].veinsmobility 	minSpeed 	0
scalar IntersectionExampleScenario.node[528].veinsmobility 	maxSpeed 	15.25
scalar IntersectionExampleScenario.node[528].veinsmobility 	totalDistance 	545.40863518163
scalar IntersectionExampleScenario.node[528].veinsmobility 	totalCO2Emission 	144.21081988087
scalar IntersectionExampleScenario.node[532].appl 	VehicleRemoved 	0
scalar IntersectionExampleScenario.node[532].appl 	ArrivedAtDest 	1
scalar IntersectionExampleScenario.node[532].appl 	IntersectionEnterTime 	1484.75
scalar IntersectionExampleScenario.node[532].appl 	IntersectionExitTime 	1514.8346966781
scalar IntersectionExampleScenario.node[532].appl 	NumberOfCollisions 	0
scalar IntersectionExampleScenario.node[532].nic.phy80211p 	busyTime 	0
scalar IntersectionExampleScenario.node[532].nic.mac1609_4 	ReceivedUnicastPackets 	0
scalar IntersectionExampleScenario.node[532].nic.mac1609_4 	ReceivedBroadcasts 	0
scalar IntersectionExampleScenario.node[532].nic.mac1609_4 	SentPackets 	0
scalar IntersectionExampleScenario.node[532].nic.mac1609_4 	SNIRLostPackets 	0
scalar IntersectionExampleScenario.node[532].nic.mac1609_4 	RXTXLostPackets 	0
scalar IntersectionExampleScenario.node[532].nic.mac1609_4 	TotalLostPackets 	0
scalar IntersectionExampleScenario.node[532].nic.mac1609_4 	DroppedPacketsInMac 	0
scalar IntersectionExampleScenario.node[532].nic.mac1609_4 	TooLittleTime 	0
scalar IntersectionExampleScenario.node[532].nic.mac1609_4 	TimesIntoBackoff 	0
scalar IntersectionExampleScenario.node[532].nic.mac1609_4 	SlotsBackoff 	0
scalar IntersectionExampleScenario.node[532].nic.mac1609_4 	NumInternalContention 	0
scalar IntersectionExampleScenario.node[532].nic.mac1609_4 	totalBusyTime 	0
scalar IntersectionExampleScenario.node[532].veinsmobility 	startTime 	1484.75
scalar IntersectionExampleScenario.node[532].veinsmobility 	totalTime 	46.5
scalar IntersectionExampleScenario.node[532].veinsmobility 	stopTime 	1531.5
scalar IntersectionExampleScenario.node[532].veinsmobility 	minSpeed 	3.9162490367889
scalar IntersectionExampleScenario.node[532].veinsmobility 	maxSpeed 	15.375
scalar IntersectionExampleScenario.node[532].veinsmobility 	totalDistance 	550.9827513604
scalar IntersectionExampleScenario.node[532].veinsmobility 	totalCO2Emission 	135.74408028761
scalar IntersectionExampleScenario.node[494].appl 	VehicleRemoved 	0
scalar IntersectionExampleScenario.node[494].appl 	ArrivedAtDest 	1
scalar IntersectionExampleScenario.node[494].appl 	IntersectionEnterTime 	1375.25
scalar IntersectionExampleScenario.node[494].appl 	IntersectionExitTime 	1517.3392470754
scalar IntersectionExampleScenario.node[494].appl 	NumberOfCollisions 	0
scalar IntersectionExampleScenario.node[494].nic.phy80211p 	busyTime 	0
scalar IntersectionExampleScenario.node[494].nic.mac1609_4 	ReceivedUnicastPackets 	0
scalar IntersectionExampleScenario.node[494].nic.mac1609_4 	ReceivedBroadcasts 	0
scalar IntersectionExampleScenario.node[494].nic.mac1609_4 	SentPackets 	0
scalar IntersectionExampleScenario.node[494].nic.mac1609_4 	SNIRLostPackets 	0
scalar IntersectionExampleScenario.node[494].nic.mac1609_4 	RXTXLostPackets 	0
scalar IntersectionExampleScenario.node[494].nic.mac1609_4 	TotalLostPackets 	0
scalar IntersectionExampleScenario.node[494].nic.mac1609_4 	DroppedPacketsInMac 	0
scalar IntersectionExampleScenario.node[494].nic.mac1609_4 	TooLittleTime 	0
scalar IntersectionExampleScenario.node[494].nic.mac1609_4 	TimesIntoBackoff 	0
scalar IntersectionExampleScenario.node[494].nic.mac1609_4 	SlotsBackoff 	0
scalar IntersectionExampleScenario.node[494].nic.mac1609_4 	NumInternalContention 	0
scalar IntersectionExampleScenario.node[494].nic.mac1609_4 	totalBusyTime 	0
scalar IntersectionExampleScenario.node[494].veinsmobility 	startTime 	1375.25
scalar IntersectionExampleScenario.node[494].veinsmobility 	totalTime 	158.75
scalar IntersectionExampleScenario.node[494].veinsmobility 	stopTime 	1534.25
scalar IntersectionExampleScenario.node[494].veinsmobility 	minSpeed 	0
scalar IntersectionExampleScenario.node[494].veinsmobility 	maxSpeed 	14.75
scalar IntersectionExampleScenario.node[494].veinsmobility 	totalDistance 	571.08329774821
scalar IntersectionExampleScenario.node[494].veinsmobility 	totalCO2Emission 	267.36593015413
scalar IntersectionExampleScenario.node[500].appl 	VehicleRemoved 	0
scalar IntersectionExampleScenario.node[500].appl 	ArrivedAtDest 	1
scalar IntersectionExampleScenario.node[500].appl 	IntersectionEnterTime 	1397.75
scalar IntersectionExampleScenario.node[500].appl 	IntersectionExitTime 	1518.1174525316
scalar IntersectionExampleScenario.node[500].appl 	NumberOfCollisions 	0
scalar IntersectionExampleScenario.node[500].nic.phy80211p 	busyTime 	0
scalar IntersectionExampleScenario.node[500].nic.mac1609_4 	ReceivedUnicastPackets 	0
scalar IntersectionExampleScenario.node[500].nic.mac1609_4 	ReceivedBroadcasts 	0
scalar IntersectionExampleScenario.node[500].nic.mac1609_4 	SentPackets 	0
scalar IntersectionExampleScenario.node[500].nic.mac1609_4 	SNIRLostPackets 	0
scalar IntersectionExampleScenario.node[500].nic.mac1609_4 	RXTXLostPackets 	0
scalar IntersectionExampleScenario.node[500].nic.mac1609_4 	TotalLostPackets 	0
scalar IntersectionExampleScenario.node[500].nic.mac1609_4 	DroppedPacketsInMac 	0
scalar IntersectionExampleScenario.node[500].nic.mac1609_4 	TooLittleTime 	0
scalar IntersectionExampleScenario.node[500].nic.mac1609_4 	TimesIntoBackoff 	0
scalar IntersectionExampleScenario.node[500].nic.mac1609_4 	SlotsBackoff 	0
scalar IntersectionExampleScenario.node[500].nic.mac1609_4 	NumInternalContention 	0
scalar IntersectionExampleScenario.node[500].nic.mac1609_4 	totalBusyTime 	0
scalar IntersectionExampleScenario.node[500].veinsmobility 	startTime 	1397.75
scalar IntersectionExampleScenario.node[500].veinsmobility 	totalTime 	137
scalar IntersectionExampleScenario.node[500].veinsmobility 	stopTime 	1535
scalar IntersectionExampleScenario.node[500].veinsmobility 	minSpeed 	0
scalar IntersectionExampleScenario.node[500].veinsmobility 	maxSpeed 	15.64999961853
scalar IntersectionExampleScenario.node[500].veinsmobility 	totalDistance 	544.6691134534
scalar IntersectionExampleScenario.node[500].veinsmobility 	totalCO2Emission 	244.13643302962
