version 2
run nodebug-25-20200605-19:00:55-18076
attr configname nodebug
attr datetime 20200605-19:00:55
attr experiment nodebug
attr inifile omnetpp.ini
attr iterationvars ""
attr iterationvars2 $repetition=25
attr measurement ""
attr network "\"org.car2x.veins.modules.application.ExtTraCIScenarioManagerLaunchd.IntersectionExampleScenario\""
attr processid 18076
attr repetition 25
attr replication #25
attr resultdir results
attr runnumber 25
attr seedset 25
param **.coreDebug false
param **.debug false
param *.**.nic.mac1609_4.bitrate 18Mbps
param *.**.nic.mac1609_4.txPower 20mW
param *.**.nic.mac1609_4.useServiceChannel false
param *.**.nic.phy80211p.analogueModels "xmldoc(\"config.xml\")"
param *.**.nic.phy80211p.decider "xmldoc(\"config.xml\")"
param *.**.nic.phy80211p.sensitivity -89dBm
param *.**.nic.phy80211p.thermalNoise -110dBm
param *.**.nic.phy80211p.usePropagationDelay true
param *.**.nic.phy80211p.useThermalNoise true
param *.annotations.draw false
param *.connectionManager.alpha 2.0
param *.connectionManager.carrierFrequency "5.890e9 Hz"
param *.connectionManager.pMax 20mW
param *.connectionManager.sat -89dBm
param *.connectionManager.sendDirect true
param *.manager.autoShutdown true
param *.manager.host "\"localhost\""
param *.manager.launchConfig "xmldoc(\"paramics.launchd.xml\")"
param *.manager.margin 25
param *.manager.moduleDisplayString "\"\""
param *.manager.moduleName "\"node\""
param *.manager.moduleType "\"org.car2x.veins.nodes.Car\""
param *.manager.port 9999
param *.manager.updateInterval 250ms
param *.node[*0].veinsmobility.accidentCount 0
param *.node[*0].veinsmobility.accidentDuration 30s
param *.node[*0].veinsmobility.accidentStart 75s
param *.node[*].appl.LiderSelectZoneRadio 55.0
param *.node[*].appl.ShareDataZoneRadio 110.0
param *.node[*].appl.TiempoSemaforo 30.0
param *.node[*].appl.beaconInterval 1s
param *.node[*].appl.beaconPriority 3
param *.node[*].appl.dataOnSch false
param *.node[*].appl.dataPriority 2
param *.node[*].appl.debug false
param *.node[*].appl.headerLength "256 bit"
param *.node[*].appl.maxOffset 0.005s
param *.node[*].appl.sendBeacons false
param *.node[*].appl.sendData true
param *.node[*].applType "\"Dummy\""
param *.node[*].mobilityType "\"TraCIMobility\""
param *.node[*].mobilityType.debug true
param *.node[*].veinsmobility.x 0
param *.node[*].veinsmobility.y 0
param *.node[*].veinsmobility.z 1.895
param *.node[*].veinsmobilityType "\"org.car2x.veins.modules.mobility.traci.TraCIMobility\""
param *.node[*].veinsmobilityType.debug true
param *.playgroundSizeX 8500m
param *.playgroundSizeY 8500m
param *.playgroundSizeZ 50m
param *.world.use2D false
param *.world.useTorus false

scalar IntersectionExampleScenario.node[2].appl 	VehicleRemoved 	0
scalar IntersectionExampleScenario.node[2].appl 	ArrivedAtDest 	1
scalar IntersectionExampleScenario.node[2].appl 	IntersectionEnterTime 	14.25
scalar IntersectionExampleScenario.node[2].appl 	IntersectionExitTime 	38.264130088268
scalar IntersectionExampleScenario.node[2].appl 	NumberOfCollisions 	0
scalar IntersectionExampleScenario.node[2].nic.phy80211p 	busyTime 	0
scalar IntersectionExampleScenario.node[2].nic.mac1609_4 	ReceivedUnicastPackets 	0
scalar IntersectionExampleScenario.node[2].nic.mac1609_4 	ReceivedBroadcasts 	0
scalar IntersectionExampleScenario.node[2].nic.mac1609_4 	SentPackets 	0
scalar IntersectionExampleScenario.node[2].nic.mac1609_4 	SNIRLostPackets 	0
scalar IntersectionExampleScenario.node[2].nic.mac1609_4 	RXTXLostPackets 	0
scalar IntersectionExampleScenario.node[2].nic.mac1609_4 	TotalLostPackets 	0
scalar IntersectionExampleScenario.node[2].nic.mac1609_4 	DroppedPacketsInMac 	0
scalar IntersectionExampleScenario.node[2].nic.mac1609_4 	TooLittleTime 	0
scalar IntersectionExampleScenario.node[2].nic.mac1609_4 	TimesIntoBackoff 	0
scalar IntersectionExampleScenario.node[2].nic.mac1609_4 	SlotsBackoff 	0
scalar IntersectionExampleScenario.node[2].nic.mac1609_4 	NumInternalContention 	0
scalar IntersectionExampleScenario.node[2].nic.mac1609_4 	totalBusyTime 	0
scalar IntersectionExampleScenario.node[2].veinsmobility 	startTime 	14.25
scalar IntersectionExampleScenario.node[2].veinsmobility 	totalTime 	41
scalar IntersectionExampleScenario.node[2].veinsmobility 	stopTime 	55.5
scalar IntersectionExampleScenario.node[2].veinsmobility 	minSpeed 	5.6500000953674
scalar IntersectionExampleScenario.node[2].veinsmobility 	maxSpeed 	15.02499961853
scalar IntersectionExampleScenario.node[2].veinsmobility 	totalDistance 	550.01137905398
scalar IntersectionExampleScenario.node[2].veinsmobility 	totalCO2Emission 	118.15300773184
scalar IntersectionExampleScenario.node[0].appl 	VehicleRemoved 	0
scalar IntersectionExampleScenario.node[0].appl 	ArrivedAtDest 	1
scalar IntersectionExampleScenario.node[0].appl 	IntersectionEnterTime 	1.5
scalar IntersectionExampleScenario.node[0].appl 	IntersectionExitTime 	45.273238904745
scalar IntersectionExampleScenario.node[0].appl 	NumberOfCollisions 	0
scalar IntersectionExampleScenario.node[0].nic.phy80211p 	busyTime 	0
scalar IntersectionExampleScenario.node[0].nic.mac1609_4 	ReceivedUnicastPackets 	0
scalar IntersectionExampleScenario.node[0].nic.mac1609_4 	ReceivedBroadcasts 	0
scalar IntersectionExampleScenario.node[0].nic.mac1609_4 	SentPackets 	0
scalar IntersectionExampleScenario.node[0].nic.mac1609_4 	SNIRLostPackets 	0
scalar IntersectionExampleScenario.node[0].nic.mac1609_4 	RXTXLostPackets 	0
scalar IntersectionExampleScenario.node[0].nic.mac1609_4 	TotalLostPackets 	0
scalar IntersectionExampleScenario.node[0].nic.mac1609_4 	DroppedPacketsInMac 	0
scalar IntersectionExampleScenario.node[0].nic.mac1609_4 	TooLittleTime 	0
scalar IntersectionExampleScenario.node[0].nic.mac1609_4 	TimesIntoBackoff 	0
scalar IntersectionExampleScenario.node[0].nic.mac1609_4 	SlotsBackoff 	0
scalar IntersectionExampleScenario.node[0].nic.mac1609_4 	NumInternalContention 	0
scalar IntersectionExampleScenario.node[0].nic.mac1609_4 	totalBusyTime 	0
scalar IntersectionExampleScenario.node[0].veinsmobility 	startTime 	1.5
scalar IntersectionExampleScenario.node[0].veinsmobility 	totalTime 	59.25
scalar IntersectionExampleScenario.node[0].veinsmobility 	stopTime 	61
scalar IntersectionExampleScenario.node[0].veinsmobility 	minSpeed 	0
scalar IntersectionExampleScenario.node[0].veinsmobility 	maxSpeed 	16.27499961853
scalar IntersectionExampleScenario.node[0].veinsmobility 	totalDistance 	550.68973650088
scalar IntersectionExampleScenario.node[0].veinsmobility 	totalCO2Emission 	156.90885319294
scalar IntersectionExampleScenario.node[1].appl 	VehicleRemoved 	0
scalar IntersectionExampleScenario.node[1].appl 	ArrivedAtDest 	1
scalar IntersectionExampleScenario.node[1].appl 	IntersectionEnterTime 	9.25
scalar IntersectionExampleScenario.node[1].appl 	IntersectionExitTime 	46.554701383022
scalar IntersectionExampleScenario.node[1].appl 	NumberOfCollisions 	0
scalar IntersectionExampleScenario.node[1].nic.phy80211p 	busyTime 	0
scalar IntersectionExampleScenario.node[1].nic.mac1609_4 	ReceivedUnicastPackets 	0
scalar IntersectionExampleScenario.node[1].nic.mac1609_4 	ReceivedBroadcasts 	0
scalar IntersectionExampleScenario.node[1].nic.mac1609_4 	SentPackets 	0
scalar IntersectionExampleScenario.node[1].nic.mac1609_4 	SNIRLostPackets 	0
scalar IntersectionExampleScenario.node[1].nic.mac1609_4 	RXTXLostPackets 	0
scalar IntersectionExampleScenario.node[1].nic.mac1609_4 	TotalLostPackets 	0
scalar IntersectionExampleScenario.node[1].nic.mac1609_4 	DroppedPacketsInMac 	0
scalar IntersectionExampleScenario.node[1].nic.mac1609_4 	TooLittleTime 	0
scalar IntersectionExampleScenario.node[1].nic.mac1609_4 	TimesIntoBackoff 	0
scalar IntersectionExampleScenario.node[1].nic.mac1609_4 	SlotsBackoff 	0
scalar IntersectionExampleScenario.node[1].nic.mac1609_4 	NumInternalContention 	0
scalar IntersectionExampleScenario.node[1].nic.mac1609_4 	totalBusyTime 	0
scalar IntersectionExampleScenario.node[1].veinsmobility 	startTime 	9.25
scalar IntersectionExampleScenario.node[1].veinsmobility 	totalTime 	53.25
scalar IntersectionExampleScenario.node[1].veinsmobility 	stopTime 	62.75
scalar IntersectionExampleScenario.node[1].veinsmobility 	minSpeed 	0
scalar IntersectionExampleScenario.node[1].veinsmobility 	maxSpeed 	15.64999961853
scalar IntersectionExampleScenario.node[1].veinsmobility 	totalDistance 	555.02989196777
scalar IntersectionExampleScenario.node[1].veinsmobility 	totalCO2Emission 	142.76399739202
scalar IntersectionExampleScenario.node[4].appl 	VehicleRemoved 	0
scalar IntersectionExampleScenario.node[4].appl 	ArrivedAtDest 	1
scalar IntersectionExampleScenario.node[4].appl 	IntersectionEnterTime 	21.75
scalar IntersectionExampleScenario.node[4].appl 	IntersectionExitTime 	48.604546813905
scalar IntersectionExampleScenario.node[4].appl 	NumberOfCollisions 	0
scalar IntersectionExampleScenario.node[4].nic.phy80211p 	busyTime 	0
scalar IntersectionExampleScenario.node[4].nic.mac1609_4 	ReceivedUnicastPackets 	0
scalar IntersectionExampleScenario.node[4].nic.mac1609_4 	ReceivedBroadcasts 	0
scalar IntersectionExampleScenario.node[4].nic.mac1609_4 	SentPackets 	0
scalar IntersectionExampleScenario.node[4].nic.mac1609_4 	SNIRLostPackets 	0
scalar IntersectionExampleScenario.node[4].nic.mac1609_4 	RXTXLostPackets 	0
scalar IntersectionExampleScenario.node[4].nic.mac1609_4 	TotalLostPackets 	0
scalar IntersectionExampleScenario.node[4].nic.mac1609_4 	DroppedPacketsInMac 	0
scalar IntersectionExampleScenario.node[4].nic.mac1609_4 	TooLittleTime 	0
scalar IntersectionExampleScenario.node[4].nic.mac1609_4 	TimesIntoBackoff 	0
scalar IntersectionExampleScenario.node[4].nic.mac1609_4 	SlotsBackoff 	0
scalar IntersectionExampleScenario.node[4].nic.mac1609_4 	NumInternalContention 	0
scalar IntersectionExampleScenario.node[4].nic.mac1609_4 	totalBusyTime 	0
scalar IntersectionExampleScenario.node[4].veinsmobility 	startTime 	21.75
scalar IntersectionExampleScenario.node[4].veinsmobility 	totalTime 	43.5
scalar IntersectionExampleScenario.node[4].veinsmobility 	stopTime 	65.5
scalar IntersectionExampleScenario.node[4].veinsmobility 	minSpeed 	5.6500000953674
scalar IntersectionExampleScenario.node[4].veinsmobility 	maxSpeed 	15.375
scalar IntersectionExampleScenario.node[4].veinsmobility 	totalDistance 	550.52465216385
scalar IntersectionExampleScenario.node[4].veinsmobility 	totalCO2Emission 	132.23430206442
scalar IntersectionExampleScenario.node[3].appl 	VehicleRemoved 	0
scalar IntersectionExampleScenario.node[3].appl 	ArrivedAtDest 	1
scalar IntersectionExampleScenario.node[3].appl 	IntersectionEnterTime 	21.25
scalar IntersectionExampleScenario.node[3].appl 	IntersectionExitTime 	52.815089848795
scalar IntersectionExampleScenario.node[3].appl 	NumberOfCollisions 	0
scalar IntersectionExampleScenario.node[3].nic.phy80211p 	busyTime 	0
scalar IntersectionExampleScenario.node[3].nic.mac1609_4 	ReceivedUnicastPackets 	0
scalar IntersectionExampleScenario.node[3].nic.mac1609_4 	ReceivedBroadcasts 	0
scalar IntersectionExampleScenario.node[3].nic.mac1609_4 	SentPackets 	0
scalar IntersectionExampleScenario.node[3].nic.mac1609_4 	SNIRLostPackets 	0
scalar IntersectionExampleScenario.node[3].nic.mac1609_4 	RXTXLostPackets 	0
scalar IntersectionExampleScenario.node[3].nic.mac1609_4 	TotalLostPackets 	0
scalar IntersectionExampleScenario.node[3].nic.mac1609_4 	DroppedPacketsInMac 	0
scalar IntersectionExampleScenario.node[3].nic.mac1609_4 	TooLittleTime 	0
scalar IntersectionExampleScenario.node[3].nic.mac1609_4 	TimesIntoBackoff 	0
scalar IntersectionExampleScenario.node[3].nic.mac1609_4 	SlotsBackoff 	0
scalar IntersectionExampleScenario.node[3].nic.mac1609_4 	NumInternalContention 	0
scalar IntersectionExampleScenario.node[3].nic.mac1609_4 	totalBusyTime 	0
scalar IntersectionExampleScenario.node[3].veinsmobility 	startTime 	21.25
scalar IntersectionExampleScenario.node[3].veinsmobility 	totalTime 	47.75
scalar IntersectionExampleScenario.node[3].veinsmobility 	stopTime 	69.25
scalar IntersectionExampleScenario.node[3].veinsmobility 	minSpeed 	0
scalar IntersectionExampleScenario.node[3].veinsmobility 	maxSpeed 	15.64999961853
scalar IntersectionExampleScenario.node[3].veinsmobility 	totalDistance 	550.89402132463
scalar IntersectionExampleScenario.node[3].veinsmobility 	totalCO2Emission 	140.15013245
scalar IntersectionExampleScenario.node[5].appl 	VehicleRemoved 	0
scalar IntersectionExampleScenario.node[5].appl 	ArrivedAtDest 	1
scalar IntersectionExampleScenario.node[5].appl 	IntersectionEnterTime 	24.25
scalar IntersectionExampleScenario.node[5].appl 	IntersectionExitTime 	54.374692611425
scalar IntersectionExampleScenario.node[5].appl 	NumberOfCollisions 	0
scalar IntersectionExampleScenario.node[5].nic.phy80211p 	busyTime 	0
scalar IntersectionExampleScenario.node[5].nic.mac1609_4 	ReceivedUnicastPackets 	0
scalar IntersectionExampleScenario.node[5].nic.mac1609_4 	ReceivedBroadcasts 	0
scalar IntersectionExampleScenario.node[5].nic.mac1609_4 	SentPackets 	0
scalar IntersectionExampleScenario.node[5].nic.mac1609_4 	SNIRLostPackets 	0
scalar IntersectionExampleScenario.node[5].nic.mac1609_4 	RXTXLostPackets 	0
scalar IntersectionExampleScenario.node[5].nic.mac1609_4 	TotalLostPackets 	0
scalar IntersectionExampleScenario.node[5].nic.mac1609_4 	DroppedPacketsInMac 	0
scalar IntersectionExampleScenario.node[5].nic.mac1609_4 	TooLittleTime 	0
scalar IntersectionExampleScenario.node[5].nic.mac1609_4 	TimesIntoBackoff 	0
scalar IntersectionExampleScenario.node[5].nic.mac1609_4 	SlotsBackoff 	0
scalar IntersectionExampleScenario.node[5].nic.mac1609_4 	NumInternalContention 	0
scalar IntersectionExampleScenario.node[5].nic.mac1609_4 	totalBusyTime 	0
scalar IntersectionExampleScenario.node[5].veinsmobility 	startTime 	24.25
scalar IntersectionExampleScenario.node[5].veinsmobility 	totalTime 	47
scalar IntersectionExampleScenario.node[5].veinsmobility 	stopTime 	71.5
scalar IntersectionExampleScenario.node[5].veinsmobility 	minSpeed 	0.98009413480759
scalar IntersectionExampleScenario.node[5].veinsmobility 	maxSpeed 	15.25
scalar IntersectionExampleScenario.node[5].veinsmobility 	totalDistance 	558.23907152118
scalar IntersectionExampleScenario.node[5].veinsmobility 	totalCO2Emission 	134.92935260428
scalar IntersectionExampleScenario.node[7].appl 	VehicleRemoved 	0
scalar IntersectionExampleScenario.node[7].appl 	ArrivedAtDest 	1
scalar IntersectionExampleScenario.node[7].appl 	IntersectionEnterTime 	29.25
scalar IntersectionExampleScenario.node[7].appl 	IntersectionExitTime 	60.612534292188
scalar IntersectionExampleScenario.node[7].appl 	NumberOfCollisions 	0
scalar IntersectionExampleScenario.node[7].nic.phy80211p 	busyTime 	0
scalar IntersectionExampleScenario.node[7].nic.mac1609_4 	ReceivedUnicastPackets 	0
scalar IntersectionExampleScenario.node[7].nic.mac1609_4 	ReceivedBroadcasts 	0
scalar IntersectionExampleScenario.node[7].nic.mac1609_4 	SentPackets 	0
scalar IntersectionExampleScenario.node[7].nic.mac1609_4 	SNIRLostPackets 	0
scalar IntersectionExampleScenario.node[7].nic.mac1609_4 	RXTXLostPackets 	0
scalar IntersectionExampleScenario.node[7].nic.mac1609_4 	TotalLostPackets 	0
scalar IntersectionExampleScenario.node[7].nic.mac1609_4 	DroppedPacketsInMac 	0
scalar IntersectionExampleScenario.node[7].nic.mac1609_4 	TooLittleTime 	0
scalar IntersectionExampleScenario.node[7].nic.mac1609_4 	TimesIntoBackoff 	0
scalar IntersectionExampleScenario.node[7].nic.mac1609_4 	SlotsBackoff 	0
scalar IntersectionExampleScenario.node[7].nic.mac1609_4 	NumInternalContention 	0
scalar IntersectionExampleScenario.node[7].nic.mac1609_4 	totalBusyTime 	0
scalar IntersectionExampleScenario.node[7].veinsmobility 	startTime 	29.25
scalar IntersectionExampleScenario.node[7].veinsmobility 	totalTime 	47.5
scalar IntersectionExampleScenario.node[7].veinsmobility 	stopTime 	77
scalar IntersectionExampleScenario.node[7].veinsmobility 	minSpeed 	0
scalar IntersectionExampleScenario.node[7].veinsmobility 	maxSpeed 	16.27499961853
scalar IntersectionExampleScenario.node[7].veinsmobility 	totalDistance 	542.43856717498
scalar IntersectionExampleScenario.node[7].veinsmobility 	totalCO2Emission 	143.93023407701
scalar IntersectionExampleScenario.node[12].appl 	VehicleRemoved 	0
scalar IntersectionExampleScenario.node[12].appl 	ArrivedAtDest 	1
scalar IntersectionExampleScenario.node[12].appl 	IntersectionEnterTime 	37.5
scalar IntersectionExampleScenario.node[12].appl 	IntersectionExitTime 	64.107459427876
scalar IntersectionExampleScenario.node[12].appl 	NumberOfCollisions 	0
scalar IntersectionExampleScenario.node[12].nic.phy80211p 	busyTime 	0
scalar IntersectionExampleScenario.node[12].nic.mac1609_4 	ReceivedUnicastPackets 	0
scalar IntersectionExampleScenario.node[12].nic.mac1609_4 	ReceivedBroadcasts 	0
scalar IntersectionExampleScenario.node[12].nic.mac1609_4 	SentPackets 	0
scalar IntersectionExampleScenario.node[12].nic.mac1609_4 	SNIRLostPackets 	0
scalar IntersectionExampleScenario.node[12].nic.mac1609_4 	RXTXLostPackets 	0
scalar IntersectionExampleScenario.node[12].nic.mac1609_4 	TotalLostPackets 	0
scalar IntersectionExampleScenario.node[12].nic.mac1609_4 	DroppedPacketsInMac 	0
scalar IntersectionExampleScenario.node[12].nic.mac1609_4 	TooLittleTime 	0
scalar IntersectionExampleScenario.node[12].nic.mac1609_4 	TimesIntoBackoff 	0
scalar IntersectionExampleScenario.node[12].nic.mac1609_4 	SlotsBackoff 	0
scalar IntersectionExampleScenario.node[12].nic.mac1609_4 	NumInternalContention 	0
scalar IntersectionExampleScenario.node[12].nic.mac1609_4 	totalBusyTime 	0
scalar IntersectionExampleScenario.node[12].veinsmobility 	startTime 	37.5
scalar IntersectionExampleScenario.node[12].veinsmobility 	totalTime 	43.5
scalar IntersectionExampleScenario.node[12].veinsmobility 	stopTime 	81.25
scalar IntersectionExampleScenario.node[12].veinsmobility 	minSpeed 	5.6500000953674
scalar IntersectionExampleScenario.node[12].veinsmobility 	maxSpeed 	15.25
scalar IntersectionExampleScenario.node[12].veinsmobility 	totalDistance 	545.596829201
scalar IntersectionExampleScenario.node[12].veinsmobility 	totalCO2Emission 	133.96362197767
scalar IntersectionExampleScenario.node[6].appl 	VehicleRemoved 	0
scalar IntersectionExampleScenario.node[6].appl 	ArrivedAtDest 	1
scalar IntersectionExampleScenario.node[6].appl 	IntersectionEnterTime 	25
scalar IntersectionExampleScenario.node[6].appl 	IntersectionExitTime 	68.339991253742
scalar IntersectionExampleScenario.node[6].appl 	NumberOfCollisions 	0
scalar IntersectionExampleScenario.node[6].nic.phy80211p 	busyTime 	0
scalar IntersectionExampleScenario.node[6].nic.mac1609_4 	ReceivedUnicastPackets 	0
scalar IntersectionExampleScenario.node[6].nic.mac1609_4 	ReceivedBroadcasts 	0
scalar IntersectionExampleScenario.node[6].nic.mac1609_4 	SentPackets 	0
scalar IntersectionExampleScenario.node[6].nic.mac1609_4 	SNIRLostPackets 	0
scalar IntersectionExampleScenario.node[6].nic.mac1609_4 	RXTXLostPackets 	0
scalar IntersectionExampleScenario.node[6].nic.mac1609_4 	TotalLostPackets 	0
scalar IntersectionExampleScenario.node[6].nic.mac1609_4 	DroppedPacketsInMac 	0
scalar IntersectionExampleScenario.node[6].nic.mac1609_4 	TooLittleTime 	0
scalar IntersectionExampleScenario.node[6].nic.mac1609_4 	TimesIntoBackoff 	0
scalar IntersectionExampleScenario.node[6].nic.mac1609_4 	SlotsBackoff 	0
scalar IntersectionExampleScenario.node[6].nic.mac1609_4 	NumInternalContention 	0
scalar IntersectionExampleScenario.node[6].nic.mac1609_4 	totalBusyTime 	0
scalar IntersectionExampleScenario.node[6].veinsmobility 	startTime 	25
scalar IntersectionExampleScenario.node[6].veinsmobility 	totalTime 	59.5
scalar IntersectionExampleScenario.node[6].veinsmobility 	stopTime 	84.75
scalar IntersectionExampleScenario.node[6].veinsmobility 	minSpeed 	0
scalar IntersectionExampleScenario.node[6].veinsmobility 	maxSpeed 	15.375
scalar IntersectionExampleScenario.node[6].veinsmobility 	totalDistance 	552.79929351807
scalar IntersectionExampleScenario.node[6].veinsmobility 	totalCO2Emission 	149.55091206543
scalar IntersectionExampleScenario.node[8].appl 	VehicleRemoved 	0
scalar IntersectionExampleScenario.node[8].appl 	ArrivedAtDest 	1
scalar IntersectionExampleScenario.node[8].appl 	IntersectionEnterTime 	29.5
scalar IntersectionExampleScenario.node[8].appl 	IntersectionExitTime 	70.315727370617
scalar IntersectionExampleScenario.node[8].appl 	NumberOfCollisions 	0
scalar IntersectionExampleScenario.node[8].nic.phy80211p 	busyTime 	0
scalar IntersectionExampleScenario.node[8].nic.mac1609_4 	ReceivedUnicastPackets 	0
scalar IntersectionExampleScenario.node[8].nic.mac1609_4 	ReceivedBroadcasts 	0
scalar IntersectionExampleScenario.node[8].nic.mac1609_4 	SentPackets 	0
scalar IntersectionExampleScenario.node[8].nic.mac1609_4 	SNIRLostPackets 	0
scalar IntersectionExampleScenario.node[8].nic.mac1609_4 	RXTXLostPackets 	0
scalar IntersectionExampleScenario.node[8].nic.mac1609_4 	TotalLostPackets 	0
scalar IntersectionExampleScenario.node[8].nic.mac1609_4 	DroppedPacketsInMac 	0
scalar IntersectionExampleScenario.node[8].nic.mac1609_4 	TooLittleTime 	0
scalar IntersectionExampleScenario.node[8].nic.mac1609_4 	TimesIntoBackoff 	0
scalar IntersectionExampleScenario.node[8].nic.mac1609_4 	SlotsBackoff 	0
scalar IntersectionExampleScenario.node[8].nic.mac1609_4 	NumInternalContention 	0
scalar IntersectionExampleScenario.node[8].nic.mac1609_4 	totalBusyTime 	0
scalar IntersectionExampleScenario.node[8].veinsmobility 	startTime 	29.5
scalar IntersectionExampleScenario.node[8].veinsmobility 	totalTime 	56.75
scalar IntersectionExampleScenario.node[8].veinsmobility 	stopTime 	86.5
scalar IntersectionExampleScenario.node[8].veinsmobility 	minSpeed 	0
scalar IntersectionExampleScenario.node[8].veinsmobility 	maxSpeed 	15.386766433716
scalar IntersectionExampleScenario.node[8].veinsmobility 	totalDistance 	553.91416168213
scalar IntersectionExampleScenario.node[8].veinsmobility 	totalCO2Emission 	148.88500310897
scalar IntersectionExampleScenario.node[10].appl 	VehicleRemoved 	0
scalar IntersectionExampleScenario.node[10].appl 	ArrivedAtDest 	1
scalar IntersectionExampleScenario.node[10].appl 	IntersectionEnterTime 	31.5
scalar IntersectionExampleScenario.node[10].appl 	IntersectionExitTime 	72.063862850831
scalar IntersectionExampleScenario.node[10].appl 	NumberOfCollisions 	0
scalar IntersectionExampleScenario.node[10].nic.phy80211p 	busyTime 	0
scalar IntersectionExampleScenario.node[10].nic.mac1609_4 	ReceivedUnicastPackets 	0
scalar IntersectionExampleScenario.node[10].nic.mac1609_4 	ReceivedBroadcasts 	0
scalar IntersectionExampleScenario.node[10].nic.mac1609_4 	SentPackets 	0
scalar IntersectionExampleScenario.node[10].nic.mac1609_4 	SNIRLostPackets 	0
scalar IntersectionExampleScenario.node[10].nic.mac1609_4 	RXTXLostPackets 	0
scalar IntersectionExampleScenario.node[10].nic.mac1609_4 	TotalLostPackets 	0
scalar IntersectionExampleScenario.node[10].nic.mac1609_4 	DroppedPacketsInMac 	0
scalar IntersectionExampleScenario.node[10].nic.mac1609_4 	TooLittleTime 	0
scalar IntersectionExampleScenario.node[10].nic.mac1609_4 	TimesIntoBackoff 	0
scalar IntersectionExampleScenario.node[10].nic.mac1609_4 	SlotsBackoff 	0
scalar IntersectionExampleScenario.node[10].nic.mac1609_4 	NumInternalContention 	0
scalar IntersectionExampleScenario.node[10].nic.mac1609_4 	totalBusyTime 	0
scalar IntersectionExampleScenario.node[10].veinsmobility 	startTime 	31.5
scalar IntersectionExampleScenario.node[10].veinsmobility 	totalTime 	56.5
scalar IntersectionExampleScenario.node[10].veinsmobility 	stopTime 	88.25
scalar IntersectionExampleScenario.node[10].veinsmobility 	minSpeed 	0
scalar IntersectionExampleScenario.node[10].veinsmobility 	maxSpeed 	16
scalar IntersectionExampleScenario.node[10].veinsmobility 	totalDistance 	566.71751788164
scalar IntersectionExampleScenario.node[10].veinsmobility 	totalCO2Emission 	149.15650769509
scalar IntersectionExampleScenario.node[11].appl 	VehicleRemoved 	0
scalar IntersectionExampleScenario.node[11].appl 	ArrivedAtDest 	1
scalar IntersectionExampleScenario.node[11].appl 	IntersectionEnterTime 	36.5
scalar IntersectionExampleScenario.node[11].appl 	IntersectionExitTime 	74.509094740817
scalar IntersectionExampleScenario.node[11].appl 	NumberOfCollisions 	0
scalar IntersectionExampleScenario.node[11].nic.phy80211p 	busyTime 	0
scalar IntersectionExampleScenario.node[11].nic.mac1609_4 	ReceivedUnicastPackets 	0
scalar IntersectionExampleScenario.node[11].nic.mac1609_4 	ReceivedBroadcasts 	0
scalar IntersectionExampleScenario.node[11].nic.mac1609_4 	SentPackets 	0
scalar IntersectionExampleScenario.node[11].nic.mac1609_4 	SNIRLostPackets 	0
scalar IntersectionExampleScenario.node[11].nic.mac1609_4 	RXTXLostPackets 	0
scalar IntersectionExampleScenario.node[11].nic.mac1609_4 	TotalLostPackets 	0
scalar IntersectionExampleScenario.node[11].nic.mac1609_4 	DroppedPacketsInMac 	0
scalar IntersectionExampleScenario.node[11].nic.mac1609_4 	TooLittleTime 	0
scalar IntersectionExampleScenario.node[11].nic.mac1609_4 	TimesIntoBackoff 	0
scalar IntersectionExampleScenario.node[11].nic.mac1609_4 	SlotsBackoff 	0
scalar IntersectionExampleScenario.node[11].nic.mac1609_4 	NumInternalContention 	0
scalar IntersectionExampleScenario.node[11].nic.mac1609_4 	totalBusyTime 	0
scalar IntersectionExampleScenario.node[11].veinsmobility 	startTime 	36.5
scalar IntersectionExampleScenario.node[11].veinsmobility 	totalTime 	54.5
scalar IntersectionExampleScenario.node[11].veinsmobility 	stopTime 	91.25
scalar IntersectionExampleScenario.node[11].veinsmobility 	minSpeed 	0
scalar IntersectionExampleScenario.node[11].veinsmobility 	maxSpeed 	15.02499961853
scalar IntersectionExampleScenario.node[11].veinsmobility 	totalDistance 	559.577293396
scalar IntersectionExampleScenario.node[11].veinsmobility 	totalCO2Emission 	137.36174652691
scalar IntersectionExampleScenario.node[9].appl 	VehicleRemoved 	0
scalar IntersectionExampleScenario.node[9].appl 	ArrivedAtDest 	1
scalar IntersectionExampleScenario.node[9].appl 	IntersectionEnterTime 	29.75
scalar IntersectionExampleScenario.node[9].appl 	IntersectionExitTime 	77.352961805795
scalar IntersectionExampleScenario.node[9].appl 	NumberOfCollisions 	0
scalar IntersectionExampleScenario.node[9].nic.phy80211p 	busyTime 	0
scalar IntersectionExampleScenario.node[9].nic.mac1609_4 	ReceivedUnicastPackets 	0
scalar IntersectionExampleScenario.node[9].nic.mac1609_4 	ReceivedBroadcasts 	0
scalar IntersectionExampleScenario.node[9].nic.mac1609_4 	SentPackets 	0
scalar IntersectionExampleScenario.node[9].nic.mac1609_4 	SNIRLostPackets 	0
scalar IntersectionExampleScenario.node[9].nic.mac1609_4 	RXTXLostPackets 	0
scalar IntersectionExampleScenario.node[9].nic.mac1609_4 	TotalLostPackets 	0
scalar IntersectionExampleScenario.node[9].nic.mac1609_4 	DroppedPacketsInMac 	0
scalar IntersectionExampleScenario.node[9].nic.mac1609_4 	TooLittleTime 	0
scalar IntersectionExampleScenario.node[9].nic.mac1609_4 	TimesIntoBackoff 	0
scalar IntersectionExampleScenario.node[9].nic.mac1609_4 	SlotsBackoff 	0
scalar IntersectionExampleScenario.node[9].nic.mac1609_4 	NumInternalContention 	0
scalar IntersectionExampleScenario.node[9].nic.mac1609_4 	totalBusyTime 	0
scalar IntersectionExampleScenario.node[9].veinsmobility 	startTime 	29.75
scalar IntersectionExampleScenario.node[9].veinsmobility 	totalTime 	63.5
scalar IntersectionExampleScenario.node[9].veinsmobility 	stopTime 	93.5
scalar IntersectionExampleScenario.node[9].veinsmobility 	minSpeed 	0
scalar IntersectionExampleScenario.node[9].veinsmobility 	maxSpeed 	15.64999961853
scalar IntersectionExampleScenario.node[9].veinsmobility 	totalDistance 	553.61804199219
scalar IntersectionExampleScenario.node[9].veinsmobility 	totalCO2Emission 	162.29611118959
scalar IntersectionExampleScenario.node[14].appl 	VehicleRemoved 	0
scalar IntersectionExampleScenario.node[14].appl 	ArrivedAtDest 	1
scalar IntersectionExampleScenario.node[14].appl 	IntersectionEnterTime 	44.25
scalar IntersectionExampleScenario.node[14].appl 	IntersectionExitTime 	79.502778408234
scalar IntersectionExampleScenario.node[14].appl 	NumberOfCollisions 	0
scalar IntersectionExampleScenario.node[14].nic.phy80211p 	busyTime 	0
scalar IntersectionExampleScenario.node[14].nic.mac1609_4 	ReceivedUnicastPackets 	0
scalar IntersectionExampleScenario.node[14].nic.mac1609_4 	ReceivedBroadcasts 	0
scalar IntersectionExampleScenario.node[14].nic.mac1609_4 	SentPackets 	0
scalar IntersectionExampleScenario.node[14].nic.mac1609_4 	SNIRLostPackets 	0
scalar IntersectionExampleScenario.node[14].nic.mac1609_4 	RXTXLostPackets 	0
scalar IntersectionExampleScenario.node[14].nic.mac1609_4 	TotalLostPackets 	0
scalar IntersectionExampleScenario.node[14].nic.mac1609_4 	DroppedPacketsInMac 	0
scalar IntersectionExampleScenario.node[14].nic.mac1609_4 	TooLittleTime 	0
scalar IntersectionExampleScenario.node[14].nic.mac1609_4 	TimesIntoBackoff 	0
scalar IntersectionExampleScenario.node[14].nic.mac1609_4 	SlotsBackoff 	0
scalar IntersectionExampleScenario.node[14].nic.mac1609_4 	NumInternalContention 	0
scalar IntersectionExampleScenario.node[14].nic.mac1609_4 	totalBusyTime 	0
scalar IntersectionExampleScenario.node[14].veinsmobility 	startTime 	44.25
scalar IntersectionExampleScenario.node[14].veinsmobility 	totalTime 	51.25
scalar IntersectionExampleScenario.node[14].veinsmobility 	stopTime 	95.75
scalar IntersectionExampleScenario.node[14].veinsmobility 	minSpeed 	0
scalar IntersectionExampleScenario.node[14].veinsmobility 	maxSpeed 	15.64999961853
scalar IntersectionExampleScenario.node[14].veinsmobility 	totalDistance 	554.8821105957
scalar IntersectionExampleScenario.node[14].veinsmobility 	totalCO2Emission 	140.72730509517
scalar IntersectionExampleScenario.node[20].appl 	VehicleRemoved 	0
scalar IntersectionExampleScenario.node[20].appl 	ArrivedAtDest 	1
scalar IntersectionExampleScenario.node[20].appl 	IntersectionEnterTime 	60.25
scalar IntersectionExampleScenario.node[20].appl 	IntersectionExitTime 	83.094900957192
scalar IntersectionExampleScenario.node[20].appl 	NumberOfCollisions 	0
scalar IntersectionExampleScenario.node[20].nic.phy80211p 	busyTime 	0
scalar IntersectionExampleScenario.node[20].nic.mac1609_4 	ReceivedUnicastPackets 	0
scalar IntersectionExampleScenario.node[20].nic.mac1609_4 	ReceivedBroadcasts 	0
scalar IntersectionExampleScenario.node[20].nic.mac1609_4 	SentPackets 	0
scalar IntersectionExampleScenario.node[20].nic.mac1609_4 	SNIRLostPackets 	0
scalar IntersectionExampleScenario.node[20].nic.mac1609_4 	RXTXLostPackets 	0
scalar IntersectionExampleScenario.node[20].nic.mac1609_4 	TotalLostPackets 	0
scalar IntersectionExampleScenario.node[20].nic.mac1609_4 	DroppedPacketsInMac 	0
scalar IntersectionExampleScenario.node[20].nic.mac1609_4 	TooLittleTime 	0
scalar IntersectionExampleScenario.node[20].nic.mac1609_4 	TimesIntoBackoff 	0
scalar IntersectionExampleScenario.node[20].nic.mac1609_4 	SlotsBackoff 	0
scalar IntersectionExampleScenario.node[20].nic.mac1609_4 	NumInternalContention 	0
scalar IntersectionExampleScenario.node[20].nic.mac1609_4 	totalBusyTime 	0
scalar IntersectionExampleScenario.node[20].veinsmobility 	startTime 	60.25
scalar IntersectionExampleScenario.node[20].veinsmobility 	totalTime 	38.5
scalar IntersectionExampleScenario.node[20].veinsmobility 	stopTime 	99
scalar IntersectionExampleScenario.node[20].veinsmobility 	minSpeed 	5.6500000953674
scalar IntersectionExampleScenario.node[20].veinsmobility 	maxSpeed 	16.056274414062
scalar IntersectionExampleScenario.node[20].veinsmobility 	totalDistance 	553.79490661621
scalar IntersectionExampleScenario.node[20].veinsmobility 	totalCO2Emission 	123.17960846201
scalar IntersectionExampleScenario.node[13].appl 	VehicleRemoved 	0
scalar IntersectionExampleScenario.node[13].appl 	ArrivedAtDest 	1
scalar IntersectionExampleScenario.node[13].appl 	IntersectionEnterTime 	43.5
scalar IntersectionExampleScenario.node[13].appl 	IntersectionExitTime 	85.30111499902
scalar IntersectionExampleScenario.node[13].appl 	NumberOfCollisions 	0
scalar IntersectionExampleScenario.node[13].nic.phy80211p 	busyTime 	0
scalar IntersectionExampleScenario.node[13].nic.mac1609_4 	ReceivedUnicastPackets 	0
scalar IntersectionExampleScenario.node[13].nic.mac1609_4 	ReceivedBroadcasts 	0
scalar IntersectionExampleScenario.node[13].nic.mac1609_4 	SentPackets 	0
scalar IntersectionExampleScenario.node[13].nic.mac1609_4 	SNIRLostPackets 	0
scalar IntersectionExampleScenario.node[13].nic.mac1609_4 	RXTXLostPackets 	0
scalar IntersectionExampleScenario.node[13].nic.mac1609_4 	TotalLostPackets 	0
scalar IntersectionExampleScenario.node[13].nic.mac1609_4 	DroppedPacketsInMac 	0
scalar IntersectionExampleScenario.node[13].nic.mac1609_4 	TooLittleTime 	0
scalar IntersectionExampleScenario.node[13].nic.mac1609_4 	TimesIntoBackoff 	0
scalar IntersectionExampleScenario.node[13].nic.mac1609_4 	SlotsBackoff 	0
scalar IntersectionExampleScenario.node[13].nic.mac1609_4 	NumInternalContention 	0
scalar IntersectionExampleScenario.node[13].nic.mac1609_4 	totalBusyTime 	0
scalar IntersectionExampleScenario.node[13].veinsmobility 	startTime 	43.5
scalar IntersectionExampleScenario.node[13].veinsmobility 	totalTime 	58
scalar IntersectionExampleScenario.node[13].veinsmobility 	stopTime 	101.75
scalar IntersectionExampleScenario.node[13].veinsmobility 	minSpeed 	0
scalar IntersectionExampleScenario.node[13].veinsmobility 	maxSpeed 	15.375
scalar IntersectionExampleScenario.node[13].veinsmobility 	totalDistance 	552.79933166504
scalar IntersectionExampleScenario.node[13].veinsmobility 	totalCO2Emission 	148.09141206543
scalar IntersectionExampleScenario.node[15].appl 	VehicleRemoved 	0
scalar IntersectionExampleScenario.node[15].appl 	ArrivedAtDest 	1
scalar IntersectionExampleScenario.node[15].appl 	IntersectionEnterTime 	45.75
scalar IntersectionExampleScenario.node[15].appl 	IntersectionExitTime 	86.057312533754
scalar IntersectionExampleScenario.node[15].appl 	NumberOfCollisions 	0
scalar IntersectionExampleScenario.node[15].nic.phy80211p 	busyTime 	0
scalar IntersectionExampleScenario.node[15].nic.mac1609_4 	ReceivedUnicastPackets 	0
scalar IntersectionExampleScenario.node[15].nic.mac1609_4 	ReceivedBroadcasts 	0
scalar IntersectionExampleScenario.node[15].nic.mac1609_4 	SentPackets 	0
scalar IntersectionExampleScenario.node[15].nic.mac1609_4 	SNIRLostPackets 	0
scalar IntersectionExampleScenario.node[15].nic.mac1609_4 	RXTXLostPackets 	0
scalar IntersectionExampleScenario.node[15].nic.mac1609_4 	TotalLostPackets 	0
scalar IntersectionExampleScenario.node[15].nic.mac1609_4 	DroppedPacketsInMac 	0
scalar IntersectionExampleScenario.node[15].nic.mac1609_4 	TooLittleTime 	0
scalar IntersectionExampleScenario.node[15].nic.mac1609_4 	TimesIntoBackoff 	0
scalar IntersectionExampleScenario.node[15].nic.mac1609_4 	SlotsBackoff 	0
scalar IntersectionExampleScenario.node[15].nic.mac1609_4 	NumInternalContention 	0
scalar IntersectionExampleScenario.node[15].nic.mac1609_4 	totalBusyTime 	0
scalar IntersectionExampleScenario.node[15].veinsmobility 	startTime 	45.75
scalar IntersectionExampleScenario.node[15].veinsmobility 	totalTime 	56
scalar IntersectionExampleScenario.node[15].veinsmobility 	stopTime 	102
scalar IntersectionExampleScenario.node[15].veinsmobility 	minSpeed 	0
scalar IntersectionExampleScenario.node[15].veinsmobility 	maxSpeed 	16.5
scalar IntersectionExampleScenario.node[15].veinsmobility 	totalDistance 	559.92708428129
scalar IntersectionExampleScenario.node[15].veinsmobility 	totalCO2Emission 	157.48010849051
scalar IntersectionExampleScenario.node[18].appl 	VehicleRemoved 	0
scalar IntersectionExampleScenario.node[18].appl 	ArrivedAtDest 	1
scalar IntersectionExampleScenario.node[18].appl 	IntersectionEnterTime 	53.25
scalar IntersectionExampleScenario.node[18].appl 	IntersectionExitTime 	89.082585501019
scalar IntersectionExampleScenario.node[18].appl 	NumberOfCollisions 	0
scalar IntersectionExampleScenario.node[18].nic.phy80211p 	busyTime 	0
scalar IntersectionExampleScenario.node[18].nic.mac1609_4 	ReceivedUnicastPackets 	0
scalar IntersectionExampleScenario.node[18].nic.mac1609_4 	ReceivedBroadcasts 	0
scalar IntersectionExampleScenario.node[18].nic.mac1609_4 	SentPackets 	0
scalar IntersectionExampleScenario.node[18].nic.mac1609_4 	SNIRLostPackets 	0
scalar IntersectionExampleScenario.node[18].nic.mac1609_4 	RXTXLostPackets 	0
scalar IntersectionExampleScenario.node[18].nic.mac1609_4 	TotalLostPackets 	0
scalar IntersectionExampleScenario.node[18].nic.mac1609_4 	DroppedPacketsInMac 	0
scalar IntersectionExampleScenario.node[18].nic.mac1609_4 	TooLittleTime 	0
scalar IntersectionExampleScenario.node[18].nic.mac1609_4 	TimesIntoBackoff 	0
scalar IntersectionExampleScenario.node[18].nic.mac1609_4 	SlotsBackoff 	0
scalar IntersectionExampleScenario.node[18].nic.mac1609_4 	NumInternalContention 	0
scalar IntersectionExampleScenario.node[18].nic.mac1609_4 	totalBusyTime 	0
scalar IntersectionExampleScenario.node[18].veinsmobility 	startTime 	53.25
scalar IntersectionExampleScenario.node[18].veinsmobility 	totalTime 	52.5
scalar IntersectionExampleScenario.node[18].veinsmobility 	stopTime 	106
scalar IntersectionExampleScenario.node[18].veinsmobility 	minSpeed 	0
scalar IntersectionExampleScenario.node[18].veinsmobility 	maxSpeed 	15.64999961853
scalar IntersectionExampleScenario.node[18].veinsmobility 	totalDistance 	543.55253679898
scalar IntersectionExampleScenario.node[18].veinsmobility 	totalCO2Emission 	141.11081448292
scalar IntersectionExampleScenario.node[22].appl 	VehicleRemoved 	0
scalar IntersectionExampleScenario.node[22].appl 	ArrivedAtDest 	1
scalar IntersectionExampleScenario.node[22].appl 	IntersectionEnterTime 	67
scalar IntersectionExampleScenario.node[22].appl 	IntersectionExitTime 	91.521828260273
scalar IntersectionExampleScenario.node[22].appl 	NumberOfCollisions 	0
scalar IntersectionExampleScenario.node[22].nic.phy80211p 	busyTime 	0
scalar IntersectionExampleScenario.node[22].nic.mac1609_4 	ReceivedUnicastPackets 	0
scalar IntersectionExampleScenario.node[22].nic.mac1609_4 	ReceivedBroadcasts 	0
scalar IntersectionExampleScenario.node[22].nic.mac1609_4 	SentPackets 	0
scalar IntersectionExampleScenario.node[22].nic.mac1609_4 	SNIRLostPackets 	0
scalar IntersectionExampleScenario.node[22].nic.mac1609_4 	RXTXLostPackets 	0
scalar IntersectionExampleScenario.node[22].nic.mac1609_4 	TotalLostPackets 	0
scalar IntersectionExampleScenario.node[22].nic.mac1609_4 	DroppedPacketsInMac 	0
scalar IntersectionExampleScenario.node[22].nic.mac1609_4 	TooLittleTime 	0
scalar IntersectionExampleScenario.node[22].nic.mac1609_4 	TimesIntoBackoff 	0
scalar IntersectionExampleScenario.node[22].nic.mac1609_4 	SlotsBackoff 	0
scalar IntersectionExampleScenario.node[22].nic.mac1609_4 	NumInternalContention 	0
scalar IntersectionExampleScenario.node[22].nic.mac1609_4 	totalBusyTime 	0
scalar IntersectionExampleScenario.node[22].veinsmobility 	startTime 	67
scalar IntersectionExampleScenario.node[22].veinsmobility 	totalTime 	40.25
scalar IntersectionExampleScenario.node[22].veinsmobility 	stopTime 	107.5
scalar IntersectionExampleScenario.node[22].veinsmobility 	minSpeed 	5.6500000953674
scalar IntersectionExampleScenario.node[22].veinsmobility 	maxSpeed 	15.64999961853
scalar IntersectionExampleScenario.node[22].veinsmobility 	totalDistance 	551.85289001465
scalar IntersectionExampleScenario.node[22].veinsmobility 	totalCO2Emission 	135.61577094499
scalar IntersectionExampleScenario.node[16].appl 	VehicleRemoved 	0
scalar IntersectionExampleScenario.node[16].appl 	ArrivedAtDest 	1
scalar IntersectionExampleScenario.node[16].appl 	IntersectionEnterTime 	50.75
scalar IntersectionExampleScenario.node[16].appl 	IntersectionExitTime 	93.332759569021
scalar IntersectionExampleScenario.node[16].appl 	NumberOfCollisions 	0
scalar IntersectionExampleScenario.node[16].nic.phy80211p 	busyTime 	0
scalar IntersectionExampleScenario.node[16].nic.mac1609_4 	ReceivedUnicastPackets 	0
scalar IntersectionExampleScenario.node[16].nic.mac1609_4 	ReceivedBroadcasts 	0
scalar IntersectionExampleScenario.node[16].nic.mac1609_4 	SentPackets 	0
scalar IntersectionExampleScenario.node[16].nic.mac1609_4 	SNIRLostPackets 	0
scalar IntersectionExampleScenario.node[16].nic.mac1609_4 	RXTXLostPackets 	0
scalar IntersectionExampleScenario.node[16].nic.mac1609_4 	TotalLostPackets 	0
scalar IntersectionExampleScenario.node[16].nic.mac1609_4 	DroppedPacketsInMac 	0
scalar IntersectionExampleScenario.node[16].nic.mac1609_4 	TooLittleTime 	0
scalar IntersectionExampleScenario.node[16].nic.mac1609_4 	TimesIntoBackoff 	0
scalar IntersectionExampleScenario.node[16].nic.mac1609_4 	SlotsBackoff 	0
scalar IntersectionExampleScenario.node[16].nic.mac1609_4 	NumInternalContention 	0
scalar IntersectionExampleScenario.node[16].nic.mac1609_4 	totalBusyTime 	0
scalar IntersectionExampleScenario.node[16].veinsmobility 	startTime 	50.75
scalar IntersectionExampleScenario.node[16].veinsmobility 	totalTime 	57.75
scalar IntersectionExampleScenario.node[16].veinsmobility 	stopTime 	108.75
scalar IntersectionExampleScenario.node[16].veinsmobility 	minSpeed 	0
scalar IntersectionExampleScenario.node[16].veinsmobility 	maxSpeed 	16.27499961853
scalar IntersectionExampleScenario.node[16].veinsmobility 	totalDistance 	553.936378479
scalar IntersectionExampleScenario.node[16].veinsmobility 	totalCO2Emission 	158.56998165721
scalar IntersectionExampleScenario.node[17].appl 	VehicleRemoved 	0
scalar IntersectionExampleScenario.node[17].appl 	ArrivedAtDest 	1
scalar IntersectionExampleScenario.node[17].appl 	IntersectionEnterTime 	52.5
scalar IntersectionExampleScenario.node[17].appl 	IntersectionExitTime 	95.373809313693
scalar IntersectionExampleScenario.node[17].appl 	NumberOfCollisions 	0
scalar IntersectionExampleScenario.node[17].nic.phy80211p 	busyTime 	0
scalar IntersectionExampleScenario.node[17].nic.mac1609_4 	ReceivedUnicastPackets 	0
scalar IntersectionExampleScenario.node[17].nic.mac1609_4 	ReceivedBroadcasts 	0
scalar IntersectionExampleScenario.node[17].nic.mac1609_4 	SentPackets 	0
scalar IntersectionExampleScenario.node[17].nic.mac1609_4 	SNIRLostPackets 	0
scalar IntersectionExampleScenario.node[17].nic.mac1609_4 	RXTXLostPackets 	0
scalar IntersectionExampleScenario.node[17].nic.mac1609_4 	TotalLostPackets 	0
scalar IntersectionExampleScenario.node[17].nic.mac1609_4 	DroppedPacketsInMac 	0
scalar IntersectionExampleScenario.node[17].nic.mac1609_4 	TooLittleTime 	0
scalar IntersectionExampleScenario.node[17].nic.mac1609_4 	TimesIntoBackoff 	0
scalar IntersectionExampleScenario.node[17].nic.mac1609_4 	SlotsBackoff 	0
scalar IntersectionExampleScenario.node[17].nic.mac1609_4 	NumInternalContention 	0
scalar IntersectionExampleScenario.node[17].nic.mac1609_4 	totalBusyTime 	0
scalar IntersectionExampleScenario.node[17].veinsmobility 	startTime 	52.5
scalar IntersectionExampleScenario.node[17].veinsmobility 	totalTime 	58
scalar IntersectionExampleScenario.node[17].veinsmobility 	stopTime 	110.75
scalar IntersectionExampleScenario.node[17].veinsmobility 	minSpeed 	0
scalar IntersectionExampleScenario.node[17].veinsmobility 	maxSpeed 	16.27499961853
scalar IntersectionExampleScenario.node[17].veinsmobility 	totalDistance 	570.69783782959
scalar IntersectionExampleScenario.node[17].veinsmobility 	totalCO2Emission 	158.29290232802
scalar IntersectionExampleScenario.node[19].appl 	VehicleRemoved 	0
scalar IntersectionExampleScenario.node[19].appl 	ArrivedAtDest 	1
scalar IntersectionExampleScenario.node[19].appl 	IntersectionEnterTime 	58.5
scalar IntersectionExampleScenario.node[19].appl 	IntersectionExitTime 	100.28884099305
scalar IntersectionExampleScenario.node[19].appl 	NumberOfCollisions 	0
scalar IntersectionExampleScenario.node[19].nic.phy80211p 	busyTime 	0
scalar IntersectionExampleScenario.node[19].nic.mac1609_4 	ReceivedUnicastPackets 	0
scalar IntersectionExampleScenario.node[19].nic.mac1609_4 	ReceivedBroadcasts 	0
scalar IntersectionExampleScenario.node[19].nic.mac1609_4 	SentPackets 	0
scalar IntersectionExampleScenario.node[19].nic.mac1609_4 	SNIRLostPackets 	0
scalar IntersectionExampleScenario.node[19].nic.mac1609_4 	RXTXLostPackets 	0
scalar IntersectionExampleScenario.node[19].nic.mac1609_4 	TotalLostPackets 	0
scalar IntersectionExampleScenario.node[19].nic.mac1609_4 	DroppedPacketsInMac 	0
scalar IntersectionExampleScenario.node[19].nic.mac1609_4 	TooLittleTime 	0
scalar IntersectionExampleScenario.node[19].nic.mac1609_4 	TimesIntoBackoff 	0
scalar IntersectionExampleScenario.node[19].nic.mac1609_4 	SlotsBackoff 	0
scalar IntersectionExampleScenario.node[19].nic.mac1609_4 	NumInternalContention 	0
scalar IntersectionExampleScenario.node[19].nic.mac1609_4 	totalBusyTime 	0
scalar IntersectionExampleScenario.node[19].veinsmobility 	startTime 	58.5
scalar IntersectionExampleScenario.node[19].veinsmobility 	totalTime 	57.5
scalar IntersectionExampleScenario.node[19].veinsmobility 	stopTime 	116.25
scalar IntersectionExampleScenario.node[19].veinsmobility 	minSpeed 	0
scalar IntersectionExampleScenario.node[19].veinsmobility 	maxSpeed 	16
scalar IntersectionExampleScenario.node[19].veinsmobility 	totalDistance 	549.38234056583
scalar IntersectionExampleScenario.node[19].veinsmobility 	totalCO2Emission 	151.86486307764
scalar IntersectionExampleScenario.node[23].appl 	VehicleRemoved 	0
scalar IntersectionExampleScenario.node[23].appl 	ArrivedAtDest 	1
scalar IntersectionExampleScenario.node[23].appl 	IntersectionEnterTime 	68.25
scalar IntersectionExampleScenario.node[23].appl 	IntersectionExitTime 	101.33617965918
scalar IntersectionExampleScenario.node[23].appl 	NumberOfCollisions 	0
scalar IntersectionExampleScenario.node[23].nic.phy80211p 	busyTime 	0
scalar IntersectionExampleScenario.node[23].nic.mac1609_4 	ReceivedUnicastPackets 	0
scalar IntersectionExampleScenario.node[23].nic.mac1609_4 	ReceivedBroadcasts 	0
scalar IntersectionExampleScenario.node[23].nic.mac1609_4 	SentPackets 	0
scalar IntersectionExampleScenario.node[23].nic.mac1609_4 	SNIRLostPackets 	0
scalar IntersectionExampleScenario.node[23].nic.mac1609_4 	RXTXLostPackets 	0
scalar IntersectionExampleScenario.node[23].nic.mac1609_4 	TotalLostPackets 	0
scalar IntersectionExampleScenario.node[23].nic.mac1609_4 	DroppedPacketsInMac 	0
scalar IntersectionExampleScenario.node[23].nic.mac1609_4 	TooLittleTime 	0
scalar IntersectionExampleScenario.node[23].nic.mac1609_4 	TimesIntoBackoff 	0
scalar IntersectionExampleScenario.node[23].nic.mac1609_4 	SlotsBackoff 	0
scalar IntersectionExampleScenario.node[23].nic.mac1609_4 	NumInternalContention 	0
scalar IntersectionExampleScenario.node[23].nic.mac1609_4 	totalBusyTime 	0
scalar IntersectionExampleScenario.node[23].veinsmobility 	startTime 	68.25
scalar IntersectionExampleScenario.node[23].veinsmobility 	totalTime 	50.25
scalar IntersectionExampleScenario.node[23].veinsmobility 	stopTime 	118.75
scalar IntersectionExampleScenario.node[23].veinsmobility 	minSpeed 	1.3882330656052
scalar IntersectionExampleScenario.node[23].veinsmobility 	maxSpeed 	15.02499961853
scalar IntersectionExampleScenario.node[23].veinsmobility 	totalDistance 	543.98005779365
scalar IntersectionExampleScenario.node[23].veinsmobility 	totalCO2Emission 	133.4992281054
scalar IntersectionExampleScenario.node[25].appl 	VehicleRemoved 	0
scalar IntersectionExampleScenario.node[25].appl 	ArrivedAtDest 	1
scalar IntersectionExampleScenario.node[25].appl 	IntersectionEnterTime 	69.25
scalar IntersectionExampleScenario.node[25].appl 	IntersectionExitTime 	103.28054743959
scalar IntersectionExampleScenario.node[25].appl 	NumberOfCollisions 	0
scalar IntersectionExampleScenario.node[25].nic.phy80211p 	busyTime 	0
scalar IntersectionExampleScenario.node[25].nic.mac1609_4 	ReceivedUnicastPackets 	0
scalar IntersectionExampleScenario.node[25].nic.mac1609_4 	ReceivedBroadcasts 	0
scalar IntersectionExampleScenario.node[25].nic.mac1609_4 	SentPackets 	0
scalar IntersectionExampleScenario.node[25].nic.mac1609_4 	SNIRLostPackets 	0
scalar IntersectionExampleScenario.node[25].nic.mac1609_4 	RXTXLostPackets 	0
scalar IntersectionExampleScenario.node[25].nic.mac1609_4 	TotalLostPackets 	0
scalar IntersectionExampleScenario.node[25].nic.mac1609_4 	DroppedPacketsInMac 	0
scalar IntersectionExampleScenario.node[25].nic.mac1609_4 	TooLittleTime 	0
scalar IntersectionExampleScenario.node[25].nic.mac1609_4 	TimesIntoBackoff 	0
scalar IntersectionExampleScenario.node[25].nic.mac1609_4 	SlotsBackoff 	0
scalar IntersectionExampleScenario.node[25].nic.mac1609_4 	NumInternalContention 	0
scalar IntersectionExampleScenario.node[25].nic.mac1609_4 	totalBusyTime 	0
scalar IntersectionExampleScenario.node[25].veinsmobility 	startTime 	69.25
scalar IntersectionExampleScenario.node[25].veinsmobility 	totalTime 	50.5
scalar IntersectionExampleScenario.node[25].veinsmobility 	stopTime 	120
scalar IntersectionExampleScenario.node[25].veinsmobility 	minSpeed 	2.4777586460114
scalar IntersectionExampleScenario.node[25].veinsmobility 	maxSpeed 	15.375
scalar IntersectionExampleScenario.node[25].veinsmobility 	totalDistance 	573.2105245763
scalar IntersectionExampleScenario.node[25].veinsmobility 	totalCO2Emission 	144.04626318621
scalar IntersectionExampleScenario.node[26].appl 	VehicleRemoved 	0
scalar IntersectionExampleScenario.node[26].appl 	ArrivedAtDest 	1
scalar IntersectionExampleScenario.node[26].appl 	IntersectionEnterTime 	73
scalar IntersectionExampleScenario.node[26].appl 	IntersectionExitTime 	105.53163052924
scalar IntersectionExampleScenario.node[26].appl 	NumberOfCollisions 	0
scalar IntersectionExampleScenario.node[26].nic.phy80211p 	busyTime 	0
scalar IntersectionExampleScenario.node[26].nic.mac1609_4 	ReceivedUnicastPackets 	0
scalar IntersectionExampleScenario.node[26].nic.mac1609_4 	ReceivedBroadcasts 	0
scalar IntersectionExampleScenario.node[26].nic.mac1609_4 	SentPackets 	0
scalar IntersectionExampleScenario.node[26].nic.mac1609_4 	SNIRLostPackets 	0
scalar IntersectionExampleScenario.node[26].nic.mac1609_4 	RXTXLostPackets 	0
scalar IntersectionExampleScenario.node[26].nic.mac1609_4 	TotalLostPackets 	0
scalar IntersectionExampleScenario.node[26].nic.mac1609_4 	DroppedPacketsInMac 	0
scalar IntersectionExampleScenario.node[26].nic.mac1609_4 	TooLittleTime 	0
scalar IntersectionExampleScenario.node[26].nic.mac1609_4 	TimesIntoBackoff 	0
scalar IntersectionExampleScenario.node[26].nic.mac1609_4 	SlotsBackoff 	0
scalar IntersectionExampleScenario.node[26].nic.mac1609_4 	NumInternalContention 	0
scalar IntersectionExampleScenario.node[26].nic.mac1609_4 	totalBusyTime 	0
scalar IntersectionExampleScenario.node[26].veinsmobility 	startTime 	73
scalar IntersectionExampleScenario.node[26].veinsmobility 	totalTime 	48.75
scalar IntersectionExampleScenario.node[26].veinsmobility 	stopTime 	122
scalar IntersectionExampleScenario.node[26].veinsmobility 	minSpeed 	2.5022773742676
scalar IntersectionExampleScenario.node[26].veinsmobility 	maxSpeed 	16.197311401367
scalar IntersectionExampleScenario.node[26].veinsmobility 	totalDistance 	565.21743580204
scalar IntersectionExampleScenario.node[26].veinsmobility 	totalCO2Emission 	150.02477138764
scalar IntersectionExampleScenario.node[28].appl 	VehicleRemoved 	0
scalar IntersectionExampleScenario.node[28].appl 	ArrivedAtDest 	1
scalar IntersectionExampleScenario.node[28].appl 	IntersectionEnterTime 	79.25
scalar IntersectionExampleScenario.node[28].appl 	IntersectionExitTime 	107.32524515098
scalar IntersectionExampleScenario.node[28].appl 	NumberOfCollisions 	0
scalar IntersectionExampleScenario.node[28].nic.phy80211p 	busyTime 	0
scalar IntersectionExampleScenario.node[28].nic.mac1609_4 	ReceivedUnicastPackets 	0
scalar IntersectionExampleScenario.node[28].nic.mac1609_4 	ReceivedBroadcasts 	0
scalar IntersectionExampleScenario.node[28].nic.mac1609_4 	SentPackets 	0
scalar IntersectionExampleScenario.node[28].nic.mac1609_4 	SNIRLostPackets 	0
scalar IntersectionExampleScenario.node[28].nic.mac1609_4 	RXTXLostPackets 	0
scalar IntersectionExampleScenario.node[28].nic.mac1609_4 	TotalLostPackets 	0
scalar IntersectionExampleScenario.node[28].nic.mac1609_4 	DroppedPacketsInMac 	0
scalar IntersectionExampleScenario.node[28].nic.mac1609_4 	TooLittleTime 	0
scalar IntersectionExampleScenario.node[28].nic.mac1609_4 	TimesIntoBackoff 	0
scalar IntersectionExampleScenario.node[28].nic.mac1609_4 	SlotsBackoff 	0
scalar IntersectionExampleScenario.node[28].nic.mac1609_4 	NumInternalContention 	0
scalar IntersectionExampleScenario.node[28].nic.mac1609_4 	totalBusyTime 	0
scalar IntersectionExampleScenario.node[28].veinsmobility 	startTime 	79.25
scalar IntersectionExampleScenario.node[28].veinsmobility 	totalTime 	44
scalar IntersectionExampleScenario.node[28].veinsmobility 	stopTime 	123.5
scalar IntersectionExampleScenario.node[28].veinsmobility 	minSpeed 	5.5830764770508
scalar IntersectionExampleScenario.node[28].veinsmobility 	maxSpeed 	15.64999961853
scalar IntersectionExampleScenario.node[28].veinsmobility 	totalDistance 	553.74283599854
scalar IntersectionExampleScenario.node[28].veinsmobility 	totalCO2Emission 	128.75582090851
scalar IntersectionExampleScenario.node[21].appl 	VehicleRemoved 	0
scalar IntersectionExampleScenario.node[21].appl 	ArrivedAtDest 	1
scalar IntersectionExampleScenario.node[21].appl 	IntersectionEnterTime 	64.75
scalar IntersectionExampleScenario.node[21].appl 	IntersectionExitTime 	108.51180494903
scalar IntersectionExampleScenario.node[21].appl 	NumberOfCollisions 	0
scalar IntersectionExampleScenario.node[21].nic.phy80211p 	busyTime 	0
scalar IntersectionExampleScenario.node[21].nic.mac1609_4 	ReceivedUnicastPackets 	0
scalar IntersectionExampleScenario.node[21].nic.mac1609_4 	ReceivedBroadcasts 	0
scalar IntersectionExampleScenario.node[21].nic.mac1609_4 	SentPackets 	0
scalar IntersectionExampleScenario.node[21].nic.mac1609_4 	SNIRLostPackets 	0
scalar IntersectionExampleScenario.node[21].nic.mac1609_4 	RXTXLostPackets 	0
scalar IntersectionExampleScenario.node[21].nic.mac1609_4 	TotalLostPackets 	0
scalar IntersectionExampleScenario.node[21].nic.mac1609_4 	DroppedPacketsInMac 	0
scalar IntersectionExampleScenario.node[21].nic.mac1609_4 	TooLittleTime 	0
scalar IntersectionExampleScenario.node[21].nic.mac1609_4 	TimesIntoBackoff 	0
scalar IntersectionExampleScenario.node[21].nic.mac1609_4 	SlotsBackoff 	0
scalar IntersectionExampleScenario.node[21].nic.mac1609_4 	NumInternalContention 	0
scalar IntersectionExampleScenario.node[21].nic.mac1609_4 	totalBusyTime 	0
scalar IntersectionExampleScenario.node[21].veinsmobility 	startTime 	64.75
scalar IntersectionExampleScenario.node[21].veinsmobility 	totalTime 	60.75
scalar IntersectionExampleScenario.node[21].veinsmobility 	stopTime 	125.75
scalar IntersectionExampleScenario.node[21].veinsmobility 	minSpeed 	0
scalar IntersectionExampleScenario.node[21].veinsmobility 	maxSpeed 	15.25
scalar IntersectionExampleScenario.node[21].veinsmobility 	totalDistance 	545.0027074948
scalar IntersectionExampleScenario.node[21].veinsmobility 	totalCO2Emission 	154.90071449534
scalar IntersectionExampleScenario.node[24].appl 	VehicleRemoved 	0
scalar IntersectionExampleScenario.node[24].appl 	ArrivedAtDest 	1
scalar IntersectionExampleScenario.node[24].appl 	IntersectionEnterTime 	69
scalar IntersectionExampleScenario.node[24].appl 	IntersectionExitTime 	111.26054527797
scalar IntersectionExampleScenario.node[24].appl 	NumberOfCollisions 	0
scalar IntersectionExampleScenario.node[24].nic.phy80211p 	busyTime 	0
scalar IntersectionExampleScenario.node[24].nic.mac1609_4 	ReceivedUnicastPackets 	0
scalar IntersectionExampleScenario.node[24].nic.mac1609_4 	ReceivedBroadcasts 	0
scalar IntersectionExampleScenario.node[24].nic.mac1609_4 	SentPackets 	0
scalar IntersectionExampleScenario.node[24].nic.mac1609_4 	SNIRLostPackets 	0
scalar IntersectionExampleScenario.node[24].nic.mac1609_4 	RXTXLostPackets 	0
scalar IntersectionExampleScenario.node[24].nic.mac1609_4 	TotalLostPackets 	0
scalar IntersectionExampleScenario.node[24].nic.mac1609_4 	DroppedPacketsInMac 	0
scalar IntersectionExampleScenario.node[24].nic.mac1609_4 	TooLittleTime 	0
scalar IntersectionExampleScenario.node[24].nic.mac1609_4 	TimesIntoBackoff 	0
scalar IntersectionExampleScenario.node[24].nic.mac1609_4 	SlotsBackoff 	0
scalar IntersectionExampleScenario.node[24].nic.mac1609_4 	NumInternalContention 	0
scalar IntersectionExampleScenario.node[24].nic.mac1609_4 	totalBusyTime 	0
scalar IntersectionExampleScenario.node[24].veinsmobility 	startTime 	69
scalar IntersectionExampleScenario.node[24].veinsmobility 	totalTime 	59
scalar IntersectionExampleScenario.node[24].veinsmobility 	stopTime 	128.25
scalar IntersectionExampleScenario.node[24].veinsmobility 	minSpeed 	0
scalar IntersectionExampleScenario.node[24].veinsmobility 	maxSpeed 	15.25
scalar IntersectionExampleScenario.node[24].veinsmobility 	totalDistance 	549.5741411591
scalar IntersectionExampleScenario.node[24].veinsmobility 	totalCO2Emission 	150.20195330085
scalar IntersectionExampleScenario.node[27].appl 	VehicleRemoved 	0
scalar IntersectionExampleScenario.node[27].appl 	ArrivedAtDest 	1
scalar IntersectionExampleScenario.node[27].appl 	IntersectionEnterTime 	75
scalar IntersectionExampleScenario.node[27].appl 	IntersectionExitTime 	116.54000089102
scalar IntersectionExampleScenario.node[27].appl 	NumberOfCollisions 	0
scalar IntersectionExampleScenario.node[27].nic.phy80211p 	busyTime 	0
scalar IntersectionExampleScenario.node[27].nic.mac1609_4 	ReceivedUnicastPackets 	0
scalar IntersectionExampleScenario.node[27].nic.mac1609_4 	ReceivedBroadcasts 	0
scalar IntersectionExampleScenario.node[27].nic.mac1609_4 	SentPackets 	0
scalar IntersectionExampleScenario.node[27].nic.mac1609_4 	SNIRLostPackets 	0
scalar IntersectionExampleScenario.node[27].nic.mac1609_4 	RXTXLostPackets 	0
scalar IntersectionExampleScenario.node[27].nic.mac1609_4 	TotalLostPackets 	0
scalar IntersectionExampleScenario.node[27].nic.mac1609_4 	DroppedPacketsInMac 	0
scalar IntersectionExampleScenario.node[27].nic.mac1609_4 	TooLittleTime 	0
scalar IntersectionExampleScenario.node[27].nic.mac1609_4 	TimesIntoBackoff 	0
scalar IntersectionExampleScenario.node[27].nic.mac1609_4 	SlotsBackoff 	0
scalar IntersectionExampleScenario.node[27].nic.mac1609_4 	NumInternalContention 	0
scalar IntersectionExampleScenario.node[27].nic.mac1609_4 	totalBusyTime 	0
scalar IntersectionExampleScenario.node[27].veinsmobility 	startTime 	75
scalar IntersectionExampleScenario.node[27].veinsmobility 	totalTime 	58
scalar IntersectionExampleScenario.node[27].veinsmobility 	stopTime 	133.25
scalar IntersectionExampleScenario.node[27].veinsmobility 	minSpeed 	0
scalar IntersectionExampleScenario.node[27].veinsmobility 	maxSpeed 	15.875
scalar IntersectionExampleScenario.node[27].veinsmobility 	totalDistance 	545.84709836394
scalar IntersectionExampleScenario.node[27].veinsmobility 	totalCO2Emission 	153.20000237934
scalar IntersectionExampleScenario.node[29].appl 	VehicleRemoved 	0
scalar IntersectionExampleScenario.node[29].appl 	ArrivedAtDest 	1
scalar IntersectionExampleScenario.node[29].appl 	IntersectionEnterTime 	79.25
scalar IntersectionExampleScenario.node[29].appl 	IntersectionExitTime 	118.29477183052
scalar IntersectionExampleScenario.node[29].appl 	NumberOfCollisions 	0
scalar IntersectionExampleScenario.node[29].nic.phy80211p 	busyTime 	0
scalar IntersectionExampleScenario.node[29].nic.mac1609_4 	ReceivedUnicastPackets 	0
scalar IntersectionExampleScenario.node[29].nic.mac1609_4 	ReceivedBroadcasts 	0
scalar IntersectionExampleScenario.node[29].nic.mac1609_4 	SentPackets 	0
scalar IntersectionExampleScenario.node[29].nic.mac1609_4 	SNIRLostPackets 	0
scalar IntersectionExampleScenario.node[29].nic.mac1609_4 	RXTXLostPackets 	0
scalar IntersectionExampleScenario.node[29].nic.mac1609_4 	TotalLostPackets 	0
scalar IntersectionExampleScenario.node[29].nic.mac1609_4 	DroppedPacketsInMac 	0
scalar IntersectionExampleScenario.node[29].nic.mac1609_4 	TooLittleTime 	0
scalar IntersectionExampleScenario.node[29].nic.mac1609_4 	TimesIntoBackoff 	0
scalar IntersectionExampleScenario.node[29].nic.mac1609_4 	SlotsBackoff 	0
scalar IntersectionExampleScenario.node[29].nic.mac1609_4 	NumInternalContention 	0
scalar IntersectionExampleScenario.node[29].nic.mac1609_4 	totalBusyTime 	0
scalar IntersectionExampleScenario.node[29].veinsmobility 	startTime 	79.25
scalar IntersectionExampleScenario.node[29].veinsmobility 	totalTime 	55.5
scalar IntersectionExampleScenario.node[29].veinsmobility 	stopTime 	135
scalar IntersectionExampleScenario.node[29].veinsmobility 	minSpeed 	0
scalar IntersectionExampleScenario.node[29].veinsmobility 	maxSpeed 	15.02499961853
scalar IntersectionExampleScenario.node[29].veinsmobility 	totalDistance 	555.8990020752
scalar IntersectionExampleScenario.node[29].veinsmobility 	totalCO2Emission 	141.51328292739
scalar IntersectionExampleScenario.node[30].appl 	VehicleRemoved 	0
scalar IntersectionExampleScenario.node[30].appl 	ArrivedAtDest 	1
scalar IntersectionExampleScenario.node[30].appl 	IntersectionEnterTime 	82.25
scalar IntersectionExampleScenario.node[30].appl 	IntersectionExitTime 	121.08876013034
scalar IntersectionExampleScenario.node[30].appl 	NumberOfCollisions 	0
scalar IntersectionExampleScenario.node[30].nic.phy80211p 	busyTime 	0
scalar IntersectionExampleScenario.node[30].nic.mac1609_4 	ReceivedUnicastPackets 	0
scalar IntersectionExampleScenario.node[30].nic.mac1609_4 	ReceivedBroadcasts 	0
scalar IntersectionExampleScenario.node[30].nic.mac1609_4 	SentPackets 	0
scalar IntersectionExampleScenario.node[30].nic.mac1609_4 	SNIRLostPackets 	0
scalar IntersectionExampleScenario.node[30].nic.mac1609_4 	RXTXLostPackets 	0
scalar IntersectionExampleScenario.node[30].nic.mac1609_4 	TotalLostPackets 	0
scalar IntersectionExampleScenario.node[30].nic.mac1609_4 	DroppedPacketsInMac 	0
scalar IntersectionExampleScenario.node[30].nic.mac1609_4 	TooLittleTime 	0
scalar IntersectionExampleScenario.node[30].nic.mac1609_4 	TimesIntoBackoff 	0
scalar IntersectionExampleScenario.node[30].nic.mac1609_4 	SlotsBackoff 	0
scalar IntersectionExampleScenario.node[30].nic.mac1609_4 	NumInternalContention 	0
scalar IntersectionExampleScenario.node[30].nic.mac1609_4 	totalBusyTime 	0
scalar IntersectionExampleScenario.node[30].veinsmobility 	startTime 	82.25
scalar IntersectionExampleScenario.node[30].veinsmobility 	totalTime 	56
scalar IntersectionExampleScenario.node[30].veinsmobility 	stopTime 	138.5
scalar IntersectionExampleScenario.node[30].veinsmobility 	minSpeed 	0
scalar IntersectionExampleScenario.node[30].veinsmobility 	maxSpeed 	15.02499961853
scalar IntersectionExampleScenario.node[30].veinsmobility 	totalDistance 	558.52083787032
scalar IntersectionExampleScenario.node[30].veinsmobility 	totalCO2Emission 	143.59563081389
scalar IntersectionExampleScenario.node[32].appl 	VehicleRemoved 	0
scalar IntersectionExampleScenario.node[32].appl 	ArrivedAtDest 	1
scalar IntersectionExampleScenario.node[32].appl 	IntersectionEnterTime 	88.5
scalar IntersectionExampleScenario.node[32].appl 	IntersectionExitTime 	123.58693572215
scalar IntersectionExampleScenario.node[32].appl 	NumberOfCollisions 	0
scalar IntersectionExampleScenario.node[32].nic.phy80211p 	busyTime 	0
scalar IntersectionExampleScenario.node[32].nic.mac1609_4 	ReceivedUnicastPackets 	0
scalar IntersectionExampleScenario.node[32].nic.mac1609_4 	ReceivedBroadcasts 	0
scalar IntersectionExampleScenario.node[32].nic.mac1609_4 	SentPackets 	0
scalar IntersectionExampleScenario.node[32].nic.mac1609_4 	SNIRLostPackets 	0
scalar IntersectionExampleScenario.node[32].nic.mac1609_4 	RXTXLostPackets 	0
scalar IntersectionExampleScenario.node[32].nic.mac1609_4 	TotalLostPackets 	0
scalar IntersectionExampleScenario.node[32].nic.mac1609_4 	DroppedPacketsInMac 	0
scalar IntersectionExampleScenario.node[32].nic.mac1609_4 	TooLittleTime 	0
scalar IntersectionExampleScenario.node[32].nic.mac1609_4 	TimesIntoBackoff 	0
scalar IntersectionExampleScenario.node[32].nic.mac1609_4 	SlotsBackoff 	0
scalar IntersectionExampleScenario.node[32].nic.mac1609_4 	NumInternalContention 	0
scalar IntersectionExampleScenario.node[32].nic.mac1609_4 	totalBusyTime 	0
scalar IntersectionExampleScenario.node[32].veinsmobility 	startTime 	88.5
scalar IntersectionExampleScenario.node[32].veinsmobility 	totalTime 	51.75
scalar IntersectionExampleScenario.node[32].veinsmobility 	stopTime 	140.5
scalar IntersectionExampleScenario.node[32].veinsmobility 	minSpeed 	0
scalar IntersectionExampleScenario.node[32].veinsmobility 	maxSpeed 	15.02499961853
scalar IntersectionExampleScenario.node[32].veinsmobility 	totalDistance 	553.17156982422
scalar IntersectionExampleScenario.node[32].veinsmobility 	totalCO2Emission 	133.25211720568
scalar IntersectionExampleScenario.node[34].appl 	VehicleRemoved 	0
scalar IntersectionExampleScenario.node[34].appl 	ArrivedAtDest 	1
scalar IntersectionExampleScenario.node[34].appl 	IntersectionEnterTime 	103.25
scalar IntersectionExampleScenario.node[34].appl 	IntersectionExitTime 	127.115288573
scalar IntersectionExampleScenario.node[34].appl 	NumberOfCollisions 	0
scalar IntersectionExampleScenario.node[34].nic.phy80211p 	busyTime 	0
scalar IntersectionExampleScenario.node[34].nic.mac1609_4 	ReceivedUnicastPackets 	0
scalar IntersectionExampleScenario.node[34].nic.mac1609_4 	ReceivedBroadcasts 	0
scalar IntersectionExampleScenario.node[34].nic.mac1609_4 	SentPackets 	0
scalar IntersectionExampleScenario.node[34].nic.mac1609_4 	SNIRLostPackets 	0
scalar IntersectionExampleScenario.node[34].nic.mac1609_4 	RXTXLostPackets 	0
scalar IntersectionExampleScenario.node[34].nic.mac1609_4 	TotalLostPackets 	0
scalar IntersectionExampleScenario.node[34].nic.mac1609_4 	DroppedPacketsInMac 	0
scalar IntersectionExampleScenario.node[34].nic.mac1609_4 	TooLittleTime 	0
scalar IntersectionExampleScenario.node[34].nic.mac1609_4 	TimesIntoBackoff 	0
scalar IntersectionExampleScenario.node[34].nic.mac1609_4 	SlotsBackoff 	0
scalar IntersectionExampleScenario.node[34].nic.mac1609_4 	NumInternalContention 	0
scalar IntersectionExampleScenario.node[34].nic.mac1609_4 	totalBusyTime 	0
scalar IntersectionExampleScenario.node[34].veinsmobility 	startTime 	103.25
scalar IntersectionExampleScenario.node[34].veinsmobility 	totalTime 	40.5
scalar IntersectionExampleScenario.node[34].veinsmobility 	stopTime 	144
scalar IntersectionExampleScenario.node[34].veinsmobility 	minSpeed 	5.6500000953674
scalar IntersectionExampleScenario.node[34].veinsmobility 	maxSpeed 	15.25
scalar IntersectionExampleScenario.node[34].veinsmobility 	totalDistance 	543.14953633273
scalar IntersectionExampleScenario.node[34].veinsmobility 	totalCO2Emission 	124.83509642737
scalar IntersectionExampleScenario.node[31].appl 	VehicleRemoved 	0
scalar IntersectionExampleScenario.node[31].appl 	ArrivedAtDest 	1
scalar IntersectionExampleScenario.node[31].appl 	IntersectionEnterTime 	83.5
scalar IntersectionExampleScenario.node[31].appl 	IntersectionExitTime 	132.29109240894
scalar IntersectionExampleScenario.node[31].appl 	NumberOfCollisions 	0
scalar IntersectionExampleScenario.node[31].nic.phy80211p 	busyTime 	0
scalar IntersectionExampleScenario.node[31].nic.mac1609_4 	ReceivedUnicastPackets 	0
scalar IntersectionExampleScenario.node[31].nic.mac1609_4 	ReceivedBroadcasts 	0
scalar IntersectionExampleScenario.node[31].nic.mac1609_4 	SentPackets 	0
scalar IntersectionExampleScenario.node[31].nic.mac1609_4 	SNIRLostPackets 	0
scalar IntersectionExampleScenario.node[31].nic.mac1609_4 	RXTXLostPackets 	0
scalar IntersectionExampleScenario.node[31].nic.mac1609_4 	TotalLostPackets 	0
scalar IntersectionExampleScenario.node[31].nic.mac1609_4 	DroppedPacketsInMac 	0
scalar IntersectionExampleScenario.node[31].nic.mac1609_4 	TooLittleTime 	0
scalar IntersectionExampleScenario.node[31].nic.mac1609_4 	TimesIntoBackoff 	0
scalar IntersectionExampleScenario.node[31].nic.mac1609_4 	SlotsBackoff 	0
scalar IntersectionExampleScenario.node[31].nic.mac1609_4 	NumInternalContention 	0
scalar IntersectionExampleScenario.node[31].nic.mac1609_4 	totalBusyTime 	0
scalar IntersectionExampleScenario.node[31].veinsmobility 	startTime 	83.5
scalar IntersectionExampleScenario.node[31].veinsmobility 	totalTime 	65
scalar IntersectionExampleScenario.node[31].veinsmobility 	stopTime 	148.75
scalar IntersectionExampleScenario.node[31].veinsmobility 	minSpeed 	0
scalar IntersectionExampleScenario.node[31].veinsmobility 	maxSpeed 	15.375
scalar IntersectionExampleScenario.node[31].veinsmobility 	totalDistance 	558.31983947754
scalar IntersectionExampleScenario.node[31].veinsmobility 	totalCO2Emission 	156.58761481911
scalar IntersectionExampleScenario.node[35].appl 	VehicleRemoved 	0
scalar IntersectionExampleScenario.node[35].appl 	ArrivedAtDest 	1
scalar IntersectionExampleScenario.node[35].appl 	IntersectionEnterTime 	105.75
scalar IntersectionExampleScenario.node[35].appl 	IntersectionExitTime 	134.08282435962
scalar IntersectionExampleScenario.node[35].appl 	NumberOfCollisions 	0
scalar IntersectionExampleScenario.node[35].nic.phy80211p 	busyTime 	0
scalar IntersectionExampleScenario.node[35].nic.mac1609_4 	ReceivedUnicastPackets 	0
scalar IntersectionExampleScenario.node[35].nic.mac1609_4 	ReceivedBroadcasts 	0
scalar IntersectionExampleScenario.node[35].nic.mac1609_4 	SentPackets 	0
scalar IntersectionExampleScenario.node[35].nic.mac1609_4 	SNIRLostPackets 	0
scalar IntersectionExampleScenario.node[35].nic.mac1609_4 	RXTXLostPackets 	0
scalar IntersectionExampleScenario.node[35].nic.mac1609_4 	TotalLostPackets 	0
scalar IntersectionExampleScenario.node[35].nic.mac1609_4 	DroppedPacketsInMac 	0
scalar IntersectionExampleScenario.node[35].nic.mac1609_4 	TooLittleTime 	0
scalar IntersectionExampleScenario.node[35].nic.mac1609_4 	TimesIntoBackoff 	0
scalar IntersectionExampleScenario.node[35].nic.mac1609_4 	SlotsBackoff 	0
scalar IntersectionExampleScenario.node[35].nic.mac1609_4 	NumInternalContention 	0
scalar IntersectionExampleScenario.node[35].nic.mac1609_4 	totalBusyTime 	0
scalar IntersectionExampleScenario.node[35].veinsmobility 	startTime 	105.75
scalar IntersectionExampleScenario.node[35].veinsmobility 	totalTime 	45.25
scalar IntersectionExampleScenario.node[35].veinsmobility 	stopTime 	151.25
scalar IntersectionExampleScenario.node[35].veinsmobility 	minSpeed 	4.0093588829041
scalar IntersectionExampleScenario.node[35].veinsmobility 	maxSpeed 	15.64999961853
scalar IntersectionExampleScenario.node[35].veinsmobility 	totalDistance 	546.08747054793
scalar IntersectionExampleScenario.node[35].veinsmobility 	totalCO2Emission 	135.75968431765
scalar IntersectionExampleScenario.node[33].appl 	VehicleRemoved 	0
scalar IntersectionExampleScenario.node[33].appl 	ArrivedAtDest 	1
scalar IntersectionExampleScenario.node[33].appl 	IntersectionEnterTime 	99
scalar IntersectionExampleScenario.node[33].appl 	IntersectionExitTime 	140.60548512603
scalar IntersectionExampleScenario.node[33].appl 	NumberOfCollisions 	0
scalar IntersectionExampleScenario.node[33].nic.phy80211p 	busyTime 	0
scalar IntersectionExampleScenario.node[33].nic.mac1609_4 	ReceivedUnicastPackets 	0
scalar IntersectionExampleScenario.node[33].nic.mac1609_4 	ReceivedBroadcasts 	0
scalar IntersectionExampleScenario.node[33].nic.mac1609_4 	SentPackets 	0
scalar IntersectionExampleScenario.node[33].nic.mac1609_4 	SNIRLostPackets 	0
scalar IntersectionExampleScenario.node[33].nic.mac1609_4 	RXTXLostPackets 	0
scalar IntersectionExampleScenario.node[33].nic.mac1609_4 	TotalLostPackets 	0
scalar IntersectionExampleScenario.node[33].nic.mac1609_4 	DroppedPacketsInMac 	0
scalar IntersectionExampleScenario.node[33].nic.mac1609_4 	TooLittleTime 	0
scalar IntersectionExampleScenario.node[33].nic.mac1609_4 	TimesIntoBackoff 	0
scalar IntersectionExampleScenario.node[33].nic.mac1609_4 	SlotsBackoff 	0
scalar IntersectionExampleScenario.node[33].nic.mac1609_4 	NumInternalContention 	0
scalar IntersectionExampleScenario.node[33].nic.mac1609_4 	totalBusyTime 	0
scalar IntersectionExampleScenario.node[33].veinsmobility 	startTime 	99
scalar IntersectionExampleScenario.node[33].veinsmobility 	totalTime 	59
scalar IntersectionExampleScenario.node[33].veinsmobility 	stopTime 	158.25
scalar IntersectionExampleScenario.node[33].veinsmobility 	minSpeed 	0
scalar IntersectionExampleScenario.node[33].veinsmobility 	maxSpeed 	15.02499961853
scalar IntersectionExampleScenario.node[33].veinsmobility 	totalDistance 	546.21668149382
scalar IntersectionExampleScenario.node[33].veinsmobility 	totalCO2Emission 	145.58755538394
scalar IntersectionExampleScenario.node[37].appl 	VehicleRemoved 	0
scalar IntersectionExampleScenario.node[37].appl 	ArrivedAtDest 	1
scalar IntersectionExampleScenario.node[37].appl 	IntersectionEnterTime 	111.5
scalar IntersectionExampleScenario.node[37].appl 	IntersectionExitTime 	145.03681467078
scalar IntersectionExampleScenario.node[37].appl 	NumberOfCollisions 	0
scalar IntersectionExampleScenario.node[37].nic.phy80211p 	busyTime 	0
scalar IntersectionExampleScenario.node[37].nic.mac1609_4 	ReceivedUnicastPackets 	0
scalar IntersectionExampleScenario.node[37].nic.mac1609_4 	ReceivedBroadcasts 	0
scalar IntersectionExampleScenario.node[37].nic.mac1609_4 	SentPackets 	0
scalar IntersectionExampleScenario.node[37].nic.mac1609_4 	SNIRLostPackets 	0
scalar IntersectionExampleScenario.node[37].nic.mac1609_4 	RXTXLostPackets 	0
scalar IntersectionExampleScenario.node[37].nic.mac1609_4 	TotalLostPackets 	0
scalar IntersectionExampleScenario.node[37].nic.mac1609_4 	DroppedPacketsInMac 	0
scalar IntersectionExampleScenario.node[37].nic.mac1609_4 	TooLittleTime 	0
scalar IntersectionExampleScenario.node[37].nic.mac1609_4 	TimesIntoBackoff 	0
scalar IntersectionExampleScenario.node[37].nic.mac1609_4 	SlotsBackoff 	0
scalar IntersectionExampleScenario.node[37].nic.mac1609_4 	NumInternalContention 	0
scalar IntersectionExampleScenario.node[37].nic.mac1609_4 	totalBusyTime 	0
scalar IntersectionExampleScenario.node[37].veinsmobility 	startTime 	111.5
scalar IntersectionExampleScenario.node[37].veinsmobility 	totalTime 	48.75
scalar IntersectionExampleScenario.node[37].veinsmobility 	stopTime 	160.5
scalar IntersectionExampleScenario.node[37].veinsmobility 	minSpeed 	2.4366731643677
scalar IntersectionExampleScenario.node[37].veinsmobility 	maxSpeed 	16.125
scalar IntersectionExampleScenario.node[37].veinsmobility 	totalDistance 	557.50936889648
scalar IntersectionExampleScenario.node[37].veinsmobility 	totalCO2Emission 	145.16319912939
scalar IntersectionExampleScenario.node[36].appl 	VehicleRemoved 	0
scalar IntersectionExampleScenario.node[36].appl 	ArrivedAtDest 	1
scalar IntersectionExampleScenario.node[36].appl 	IntersectionEnterTime 	107.5
scalar IntersectionExampleScenario.node[36].appl 	IntersectionExitTime 	143.25704686757
scalar IntersectionExampleScenario.node[36].appl 	NumberOfCollisions 	0
scalar IntersectionExampleScenario.node[36].nic.phy80211p 	busyTime 	0
scalar IntersectionExampleScenario.node[36].nic.mac1609_4 	ReceivedUnicastPackets 	0
scalar IntersectionExampleScenario.node[36].nic.mac1609_4 	ReceivedBroadcasts 	0
scalar IntersectionExampleScenario.node[36].nic.mac1609_4 	SentPackets 	0
scalar IntersectionExampleScenario.node[36].nic.mac1609_4 	SNIRLostPackets 	0
scalar IntersectionExampleScenario.node[36].nic.mac1609_4 	RXTXLostPackets 	0
scalar IntersectionExampleScenario.node[36].nic.mac1609_4 	TotalLostPackets 	0
scalar IntersectionExampleScenario.node[36].nic.mac1609_4 	DroppedPacketsInMac 	0
scalar IntersectionExampleScenario.node[36].nic.mac1609_4 	TooLittleTime 	0
scalar IntersectionExampleScenario.node[36].nic.mac1609_4 	TimesIntoBackoff 	0
scalar IntersectionExampleScenario.node[36].nic.mac1609_4 	SlotsBackoff 	0
scalar IntersectionExampleScenario.node[36].nic.mac1609_4 	NumInternalContention 	0
scalar IntersectionExampleScenario.node[36].nic.mac1609_4 	totalBusyTime 	0
scalar IntersectionExampleScenario.node[36].veinsmobility 	startTime 	107.5
scalar IntersectionExampleScenario.node[36].veinsmobility 	totalTime 	52.75
scalar IntersectionExampleScenario.node[36].veinsmobility 	stopTime 	160.5
scalar IntersectionExampleScenario.node[36].veinsmobility 	minSpeed 	0
scalar IntersectionExampleScenario.node[36].veinsmobility 	maxSpeed 	15.02499961853
scalar IntersectionExampleScenario.node[36].veinsmobility 	totalDistance 	544.92177601818
scalar IntersectionExampleScenario.node[36].veinsmobility 	totalCO2Emission 	138.34505423761
scalar IntersectionExampleScenario.node[38].appl 	VehicleRemoved 	0
scalar IntersectionExampleScenario.node[38].appl 	ArrivedAtDest 	1
scalar IntersectionExampleScenario.node[38].appl 	IntersectionEnterTime 	114.25
scalar IntersectionExampleScenario.node[38].appl 	IntersectionExitTime 	148.51536728462
scalar IntersectionExampleScenario.node[38].appl 	NumberOfCollisions 	0
scalar IntersectionExampleScenario.node[38].nic.phy80211p 	busyTime 	0
scalar IntersectionExampleScenario.node[38].nic.mac1609_4 	ReceivedUnicastPackets 	0
scalar IntersectionExampleScenario.node[38].nic.mac1609_4 	ReceivedBroadcasts 	0
scalar IntersectionExampleScenario.node[38].nic.mac1609_4 	SentPackets 	0
scalar IntersectionExampleScenario.node[38].nic.mac1609_4 	SNIRLostPackets 	0
scalar IntersectionExampleScenario.node[38].nic.mac1609_4 	RXTXLostPackets 	0
scalar IntersectionExampleScenario.node[38].nic.mac1609_4 	TotalLostPackets 	0
scalar IntersectionExampleScenario.node[38].nic.mac1609_4 	DroppedPacketsInMac 	0
scalar IntersectionExampleScenario.node[38].nic.mac1609_4 	TooLittleTime 	0
scalar IntersectionExampleScenario.node[38].nic.mac1609_4 	TimesIntoBackoff 	0
scalar IntersectionExampleScenario.node[38].nic.mac1609_4 	SlotsBackoff 	0
scalar IntersectionExampleScenario.node[38].nic.mac1609_4 	NumInternalContention 	0
scalar IntersectionExampleScenario.node[38].nic.mac1609_4 	totalBusyTime 	0
scalar IntersectionExampleScenario.node[38].veinsmobility 	startTime 	114.25
scalar IntersectionExampleScenario.node[38].veinsmobility 	totalTime 	51
scalar IntersectionExampleScenario.node[38].veinsmobility 	stopTime 	165.5
scalar IntersectionExampleScenario.node[38].veinsmobility 	minSpeed 	0
scalar IntersectionExampleScenario.node[38].veinsmobility 	maxSpeed 	15.875
scalar IntersectionExampleScenario.node[38].veinsmobility 	totalDistance 	546.147513403
scalar IntersectionExampleScenario.node[38].veinsmobility 	totalCO2Emission 	143.90668789864
scalar IntersectionExampleScenario.node[41].appl 	VehicleRemoved 	0
scalar IntersectionExampleScenario.node[41].appl 	ArrivedAtDest 	1
scalar IntersectionExampleScenario.node[41].appl 	IntersectionEnterTime 	136.75
scalar IntersectionExampleScenario.node[41].appl 	IntersectionExitTime 	160.01614014187
scalar IntersectionExampleScenario.node[41].appl 	NumberOfCollisions 	0
scalar IntersectionExampleScenario.node[41].nic.phy80211p 	busyTime 	0
scalar IntersectionExampleScenario.node[41].nic.mac1609_4 	ReceivedUnicastPackets 	0
scalar IntersectionExampleScenario.node[41].nic.mac1609_4 	ReceivedBroadcasts 	0
scalar IntersectionExampleScenario.node[41].nic.mac1609_4 	SentPackets 	0
scalar IntersectionExampleScenario.node[41].nic.mac1609_4 	SNIRLostPackets 	0
scalar IntersectionExampleScenario.node[41].nic.mac1609_4 	RXTXLostPackets 	0
scalar IntersectionExampleScenario.node[41].nic.mac1609_4 	TotalLostPackets 	0
scalar IntersectionExampleScenario.node[41].nic.mac1609_4 	DroppedPacketsInMac 	0
scalar IntersectionExampleScenario.node[41].nic.mac1609_4 	TooLittleTime 	0
scalar IntersectionExampleScenario.node[41].nic.mac1609_4 	TimesIntoBackoff 	0
scalar IntersectionExampleScenario.node[41].nic.mac1609_4 	SlotsBackoff 	0
scalar IntersectionExampleScenario.node[41].nic.mac1609_4 	NumInternalContention 	0
[...]
scalar IntersectionExampleScenario.node[643].veinsmobility 	totalCO2Emission 	131.93706331707
scalar IntersectionExampleScenario.node[644].appl 	VehicleRemoved 	0
scalar IntersectionExampleScenario.node[644].appl 	ArrivedAtDest 	0
scalar IntersectionExampleScenario.node[644].appl 	IntersectionEnterTime 	1762.25
scalar IntersectionExampleScenario.node[644].appl 	IntersectionExitTime 	-1
scalar IntersectionExampleScenario.node[644].appl 	NumberOfCollisions 	0
scalar IntersectionExampleScenario.node[644].nic.phy80211p 	busyTime 	0
scalar IntersectionExampleScenario.node[644].nic.mac1609_4 	ReceivedUnicastPackets 	0
scalar IntersectionExampleScenario.node[644].nic.mac1609_4 	ReceivedBroadcasts 	0
scalar IntersectionExampleScenario.node[644].nic.mac1609_4 	SentPackets 	0
scalar IntersectionExampleScenario.node[644].nic.mac1609_4 	SNIRLostPackets 	0
scalar IntersectionExampleScenario.node[644].nic.mac1609_4 	RXTXLostPackets 	0
scalar IntersectionExampleScenario.node[644].nic.mac1609_4 	TotalLostPackets 	0
scalar IntersectionExampleScenario.node[644].nic.mac1609_4 	DroppedPacketsInMac 	0
scalar IntersectionExampleScenario.node[644].nic.mac1609_4 	TooLittleTime 	0
scalar IntersectionExampleScenario.node[644].nic.mac1609_4 	TimesIntoBackoff 	0
scalar IntersectionExampleScenario.node[644].nic.mac1609_4 	SlotsBackoff 	0
scalar IntersectionExampleScenario.node[644].nic.mac1609_4 	NumInternalContention 	0
scalar IntersectionExampleScenario.node[644].nic.mac1609_4 	totalBusyTime 	0
scalar IntersectionExampleScenario.node[644].veinsmobility 	startTime 	1762.25
scalar IntersectionExampleScenario.node[644].veinsmobility 	totalTime 	37.75
scalar IntersectionExampleScenario.node[644].veinsmobility 	stopTime 	1800
scalar IntersectionExampleScenario.node[644].veinsmobility 	minSpeed 	0
scalar IntersectionExampleScenario.node[644].veinsmobility 	maxSpeed 	16.27499961853
scalar IntersectionExampleScenario.node[644].veinsmobility 	totalDistance 	287.42190551758
scalar IntersectionExampleScenario.node[644].veinsmobility 	totalCO2Emission 	82.711877533029
scalar IntersectionExampleScenario.node[645].appl 	VehicleRemoved 	0
scalar IntersectionExampleScenario.node[645].appl 	ArrivedAtDest 	0
scalar IntersectionExampleScenario.node[645].appl 	IntersectionEnterTime 	1766
scalar IntersectionExampleScenario.node[645].appl 	IntersectionExitTime 	1794.3462747078
scalar IntersectionExampleScenario.node[645].appl 	NumberOfCollisions 	0
scalar IntersectionExampleScenario.node[645].nic.phy80211p 	busyTime 	0
scalar IntersectionExampleScenario.node[645].nic.mac1609_4 	ReceivedUnicastPackets 	0
scalar IntersectionExampleScenario.node[645].nic.mac1609_4 	ReceivedBroadcasts 	0
scalar IntersectionExampleScenario.node[645].nic.mac1609_4 	SentPackets 	0
scalar IntersectionExampleScenario.node[645].nic.mac1609_4 	SNIRLostPackets 	0
scalar IntersectionExampleScenario.node[645].nic.mac1609_4 	RXTXLostPackets 	0
scalar IntersectionExampleScenario.node[645].nic.mac1609_4 	TotalLostPackets 	0
scalar IntersectionExampleScenario.node[645].nic.mac1609_4 	DroppedPacketsInMac 	0
scalar IntersectionExampleScenario.node[645].nic.mac1609_4 	TooLittleTime 	0
scalar IntersectionExampleScenario.node[645].nic.mac1609_4 	TimesIntoBackoff 	0
scalar IntersectionExampleScenario.node[645].nic.mac1609_4 	SlotsBackoff 	0
scalar IntersectionExampleScenario.node[645].nic.mac1609_4 	NumInternalContention 	0
scalar IntersectionExampleScenario.node[645].nic.mac1609_4 	totalBusyTime 	0
scalar IntersectionExampleScenario.node[645].veinsmobility 	startTime 	1766
scalar IntersectionExampleScenario.node[645].veinsmobility 	totalTime 	34
scalar IntersectionExampleScenario.node[645].veinsmobility 	stopTime 	1800
scalar IntersectionExampleScenario.node[645].veinsmobility 	minSpeed 	5.2033457756042
scalar IntersectionExampleScenario.node[645].veinsmobility 	maxSpeed 	16.89999961853
scalar IntersectionExampleScenario.node[645].veinsmobility 	totalDistance 	401.14029693604
scalar IntersectionExampleScenario.node[645].veinsmobility 	totalCO2Emission 	118.54143217691
scalar IntersectionExampleScenario.node[646].appl 	VehicleRemoved 	0
scalar IntersectionExampleScenario.node[646].appl 	ArrivedAtDest 	0
scalar IntersectionExampleScenario.node[646].appl 	IntersectionEnterTime 	1770.25
scalar IntersectionExampleScenario.node[646].appl 	IntersectionExitTime 	-1
scalar IntersectionExampleScenario.node[646].appl 	NumberOfCollisions 	0
scalar IntersectionExampleScenario.node[646].nic.phy80211p 	busyTime 	0
scalar IntersectionExampleScenario.node[646].nic.mac1609_4 	ReceivedUnicastPackets 	0
scalar IntersectionExampleScenario.node[646].nic.mac1609_4 	ReceivedBroadcasts 	0
scalar IntersectionExampleScenario.node[646].nic.mac1609_4 	SentPackets 	0
scalar IntersectionExampleScenario.node[646].nic.mac1609_4 	SNIRLostPackets 	0
scalar IntersectionExampleScenario.node[646].nic.mac1609_4 	RXTXLostPackets 	0
scalar IntersectionExampleScenario.node[646].nic.mac1609_4 	TotalLostPackets 	0
scalar IntersectionExampleScenario.node[646].nic.mac1609_4 	DroppedPacketsInMac 	0
scalar IntersectionExampleScenario.node[646].nic.mac1609_4 	TooLittleTime 	0
scalar IntersectionExampleScenario.node[646].nic.mac1609_4 	TimesIntoBackoff 	0
scalar IntersectionExampleScenario.node[646].nic.mac1609_4 	SlotsBackoff 	0
scalar IntersectionExampleScenario.node[646].nic.mac1609_4 	NumInternalContention 	0
scalar IntersectionExampleScenario.node[646].nic.mac1609_4 	totalBusyTime 	0
scalar IntersectionExampleScenario.node[646].veinsmobility 	startTime 	1770.25
scalar IntersectionExampleScenario.node[646].veinsmobility 	totalTime 	29.75
scalar IntersectionExampleScenario.node[646].veinsmobility 	stopTime 	1800
scalar IntersectionExampleScenario.node[646].veinsmobility 	minSpeed 	0
scalar IntersectionExampleScenario.node[646].veinsmobility 	maxSpeed 	16.27499961853
scalar IntersectionExampleScenario.node[646].veinsmobility 	totalDistance 	287.42190551758
scalar IntersectionExampleScenario.node[646].veinsmobility 	totalCO2Emission 	79.993234355675
scalar IntersectionExampleScenario.node[647].appl 	VehicleRemoved 	0
scalar IntersectionExampleScenario.node[647].appl 	ArrivedAtDest 	0
scalar IntersectionExampleScenario.node[647].appl 	IntersectionEnterTime 	1777.5
scalar IntersectionExampleScenario.node[647].appl 	IntersectionExitTime 	-1
scalar IntersectionExampleScenario.node[647].appl 	NumberOfCollisions 	0
scalar IntersectionExampleScenario.node[647].nic.phy80211p 	busyTime 	0
scalar IntersectionExampleScenario.node[647].nic.mac1609_4 	ReceivedUnicastPackets 	0
scalar IntersectionExampleScenario.node[647].nic.mac1609_4 	ReceivedBroadcasts 	0
scalar IntersectionExampleScenario.node[647].nic.mac1609_4 	SentPackets 	0
scalar IntersectionExampleScenario.node[647].nic.mac1609_4 	SNIRLostPackets 	0
scalar IntersectionExampleScenario.node[647].nic.mac1609_4 	RXTXLostPackets 	0
scalar IntersectionExampleScenario.node[647].nic.mac1609_4 	TotalLostPackets 	0
scalar IntersectionExampleScenario.node[647].nic.mac1609_4 	DroppedPacketsInMac 	0
scalar IntersectionExampleScenario.node[647].nic.mac1609_4 	TooLittleTime 	0
scalar IntersectionExampleScenario.node[647].nic.mac1609_4 	TimesIntoBackoff 	0
scalar IntersectionExampleScenario.node[647].nic.mac1609_4 	SlotsBackoff 	0
scalar IntersectionExampleScenario.node[647].nic.mac1609_4 	NumInternalContention 	0
scalar IntersectionExampleScenario.node[647].nic.mac1609_4 	totalBusyTime 	0
scalar IntersectionExampleScenario.node[647].veinsmobility 	startTime 	1777.5
scalar IntersectionExampleScenario.node[647].veinsmobility 	totalTime 	22.5
scalar IntersectionExampleScenario.node[647].veinsmobility 	stopTime 	1800
scalar IntersectionExampleScenario.node[647].veinsmobility 	minSpeed 	3.9305324554443
scalar IntersectionExampleScenario.node[647].veinsmobility 	maxSpeed 	15.64999961853
scalar IntersectionExampleScenario.node[647].veinsmobility 	totalDistance 	265.14166259766
scalar IntersectionExampleScenario.node[647].veinsmobility 	totalCO2Emission 	61.862819918874
scalar IntersectionExampleScenario.node[648].appl 	VehicleRemoved 	0
scalar IntersectionExampleScenario.node[648].appl 	ArrivedAtDest 	0
scalar IntersectionExampleScenario.node[648].appl 	IntersectionEnterTime 	1778.25
scalar IntersectionExampleScenario.node[648].appl 	IntersectionExitTime 	-1
scalar IntersectionExampleScenario.node[648].appl 	NumberOfCollisions 	0
scalar IntersectionExampleScenario.node[648].nic.phy80211p 	busyTime 	0
scalar IntersectionExampleScenario.node[648].nic.mac1609_4 	ReceivedUnicastPackets 	0
scalar IntersectionExampleScenario.node[648].nic.mac1609_4 	ReceivedBroadcasts 	0
scalar IntersectionExampleScenario.node[648].nic.mac1609_4 	SentPackets 	0
scalar IntersectionExampleScenario.node[648].nic.mac1609_4 	SNIRLostPackets 	0
scalar IntersectionExampleScenario.node[648].nic.mac1609_4 	RXTXLostPackets 	0
scalar IntersectionExampleScenario.node[648].nic.mac1609_4 	TotalLostPackets 	0
scalar IntersectionExampleScenario.node[648].nic.mac1609_4 	DroppedPacketsInMac 	0
scalar IntersectionExampleScenario.node[648].nic.mac1609_4 	TooLittleTime 	0
scalar IntersectionExampleScenario.node[648].nic.mac1609_4 	TimesIntoBackoff 	0
scalar IntersectionExampleScenario.node[648].nic.mac1609_4 	SlotsBackoff 	0
scalar IntersectionExampleScenario.node[648].nic.mac1609_4 	NumInternalContention 	0
scalar IntersectionExampleScenario.node[648].nic.mac1609_4 	totalBusyTime 	0
scalar IntersectionExampleScenario.node[648].veinsmobility 	startTime 	1778.25
scalar IntersectionExampleScenario.node[648].veinsmobility 	totalTime 	21.75
scalar IntersectionExampleScenario.node[648].veinsmobility 	stopTime 	1800
scalar IntersectionExampleScenario.node[648].veinsmobility 	minSpeed 	5.6500000953674
scalar IntersectionExampleScenario.node[648].veinsmobility 	maxSpeed 	16.475677490234
scalar IntersectionExampleScenario.node[648].veinsmobility 	totalDistance 	296.66285415287
scalar IntersectionExampleScenario.node[648].veinsmobility 	totalCO2Emission 	76.207757965488
scalar IntersectionExampleScenario.node[649].appl 	VehicleRemoved 	0
scalar IntersectionExampleScenario.node[649].appl 	ArrivedAtDest 	0
scalar IntersectionExampleScenario.node[649].appl 	IntersectionEnterTime 	1781.25
scalar IntersectionExampleScenario.node[649].appl 	IntersectionExitTime 	-1
scalar IntersectionExampleScenario.node[649].appl 	NumberOfCollisions 	0
scalar IntersectionExampleScenario.node[649].nic.phy80211p 	busyTime 	0
scalar IntersectionExampleScenario.node[649].nic.mac1609_4 	ReceivedUnicastPackets 	0
scalar IntersectionExampleScenario.node[649].nic.mac1609_4 	ReceivedBroadcasts 	0
scalar IntersectionExampleScenario.node[649].nic.mac1609_4 	SentPackets 	0
scalar IntersectionExampleScenario.node[649].nic.mac1609_4 	SNIRLostPackets 	0
scalar IntersectionExampleScenario.node[649].nic.mac1609_4 	RXTXLostPackets 	0
scalar IntersectionExampleScenario.node[649].nic.mac1609_4 	TotalLostPackets 	0
scalar IntersectionExampleScenario.node[649].nic.mac1609_4 	DroppedPacketsInMac 	0
scalar IntersectionExampleScenario.node[649].nic.mac1609_4 	TooLittleTime 	0
scalar IntersectionExampleScenario.node[649].nic.mac1609_4 	TimesIntoBackoff 	0
scalar IntersectionExampleScenario.node[649].nic.mac1609_4 	SlotsBackoff 	0
scalar IntersectionExampleScenario.node[649].nic.mac1609_4 	NumInternalContention 	0
scalar IntersectionExampleScenario.node[649].nic.mac1609_4 	totalBusyTime 	0
scalar IntersectionExampleScenario.node[649].veinsmobility 	startTime 	1781.25
scalar IntersectionExampleScenario.node[649].veinsmobility 	totalTime 	18.75
scalar IntersectionExampleScenario.node[649].veinsmobility 	stopTime 	1800
scalar IntersectionExampleScenario.node[649].veinsmobility 	minSpeed 	5.6500000953674
scalar IntersectionExampleScenario.node[649].veinsmobility 	maxSpeed 	15.02499961853
scalar IntersectionExampleScenario.node[649].veinsmobility 	totalDistance 	240.9482421875
scalar IntersectionExampleScenario.node[649].veinsmobility 	totalCO2Emission 	55.807859356396
scalar IntersectionExampleScenario.node[650].appl 	VehicleRemoved 	0
scalar IntersectionExampleScenario.node[650].appl 	ArrivedAtDest 	0
scalar IntersectionExampleScenario.node[650].appl 	IntersectionEnterTime 	1782
scalar IntersectionExampleScenario.node[650].appl 	IntersectionExitTime 	-1
scalar IntersectionExampleScenario.node[650].appl 	NumberOfCollisions 	0
scalar IntersectionExampleScenario.node[650].nic.phy80211p 	busyTime 	0
scalar IntersectionExampleScenario.node[650].nic.mac1609_4 	ReceivedUnicastPackets 	0
scalar IntersectionExampleScenario.node[650].nic.mac1609_4 	ReceivedBroadcasts 	0
scalar IntersectionExampleScenario.node[650].nic.mac1609_4 	SentPackets 	0
scalar IntersectionExampleScenario.node[650].nic.mac1609_4 	SNIRLostPackets 	0
scalar IntersectionExampleScenario.node[650].nic.mac1609_4 	RXTXLostPackets 	0
scalar IntersectionExampleScenario.node[650].nic.mac1609_4 	TotalLostPackets 	0
scalar IntersectionExampleScenario.node[650].nic.mac1609_4 	DroppedPacketsInMac 	0
scalar IntersectionExampleScenario.node[650].nic.mac1609_4 	TooLittleTime 	0
scalar IntersectionExampleScenario.node[650].nic.mac1609_4 	TimesIntoBackoff 	0
scalar IntersectionExampleScenario.node[650].nic.mac1609_4 	SlotsBackoff 	0
scalar IntersectionExampleScenario.node[650].nic.mac1609_4 	NumInternalContention 	0
scalar IntersectionExampleScenario.node[650].nic.mac1609_4 	totalBusyTime 	0
scalar IntersectionExampleScenario.node[650].veinsmobility 	startTime 	1782
scalar IntersectionExampleScenario.node[650].veinsmobility 	totalTime 	18
scalar IntersectionExampleScenario.node[650].veinsmobility 	stopTime 	1800
scalar IntersectionExampleScenario.node[650].veinsmobility 	minSpeed 	5.6500000953674
scalar IntersectionExampleScenario.node[650].veinsmobility 	maxSpeed 	15.02499961853
scalar IntersectionExampleScenario.node[650].veinsmobility 	totalDistance 	248.72202301025
scalar IntersectionExampleScenario.node[650].veinsmobility 	totalCO2Emission 	60.105652346392
scalar IntersectionExampleScenario.node[651].appl 	VehicleRemoved 	0
scalar IntersectionExampleScenario.node[651].appl 	ArrivedAtDest 	0
scalar IntersectionExampleScenario.node[651].appl 	IntersectionEnterTime 	1783.75
scalar IntersectionExampleScenario.node[651].appl 	IntersectionExitTime 	-1
scalar IntersectionExampleScenario.node[651].appl 	NumberOfCollisions 	0
scalar IntersectionExampleScenario.node[651].nic.phy80211p 	busyTime 	0
scalar IntersectionExampleScenario.node[651].nic.mac1609_4 	ReceivedUnicastPackets 	0
scalar IntersectionExampleScenario.node[651].nic.mac1609_4 	ReceivedBroadcasts 	0
scalar IntersectionExampleScenario.node[651].nic.mac1609_4 	SentPackets 	0
scalar IntersectionExampleScenario.node[651].nic.mac1609_4 	SNIRLostPackets 	0
scalar IntersectionExampleScenario.node[651].nic.mac1609_4 	RXTXLostPackets 	0
scalar IntersectionExampleScenario.node[651].nic.mac1609_4 	TotalLostPackets 	0
scalar IntersectionExampleScenario.node[651].nic.mac1609_4 	DroppedPacketsInMac 	0
scalar IntersectionExampleScenario.node[651].nic.mac1609_4 	TooLittleTime 	0
scalar IntersectionExampleScenario.node[651].nic.mac1609_4 	TimesIntoBackoff 	0
scalar IntersectionExampleScenario.node[651].nic.mac1609_4 	SlotsBackoff 	0
scalar IntersectionExampleScenario.node[651].nic.mac1609_4 	NumInternalContention 	0
scalar IntersectionExampleScenario.node[651].nic.mac1609_4 	totalBusyTime 	0
scalar IntersectionExampleScenario.node[651].veinsmobility 	startTime 	1783.75
scalar IntersectionExampleScenario.node[651].veinsmobility 	totalTime 	16.25
scalar IntersectionExampleScenario.node[651].veinsmobility 	stopTime 	1800
scalar IntersectionExampleScenario.node[651].veinsmobility 	minSpeed 	5.6500000953674
scalar IntersectionExampleScenario.node[651].veinsmobility 	maxSpeed 	15.649395942688
scalar IntersectionExampleScenario.node[651].veinsmobility 	totalDistance 	230.83275604248
scalar IntersectionExampleScenario.node[651].veinsmobility 	totalCO2Emission 	59.920193496125
scalar IntersectionExampleScenario.node[652].appl 	VehicleRemoved 	0
scalar IntersectionExampleScenario.node[652].appl 	ArrivedAtDest 	0
scalar IntersectionExampleScenario.node[652].appl 	IntersectionEnterTime 	1787.25
scalar IntersectionExampleScenario.node[652].appl 	IntersectionExitTime 	-1
scalar IntersectionExampleScenario.node[652].appl 	NumberOfCollisions 	0
scalar IntersectionExampleScenario.node[652].nic.phy80211p 	busyTime 	0
scalar IntersectionExampleScenario.node[652].nic.mac1609_4 	ReceivedUnicastPackets 	0
scalar IntersectionExampleScenario.node[652].nic.mac1609_4 	ReceivedBroadcasts 	0
scalar IntersectionExampleScenario.node[652].nic.mac1609_4 	SentPackets 	0
scalar IntersectionExampleScenario.node[652].nic.mac1609_4 	SNIRLostPackets 	0
scalar IntersectionExampleScenario.node[652].nic.mac1609_4 	RXTXLostPackets 	0
scalar IntersectionExampleScenario.node[652].nic.mac1609_4 	TotalLostPackets 	0
scalar IntersectionExampleScenario.node[652].nic.mac1609_4 	DroppedPacketsInMac 	0
scalar IntersectionExampleScenario.node[652].nic.mac1609_4 	TooLittleTime 	0
scalar IntersectionExampleScenario.node[652].nic.mac1609_4 	TimesIntoBackoff 	0
scalar IntersectionExampleScenario.node[652].nic.mac1609_4 	SlotsBackoff 	0
scalar IntersectionExampleScenario.node[652].nic.mac1609_4 	NumInternalContention 	0
scalar IntersectionExampleScenario.node[652].nic.mac1609_4 	totalBusyTime 	0
scalar IntersectionExampleScenario.node[652].veinsmobility 	startTime 	1787.25
scalar IntersectionExampleScenario.node[652].veinsmobility 	totalTime 	12.75
scalar IntersectionExampleScenario.node[652].veinsmobility 	stopTime 	1800
scalar IntersectionExampleScenario.node[652].veinsmobility 	minSpeed 	5.6500000953674
scalar IntersectionExampleScenario.node[652].veinsmobility 	maxSpeed 	15.02499961853
scalar IntersectionExampleScenario.node[652].veinsmobility 	totalDistance 	170.69360351562
scalar IntersectionExampleScenario.node[652].veinsmobility 	totalCO2Emission 	48.75235131811
scalar IntersectionExampleScenario.node[653].appl 	VehicleRemoved 	0
scalar IntersectionExampleScenario.node[653].appl 	ArrivedAtDest 	0
scalar IntersectionExampleScenario.node[653].appl 	IntersectionEnterTime 	1799.5
scalar IntersectionExampleScenario.node[653].appl 	IntersectionExitTime 	-1
scalar IntersectionExampleScenario.node[653].appl 	NumberOfCollisions 	0
scalar IntersectionExampleScenario.node[653].nic.phy80211p 	busyTime 	0
scalar IntersectionExampleScenario.node[653].nic.mac1609_4 	ReceivedUnicastPackets 	0
scalar IntersectionExampleScenario.node[653].nic.mac1609_4 	ReceivedBroadcasts 	0
scalar IntersectionExampleScenario.node[653].nic.mac1609_4 	SentPackets 	0
scalar IntersectionExampleScenario.node[653].nic.mac1609_4 	SNIRLostPackets 	0
scalar IntersectionExampleScenario.node[653].nic.mac1609_4 	RXTXLostPackets 	0
scalar IntersectionExampleScenario.node[653].nic.mac1609_4 	TotalLostPackets 	0
scalar IntersectionExampleScenario.node[653].nic.mac1609_4 	DroppedPacketsInMac 	0
scalar IntersectionExampleScenario.node[653].nic.mac1609_4 	TooLittleTime 	0
scalar IntersectionExampleScenario.node[653].nic.mac1609_4 	TimesIntoBackoff 	0
scalar IntersectionExampleScenario.node[653].nic.mac1609_4 	SlotsBackoff 	0
scalar IntersectionExampleScenario.node[653].nic.mac1609_4 	NumInternalContention 	0
scalar IntersectionExampleScenario.node[653].nic.mac1609_4 	totalBusyTime 	0
scalar IntersectionExampleScenario.node[653].veinsmobility 	startTime 	1799.5
scalar IntersectionExampleScenario.node[653].veinsmobility 	totalTime 	0.5
scalar IntersectionExampleScenario.node[653].veinsmobility 	stopTime 	1800
scalar IntersectionExampleScenario.node[653].veinsmobility 	minSpeed 	5.6500000953674
scalar IntersectionExampleScenario.node[653].veinsmobility 	maxSpeed 	6.2750000953674
scalar IntersectionExampleScenario.node[653].veinsmobility 	totalDistance 	2.8250122070312
scalar IntersectionExampleScenario.node[653].veinsmobility 	totalCO2Emission 	1.3040546814646
