file 28455893 1591395963                                        
version 2
run nodebug-1-20200605-18:21:30-18076
attr configname nodebug
attr datetime 20200605-18:21:30
attr experiment nodebug
attr inifile omnetpp.ini
attr iterationvars ""
attr iterationvars2 $repetition=1
attr measurement ""
attr network "\"org.car2x.veins.modules.application.ExtTraCIScenarioManagerLaunchd.IntersectionExampleScenario\""
attr processid 18076
attr repetition 1
attr replication #1
attr resultdir results
attr runnumber 1
attr seedset 1
param **.coreDebug false
param **.debug false
param *.**.nic.mac1609_4.bitrate 18Mbps
param *.**.nic.mac1609_4.txPower 20mW
param *.**.nic.mac1609_4.useServiceChannel false
param *.**.nic.phy80211p.analogueModels "xmldoc(\"config.xml\")"
param *.**.nic.phy80211p.decider "xmldoc(\"config.xml\")"
param *.**.nic.phy80211p.sensitivity -89dBm
param *.**.nic.phy80211p.thermalNoise -110dBm
param *.**.nic.phy80211p.usePropagationDelay true
param *.**.nic.phy80211p.useThermalNoise true
param *.annotations.draw false
param *.connectionManager.alpha 2.0
param *.connectionManager.carrierFrequency "5.890e9 Hz"
param *.connectionManager.pMax 20mW
param *.connectionManager.sat -89dBm
param *.connectionManager.sendDirect true
param *.manager.autoShutdown true
param *.manager.host "\"localhost\""
param *.manager.launchConfig "xmldoc(\"paramics.launchd.xml\")"
param *.manager.margin 25
param *.manager.moduleDisplayString "\"\""
param *.manager.moduleName "\"node\""
param *.manager.moduleType "\"org.car2x.veins.nodes.Car\""
param *.manager.port 9999
param *.manager.updateInterval 250ms
param *.node[*0].veinsmobility.accidentCount 0
param *.node[*0].veinsmobility.accidentDuration 30s
param *.node[*0].veinsmobility.accidentStart 75s
param *.node[*].appl.LiderSelectZoneRadio 55.0
param *.node[*].appl.ShareDataZoneRadio 110.0
param *.node[*].appl.TiempoSemaforo 30.0
param *.node[*].appl.beaconInterval 1s
param *.node[*].appl.beaconPriority 3
param *.node[*].appl.dataOnSch false
param *.node[*].appl.dataPriority 2
param *.node[*].appl.debug false
param *.node[*].appl.headerLength "256 bit"
param *.node[*].appl.maxOffset 0.005s
param *.node[*].appl.sendBeacons false
param *.node[*].appl.sendData true
param *.node[*].applType "\"Dummy\""
param *.node[*].mobilityType "\"TraCIMobility\""
param *.node[*].mobilityType.debug true
param *.node[*].veinsmobility.x 0
param *.node[*].veinsmobility.y 0
param *.node[*].veinsmobility.z 1.895
param *.node[*].veinsmobilityType "\"org.car2x.veins.modules.mobility.traci.TraCIMobility\""
param *.node[*].veinsmobilityType.debug true
param *.playgroundSizeX 8500m
param *.playgroundSizeY 8500m
param *.playgroundSizeZ 50m
param *.world.use2D false
param *.world.useTorus false

vector 4447  IntersectionExampleScenario.manager  vehiclesinsim  ETV
attr type  int
vector 4448  IntersectionExampleScenario.manager  realtime  ETV
attr type  int
attr unit  s
vector 4451  IntersectionExampleScenario.node[0].veinsmobility  posx  ETV
vector 4452  IntersectionExampleScenario.node[0].veinsmobility  posy  ETV
vector 4453  IntersectionExampleScenario.node[0].veinsmobility  speed  ETV
vector 4454  IntersectionExampleScenario.node[0].veinsmobility  acceleration  ETV
vector 4455  IntersectionExampleScenario.node[0].veinsmobility  co2emission  ETV
vector 4458  IntersectionExampleScenario.node[1].veinsmobility  posx  ETV
vector 4459  IntersectionExampleScenario.node[1].veinsmobility  posy  ETV
vector 4465  IntersectionExampleScenario.node[2].veinsmobility  posx  ETV
vector 4466  IntersectionExampleScenario.node[2].veinsmobility  posy  ETV
vector 4460  IntersectionExampleScenario.node[1].veinsmobility  speed  ETV
vector 4467  IntersectionExampleScenario.node[2].veinsmobility  speed  ETV
vector 4461  IntersectionExampleScenario.node[1].veinsmobility  acceleration  ETV
vector 4462  IntersectionExampleScenario.node[1].veinsmobility  co2emission  ETV
vector 4468  IntersectionExampleScenario.node[2].veinsmobility  acceleration  ETV
vector 4469  IntersectionExampleScenario.node[2].veinsmobility  co2emission  ETV
vector 4472  IntersectionExampleScenario.node[3].veinsmobility  posx  ETV
vector 4473  IntersectionExampleScenario.node[3].veinsmobility  posy  ETV
vector 4474  IntersectionExampleScenario.node[3].veinsmobility  speed  ETV
vector 4475  IntersectionExampleScenario.node[3].veinsmobility  acceleration  ETV
vector 4476  IntersectionExampleScenario.node[3].veinsmobility  co2emission  ETV
vector 4479  IntersectionExampleScenario.node[4].veinsmobility  posx  ETV
vector 4480  IntersectionExampleScenario.node[4].veinsmobility  posy  ETV
vector 4481  IntersectionExampleScenario.node[4].veinsmobility  speed  ETV
vector 4486  IntersectionExampleScenario.node[5].veinsmobility  posx  ETV
vector 4487  IntersectionExampleScenario.node[5].veinsmobility  posy  ETV
vector 4482  IntersectionExampleScenario.node[4].veinsmobility  acceleration  ETV
vector 4483  IntersectionExampleScenario.node[4].veinsmobility  co2emission  ETV
vector 4488  IntersectionExampleScenario.node[5].veinsmobility  speed  ETV
vector 4489  IntersectionExampleScenario.node[5].veinsmobility  acceleration  ETV
vector 4490  IntersectionExampleScenario.node[5].veinsmobility  co2emission  ETV
vector 4493  IntersectionExampleScenario.node[6].veinsmobility  posx  ETV
vector 4494  IntersectionExampleScenario.node[6].veinsmobility  posy  ETV
vector 4495  IntersectionExampleScenario.node[6].veinsmobility  speed  ETV
vector 4496  IntersectionExampleScenario.node[6].veinsmobility  acceleration  ETV
vector 4497  IntersectionExampleScenario.node[6].veinsmobility  co2emission  ETV
vector 4500  IntersectionExampleScenario.node[7].veinsmobility  posx  ETV
vector 4501  IntersectionExampleScenario.node[7].veinsmobility  posy  ETV
vector 4502  IntersectionExampleScenario.node[7].veinsmobility  speed  ETV
vector 4503  IntersectionExampleScenario.node[7].veinsmobility  acceleration  ETV
vector 4504  IntersectionExampleScenario.node[7].veinsmobility  co2emission  ETV
vector 4507  IntersectionExampleScenario.node[8].veinsmobility  posx  ETV
vector 4508  IntersectionExampleScenario.node[8].veinsmobility  posy  ETV
vector 4509  IntersectionExampleScenario.node[8].veinsmobility  speed  ETV
vector 4510  IntersectionExampleScenario.node[8].veinsmobility  acceleration  ETV
vector 4511  IntersectionExampleScenario.node[8].veinsmobility  co2emission  ETV
vector 4514  IntersectionExampleScenario.node[9].veinsmobility  posx  ETV
vector 4515  IntersectionExampleScenario.node[9].veinsmobility  posy  ETV
vector 4516  IntersectionExampleScenario.node[9].veinsmobility  speed  ETV
vector 4517  IntersectionExampleScenario.node[9].veinsmobility  acceleration  ETV
vector 4518  IntersectionExampleScenario.node[9].veinsmobility  co2emission  ETV
vector 4521  IntersectionExampleScenario.node[10].veinsmobility  posx  ETV
vector 4522  IntersectionExampleScenario.node[10].veinsmobility  posy  ETV
vector 4523  IntersectionExampleScenario.node[10].veinsmobility  speed  ETV
vector 4524  IntersectionExampleScenario.node[10].veinsmobility  acceleration  ETV
vector 4525  IntersectionExampleScenario.node[10].veinsmobility  co2emission  ETV
vector 4528  IntersectionExampleScenario.node[11].veinsmobility  posx  ETV
vector 4529  IntersectionExampleScenario.node[11].veinsmobility  posy  ETV
vector 4530  IntersectionExampleScenario.node[11].veinsmobility  speed  ETV
vector 4535  IntersectionExampleScenario.node[12].veinsmobility  posx  ETV
vector 4536  IntersectionExampleScenario.node[12].veinsmobility  posy  ETV
vector 4531  IntersectionExampleScenario.node[11].veinsmobility  acceleration  ETV
vector 4532  IntersectionExampleScenario.node[11].veinsmobility  co2emission  ETV
vector 4537  IntersectionExampleScenario.node[12].veinsmobility  speed  ETV
vector 4538  IntersectionExampleScenario.node[12].veinsmobility  acceleration  ETV
vector 4539  IntersectionExampleScenario.node[12].veinsmobility  co2emission  ETV
vector 4542  IntersectionExampleScenario.node[13].veinsmobility  posx  ETV
vector 4543  IntersectionExampleScenario.node[13].veinsmobility  posy  ETV
vector 4549  IntersectionExampleScenario.node[14].veinsmobility  posx  ETV
vector 4550  IntersectionExampleScenario.node[14].veinsmobility  posy  ETV
vector 4544  IntersectionExampleScenario.node[13].veinsmobility  speed  ETV
vector 4551  IntersectionExampleScenario.node[14].veinsmobility  speed  ETV
vector 4556  IntersectionExampleScenario.node[15].veinsmobility  posx  ETV
vector 4557  IntersectionExampleScenario.node[15].veinsmobility  posy  ETV
vector 4545  IntersectionExampleScenario.node[13].veinsmobility  acceleration  ETV
vector 4546  IntersectionExampleScenario.node[13].veinsmobility  co2emission  ETV
vector 4552  IntersectionExampleScenario.node[14].veinsmobility  acceleration  ETV
vector 4553  IntersectionExampleScenario.node[14].veinsmobility  co2emission  ETV
vector 4563  IntersectionExampleScenario.node[16].veinsmobility  posx  ETV
vector 4564  IntersectionExampleScenario.node[16].veinsmobility  posy  ETV
vector 4558  IntersectionExampleScenario.node[15].veinsmobility  speed  ETV
vector 4559  IntersectionExampleScenario.node[15].veinsmobility  acceleration  ETV
vector 4560  IntersectionExampleScenario.node[15].veinsmobility  co2emission  ETV
vector 4565  IntersectionExampleScenario.node[16].veinsmobility  speed  ETV
vector 4566  IntersectionExampleScenario.node[16].veinsmobility  acceleration  ETV
vector 4567  IntersectionExampleScenario.node[16].veinsmobility  co2emission  ETV
vector 4570  IntersectionExampleScenario.node[17].veinsmobility  posx  ETV
vector 4571  IntersectionExampleScenario.node[17].veinsmobility  posy  ETV
vector 4572  IntersectionExampleScenario.node[17].veinsmobility  speed  ETV
vector 4577  IntersectionExampleScenario.node[18].veinsmobility  posx  ETV
vector 4578  IntersectionExampleScenario.node[18].veinsmobility  posy  ETV
vector 4573  IntersectionExampleScenario.node[17].veinsmobility  acceleration  ETV
vector 4574  IntersectionExampleScenario.node[17].veinsmobility  co2emission  ETV
vector 4579  IntersectionExampleScenario.node[18].veinsmobility  speed  ETV
vector 4580  IntersectionExampleScenario.node[18].veinsmobility  acceleration  ETV
vector 4581  IntersectionExampleScenario.node[18].veinsmobility  co2emission  ETV
vector 4584  IntersectionExampleScenario.node[19].veinsmobility  posx  ETV
vector 4585  IntersectionExampleScenario.node[19].veinsmobility  posy  ETV
vector 4586  IntersectionExampleScenario.node[19].veinsmobility  speed  ETV
vector 4587  IntersectionExampleScenario.node[19].veinsmobility  acceleration  ETV
vector 4588  IntersectionExampleScenario.node[19].veinsmobility  co2emission  ETV
4476	10798 4777 189 3652 23 61.5 155 0.973 11.648172402475 488.45839696383 2663.7496184103
4475	15575 4391 189 3652 23 61.5 155 -3.4557609558105 2.5 38.341367721558 221.57355553972
4474	19966 4703 180 3652 22.75 61.5 156 5.6500000953674 15.64999961853 2221.6022872925 32277.001887947
4473	24669 4935 171 3652 22.5 61.5 157 184.17810058594 734.3323059082 70516.105331421 35834687.520328
4472	29604 4965 171 3652 22.5 61.5 157 486.85000610352 486.85000610352 76435.450958252 37212599.76555
4455	34569 6152 67 4693 15.5 69.5 217 0.973 11.450879080643 578.74364826173 2838.0017806787
4454	40721 5550 67 4693 15.5 69.5 217 -8.4870233535767 4 37.15309715271 481.82412368335
4453	46271 5947 64 4693 15.25 69.5 218 0 15.375 2210.4978749752 30840.213807405
4452	52218 6905 61 4693 15 69.5 219 483.14999389648 483.14999389648 105809.84866333 51122027.735876
4451	59123 6879 61 4693 15 69.5 219 184.17810058594 733.24285888672 99654.285415649 49570071.439002
vector 4591  IntersectionExampleScenario.node[20].veinsmobility  posx  ETV
vector 4592  IntersectionExampleScenario.node[20].veinsmobility  posy  ETV
vector 4593  IntersectionExampleScenario.node[20].veinsmobility  speed  ETV
vector 4594  IntersectionExampleScenario.node[20].veinsmobility  acceleration  ETV
vector 4595  IntersectionExampleScenario.node[20].veinsmobility  co2emission  ETV
4469	66398 5668 150 4820 21.75 70.5 196 0.973 11.810082123732 569.4579198264 2961.2870405211
4468	72066 5816 150 4820 21.75 70.5 196 -3.8619692325592 2.5000001192093 40.548154830933 360.32974215647
4467	77882 5915 143 4820 21.5 70.5 197 0 15.875 2186.7083275951 30214.114702884
4466	83797 6266 136 4820 21.25 70.5 198 236.4326171875 483.14999389648 87710.37487793 39836013.330097
4465	90063 6246 136 4820 21.25 70.5 198 184.17810058594 483.18728637695 80975.891601562 34955416.329205
vector 4598  IntersectionExampleScenario.node[21].veinsmobility  posx  ETV
vector 4599  IntersectionExampleScenario.node[21].veinsmobility  posy  ETV
vector 4600  IntersectionExampleScenario.node[21].veinsmobility  speed  ETV
vector 4601  IntersectionExampleScenario.node[21].veinsmobility  acceleration  ETV
vector 4602  IntersectionExampleScenario.node[21].veinsmobility  co2emission  ETV
vector 4605  IntersectionExampleScenario.node[22].veinsmobility  posx  ETV
vector 4606  IntersectionExampleScenario.node[22].veinsmobility  posy  ETV
vector 4607  IntersectionExampleScenario.node[22].veinsmobility  speed  ETV
vector 4612  IntersectionExampleScenario.node[23].veinsmobility  posx  ETV
vector 4613  IntersectionExampleScenario.node[23].veinsmobility  posy  ETV
vector 4608  IntersectionExampleScenario.node[22].veinsmobility  acceleration  ETV
vector 4609  IntersectionExampleScenario.node[22].veinsmobility  co2emission  ETV
4483	97253 6033 283 5686 25.5 77.75 210 0.973 11.36141391502 561.83076973841 2760.6876278114
4482	103286 5655 283 5686 25.5 77.75 210 -8.6810245513916 4 36.134572982788 473.1830623113
4481	108941 5832 272 5686 25.25 77.75 211 0 15.25 2178.0970487595 29705.218555888
4480	114773 6721 261 5686 25 77.75 212 486.63604736328 785.82187652588 117929.35630035 67569447.332028
4479	121494 6670 261 5686 25 77.75 212 236.32275390625 483.14999389648 93923.679443359 42667624.306611
vector 4619  IntersectionExampleScenario.node[24].veinsmobility  posx  ETV
vector 4620  IntersectionExampleScenario.node[24].veinsmobility  posy  ETV
vector 4614  IntersectionExampleScenario.node[23].veinsmobility  speed  ETV
vector 4626  IntersectionExampleScenario.node[25].veinsmobility  posx  ETV
vector 4627  IntersectionExampleScenario.node[25].veinsmobility  posy  ETV
vector 4615  IntersectionExampleScenario.node[23].veinsmobility  acceleration  ETV
vector 4616  IntersectionExampleScenario.node[23].veinsmobility  co2emission  ETV
vector 4621  IntersectionExampleScenario.node[24].veinsmobility  speed  ETV
vector 4622  IntersectionExampleScenario.node[24].veinsmobility  acceleration  ETV
vector 4623  IntersectionExampleScenario.node[24].veinsmobility  co2emission  ETV
vector 4628  IntersectionExampleScenario.node[25].veinsmobility  speed  ETV
vector 4629  IntersectionExampleScenario.node[25].veinsmobility  acceleration  ETV
vector 4630  IntersectionExampleScenario.node[25].veinsmobility  co2emission  ETV
vector 4633  IntersectionExampleScenario.node[26].veinsmobility  posx  ETV
vector 4634  IntersectionExampleScenario.node[26].veinsmobility  posy  ETV
vector 4635  IntersectionExampleScenario.node[26].veinsmobility  speed  ETV
vector 4636  IntersectionExampleScenario.node[26].veinsmobility  acceleration  ETV
vector 4637  IntersectionExampleScenario.node[26].veinsmobility  co2emission  ETV
vector 4640  IntersectionExampleScenario.node[27].veinsmobility  posx  ETV
vector 4641  IntersectionExampleScenario.node[27].veinsmobility  posy  ETV
vector 4642  IntersectionExampleScenario.node[27].veinsmobility  speed  ETV
vector 4643  IntersectionExampleScenario.node[27].veinsmobility  acceleration  ETV
vector 4644  IntersectionExampleScenario.node[27].veinsmobility  co2emission  ETV
vector 4647  IntersectionExampleScenario.node[28].veinsmobility  posx  ETV
vector 4648  IntersectionExampleScenario.node[28].veinsmobility  posy  ETV
vector 4649  IntersectionExampleScenario.node[28].veinsmobility  speed  ETV
vector 4650  IntersectionExampleScenario.node[28].veinsmobility  acceleration  ETV
vector 4651  IntersectionExampleScenario.node[28].veinsmobility  co2emission  ETV
4462	130388 6803 150 6527 21.75 83.5 248 0.973 12.26218747632 646.33979543508 3393.929256848
4461	137191 6008 150 6527 21.75 83.5 248 -29.514183044434 4 41.736440658569 1257.2602571191
4460	143199 6252 143 6527 21.5 83.5 249 0 16.5 2174.3658971786 32311.876017074
4459	149451 7860 136 6527 21.25 83.5 250 486.85000610352 732.408203125 129444.26371765 68043887.329375
4458	157311 7930 136 6527 21.25 83.5 250 486.63604736328 785.82187652588 136189.33850861 76215312.260377
vector 4654  IntersectionExampleScenario.node[29].veinsmobility  posx  ETV
vector 4655  IntersectionExampleScenario.node[29].veinsmobility  posy  ETV
4490	165393 7125 309 6929 26 86.25 242 0.973 12.099024792222 622.76123157102 3188.5142228436
4489	172518 7497 309 6929 26 86.25 242 -3.8470187187195 2.5 40.038900375366 383.28071958991
4488	180015 7433 296 6929 25.75 86.25 243 0 16.27499961853 2198.11971022 30389.951386527
4487	187448 7752 283 6929 25.5 86.25 244 486.85000610352 732.05824279785 126706.65715027 66828452.369583
4486	195200 7743 283 6929 25.5 86.25 244 486.84655761719 790.18281555176 134594.20670319 76269464.839863
vector 4656  IntersectionExampleScenario.node[29].veinsmobility  speed  ETV
vector 4657  IntersectionExampleScenario.node[29].veinsmobility  acceleration  ETV
vector 4658  IntersectionExampleScenario.node[29].veinsmobility  co2emission  ETV
vector 4661  IntersectionExampleScenario.node[30].veinsmobility  posx  ETV
vector 4662  IntersectionExampleScenario.node[30].veinsmobility  posy  ETV
vector 4668  IntersectionExampleScenario.node[31].veinsmobility  posx  ETV
vector 4669  IntersectionExampleScenario.node[31].veinsmobility  posy  ETV
vector 4675  IntersectionExampleScenario.node[32].veinsmobility  posx  ETV
vector 4676  IntersectionExampleScenario.node[32].veinsmobility  posy  ETV
vector 4663  IntersectionExampleScenario.node[30].veinsmobility  speed  ETV
vector 4670  IntersectionExampleScenario.node[31].veinsmobility  speed  ETV
vector 4664  IntersectionExampleScenario.node[30].veinsmobility  acceleration  ETV
vector 4665  IntersectionExampleScenario.node[30].veinsmobility  co2emission  ETV
vector 4671  IntersectionExampleScenario.node[31].veinsmobility  acceleration  ETV
vector 4672  IntersectionExampleScenario.node[31].veinsmobility  co2emission  ETV
vector 4677  IntersectionExampleScenario.node[32].veinsmobility  speed  ETV
vector 4678  IntersectionExampleScenario.node[32].veinsmobility  acceleration  ETV
vector 4679  IntersectionExampleScenario.node[32].veinsmobility  co2emission  ETV
vector 4682  IntersectionExampleScenario.node[33].veinsmobility  posx  ETV
vector 4683  IntersectionExampleScenario.node[33].veinsmobility  posy  ETV
vector 4684  IntersectionExampleScenario.node[33].veinsmobility  speed  ETV
vector 4689  IntersectionExampleScenario.node[34].veinsmobility  posx  ETV
vector 4690  IntersectionExampleScenario.node[34].veinsmobility  posy  ETV
vector 4685  IntersectionExampleScenario.node[33].veinsmobility  acceleration  ETV
vector 4686  IntersectionExampleScenario.node[33].veinsmobility  co2emission  ETV
4497	204923 6681 599 7360 31.5 89 231 0.97223939240464 11.810082123732 591.79663879786 3008.8886489029
4496	211604 7002 599 7360 31.5 89 231 -3.9600868225098 2.5 38.680875778198 337.47795003351
4495	218606 7071 584 7360 31.25 89 232 0 15.875 2191.7602977604 28238.188624396
4494	225677 7423 569 7360 31 89 233 486.85000610352 734.92575073242 121686.95762634 64621275.237059
4493	233100 7418 569 7360 31 89 233 486.85000610352 785.82187652588 129952.28957367 74364964.679911
vector 4691  IntersectionExampleScenario.node[34].veinsmobility  speed  ETV
vector 4692  IntersectionExampleScenario.node[34].veinsmobility  acceleration  ETV
vector 4693  IntersectionExampleScenario.node[34].veinsmobility  co2emission  ETV
vector 4696  IntersectionExampleScenario.node[35].veinsmobility  posx  ETV
vector 4697  IntersectionExampleScenario.node[35].veinsmobility  posy  ETV
vector 4698  IntersectionExampleScenario.node[35].veinsmobility  speed  ETV
4504	240991 6883 648 7663 32.25 90.75 235 0.973 11.108006925875 588.80606727092 2641.468350948
4503	247874 7143 648 7663 32.25 90.75 235 -4.5 2.5 35.964826583862 394.60952840535
4502	255017 7332 631 7663 32 90.75 236 0 14.894940376282 2299.5889625251 29390.650786531
4501	262349 7563 614 7663 31.75 90.75 237 486.85000610352 486.85000610352 115383.45144653 56174434.040989
4500	269912 7546 614 7663 31.75 90.75 237 238.49371337891 808.82032012939 126314.17127228 72116947.623857
vector 4699  IntersectionExampleScenario.node[35].veinsmobility  acceleration  ETV
vector 4700  IntersectionExampleScenario.node[35].veinsmobility  co2emission  ETV
4511	277625 6701 890 8286 35.75 94.25 235 0.973 11.00486315618 578.04336423685 2600.6429680329
4510	284326 6025 890 8286 35.75 94.25 235 -7.0648307800293 4 34.77654838562 441.23046189658
4509	290351 6457 871 8286 35.5 94.25 236 0 14.75 2218.4234807491 29887.652291573
4508	296808 7540 852 8286 35.25 94.25 237 184.17810058594 735.3327331543 108325.60476685 53909938.195844
4507	304348 7577 852 8286 35.25 94.25 237 486.85000610352 486.85000610352 115383.45144653 56174434.040989
4532	311925 5481 1999 8451 48.75 95.25 187 0.973 11.648172402475 546.03498927451 2902.9589647992
4531	317406 5392 1999 8451 48.75 95.25 187 -3.1862964630127 2.5 38.341367721558 315.7861588961
4530	322798 5708 1976 8451 48.5 95.25 188 2.4941158294678 15.64999961853 2185.4421129227 28964.947340087
4529	328506 6019 1953 8451 48.25 95.25 189 184.17810058594 483.14999389648 76363.981079102 32652182.002012
4528	334525 6040 1953 8451 48.25 95.25 189 486.85000610352 733.10130310059 100198.19160461 54104920.253294
vector 4703  IntersectionExampleScenario.node[36].veinsmobility  posx  ETV
vector 4704  IntersectionExampleScenario.node[36].veinsmobility  posy  ETV
vector 4705  IntersectionExampleScenario.node[36].veinsmobility  speed  ETV
vector 4706  IntersectionExampleScenario.node[36].veinsmobility  acceleration  ETV
vector 4707  IntersectionExampleScenario.node[36].veinsmobility  co2emission  ETV
vector 4710  IntersectionExampleScenario.node[37].veinsmobility  posx  ETV
vector 4711  IntersectionExampleScenario.node[37].veinsmobility  posy  ETV
vector 4712  IntersectionExampleScenario.node[37].veinsmobility  speed  ETV
vector 4713  IntersectionExampleScenario.node[37].veinsmobility  acceleration  ETV
vector 4714  IntersectionExampleScenario.node[37].veinsmobility  co2emission  ETV
4588	341357 4865 3449 9253 60 100 161 0.973 11.709804909635 541.75279935279 3287.6840040804
4587	346222 4493 3449 9253 60 100 161 -3.2600612640381 2.5 38.341367721558 322.58492992125
4586	350715 4857 3413 9253 59.75 100 162 5.6500000953674 15.73572063446 2187.1630721092 30866.507782356
4585	355572 5177 3378 9253 59.5 100 163 184.17810058594 483.14999389648 64821.802185059 27524898.201977
4584	360749 5196 3378 9253 59.5 100 163 486.85000610352 733.98887634277 87605.430206299 48020523.063762
vector 4717  IntersectionExampleScenario.node[38].veinsmobility  posx  ETV
vector 4718  IntersectionExampleScenario.node[38].veinsmobility  posy  ETV
vector 4719  IntersectionExampleScenario.node[38].veinsmobility  speed  ETV
4518	366174 7157 1103 9586 38.5 102 255 0.973 11.648172402475 625.99849929394 2825.7906896053
4517	373331 6320 1103 9586 38.5 102 255 -28.762351989746 4 37.662351608276 1207.1630770883
4516	379651 6819 1082 9586 38.25 102 256 0 15.64999961853 2217.4989380836 31363.59696196
4515	386470 8231 1061 9586 38 102 257 483.14999389648 483.14999389648 124169.5484314 59992516.566758
4514	394701 8196 1061 9586 38 102 257 184.17810058594 734.9048614502 117823.05123901 58255825.687186
vector 4720  IntersectionExampleScenario.node[38].veinsmobility  acceleration  ETV
vector 4721  IntersectionExampleScenario.node[38].veinsmobility  co2emission  ETV
4553	403064 6131 2207 9798 50.75 103.25 211 0.973 11.36141391502 555.91846924636 2741.2930500246
4552	409195 6353 2207 9798 50.75 103.25 211 -3.8910021781921 2.5000001192093 36.98334312439 328.72306767134
4551	415548 6483 2178 9798 50.5 103.25 212 0 15.25 2186.7271380089 28330.032335777
4550	422031 6823 2149 9798 50.25 103.25 213 236.20977783203 483.14999389648 94503.003417969 42976982.664179
4549	428854 6795 2149 9798 50.25 103.25 213 184.17810058594 483.19213867188 87368.340332031 37726344.129459
4560	435649 6274 2271 10003 51.25 104.5 214 0.973 11.430051730432 613.214037147 3007.5321791784
4559	441923 6522 2271 10003 51.25 104.5 214 -4.5 2.5 41.227170944214 425.22157464894
4558	448445 6589 2238 10003 51 104.5 215 1.497428894043 15.997673988342 2281.0628262758 30659.337926025
4557	455034 6914 2207 10003 50.75 104.5 216 236.51318359375 483.14999389648 96485.930786133 44100042.663668
4556	461948 6902 2207 10003 50.75 104.5 216 160.43438720703 483.14999389648 86307.554260254 36701360.44241
vector 4724  IntersectionExampleScenario.node[39].veinsmobility  posx  ETV
vector 4725  IntersectionExampleScenario.node[39].veinsmobility  posy  ETV
vector 4726  IntersectionExampleScenario.node[39].veinsmobility  speed  ETV
vector 4727  IntersectionExampleScenario.node[39].veinsmobility  acceleration  ETV
vector 4728  IntersectionExampleScenario.node[39].veinsmobility  co2emission  ETV
vector 4731  IntersectionExampleScenario.node[40].veinsmobility  posx  ETV
vector 4732  IntersectionExampleScenario.node[40].veinsmobility  posy  ETV
vector 4738  IntersectionExampleScenario.node[41].veinsmobility  posx  ETV
vector 4739  IntersectionExampleScenario.node[41].veinsmobility  posy  ETV
vector 4733  IntersectionExampleScenario.node[40].veinsmobility  speed  ETV
vector 4740  IntersectionExampleScenario.node[41].veinsmobility  speed  ETV
vector 4734  IntersectionExampleScenario.node[40].veinsmobility  acceleration  ETV
vector 4735  IntersectionExampleScenario.node[40].veinsmobility  co2emission  ETV
vector 4741  IntersectionExampleScenario.node[41].veinsmobility  acceleration  ETV
vector 4742  IntersectionExampleScenario.node[41].veinsmobility  co2emission  ETV
4539	470038 6874 2049 10806 49.25 109.5 242 0.973 11.450879080643 606.20920488771 2873.7619941692
4538	476912 6011 2049 10806 49.25 109.5 242 -6.998438835144 4 37.492597579956 469.58309252326
4537	482923 6551 2024 10806 49 109.5 243 0 15.375 2215.8640432358 31072.668143386
4536	489474 7855 1999 10806 48.75 109.5 244 235.61877441406 785.82187652588 125158.30567169 68436286.52726
4535	497329 7868 1999 10806 48.75 109.5 244 483.14999389648 483.14999389648 117888.59851074 56957875.65093
vector 4745  IntersectionExampleScenario.node[42].veinsmobility  posx  ETV
vector 4746  IntersectionExampleScenario.node[42].veinsmobility  posy  ETV
4546	505349 6789 2207 10888 50.75 110 238 0.96001964198363 11.90022389248 632.84305346338 3089.3892495995
4545	512138 6226 2207 10888 50.75 110 238 -4.5 2.5 40.887662887573 494.28329607239
4544	518364 6426 2178 10888 50.5 110 239 0 16 2285.6137436628 33061.064284464
4543	524790 7661 2149 10888 50.25 110 240 482.94708251953 806.11563110352 133356.50170135 76463478.267185
4542	532451 7739 2149 10888 50.25 110 240 483.14999389648 732.53526306152 124011.11856079 65143884.613937
vector 4752  IntersectionExampleScenario.node[43].veinsmobility  posx  ETV
vector 4753  IntersectionExampleScenario.node[43].veinsmobility  posy  ETV
vector 4747  IntersectionExampleScenario.node[42].veinsmobility  speed  ETV
vector 4748  IntersectionExampleScenario.node[42].veinsmobility  acceleration  ETV
vector 4749  IntersectionExampleScenario.node[42].veinsmobility  co2emission  ETV
vector 4754  IntersectionExampleScenario.node[43].veinsmobility  speed  ETV
vector 4755  IntersectionExampleScenario.node[43].veinsmobility  acceleration  ETV
vector 4756  IntersectionExampleScenario.node[43].veinsmobility  co2emission  ETV
4595	540830 5066 4789 11155 70.25 111.5 166 0.96333723109819 12.099024792222 532.14458511391 3020.2965654539
4594	545896 4722 4789 11155 70.25 111.5 166 -2.1801147460938 2.5 40.208654403687 275.91546822174
4593	550618 5189 4757 11155 70 111.5 167 5.6398410797119 16.27499961853 2212.0558991432 31018.214871014
4592	555807 5412 4724 11155 69.75 111.5 168 238.51062011719 785.82187652588 88170.572441101 50299489.486384
4591	561219 5452 4724 11155 69.75 111.5 168 483.14999389648 483.14999389648 81169.198974609 39216897.989165
vector 4759  IntersectionExampleScenario.node[44].veinsmobility  posx  ETV
vector 4760  IntersectionExampleScenario.node[44].veinsmobility  posy  ETV
vector 4766  IntersectionExampleScenario.node[45].veinsmobility  posx  ETV
vector 4767  IntersectionExampleScenario.node[45].veinsmobility  posy  ETV
vector 4761  IntersectionExampleScenario.node[44].veinsmobility  speed  ETV
vector 4762  IntersectionExampleScenario.node[44].veinsmobility  acceleration  ETV
vector 4763  IntersectionExampleScenario.node[44].veinsmobility  co2emission  ETV
vector 4768  IntersectionExampleScenario.node[45].veinsmobility  speed  ETV
vector 4769  IntersectionExampleScenario.node[45].veinsmobility  acceleration  ETV
vector 4770  IntersectionExampleScenario.node[45].veinsmobility  co2emission  ETV
4525	567463 7978 1422 11926 42.25 115.75 295 0.973 11.90022389248 688.24823561882 3388.228474426
4524	575441 7870 1422 11926 42.25 115.75 295 -7.5724034309387 4 39.869146347046 567.24119795393
4523	583311 8096 1399 11926 42 115.75 296 0 16 2204.215408802 28695.346220049
4522	591407 9615 1376 11926 41.75 115.75 297 486.85000610352 486.85000610352 144594.45181274 70395809.747569
4521	601022 9593 1376 11926 41.75 115.75 297 238.82672119141 785.82187652588 153863.94365692 83843168.794265
vector 4773  IntersectionExampleScenario.node[46].veinsmobility  posx  ETV
vector 4774  IntersectionExampleScenario.node[46].veinsmobility  posy  ETV
vector 4775  IntersectionExampleScenario.node[46].veinsmobility  speed  ETV
vector 4776  IntersectionExampleScenario.node[46].veinsmobility  acceleration  ETV
vector 4777  IntersectionExampleScenario.node[46].veinsmobility  co2emission  ETV
4581	611011 7687 2579 12487 53.5 119 263 0.973 11.200708441096 610.84283581656 2799.6945151851
4580	618698 7734 2579 12487 53.5 119 263 -3.9846069812775 2.5 36.813589096069 378.74437605233
4579	626432 8082 2543 12487 53.25 119 264 0 15.02499961853 2077.3993061818 26565.91281709
4578	634514 8614 2506 12487 53 119 265 486.85000610352 486.85000610352 129015.25161743 62811076.037393
4577	643128 8586 2506 12487 53 119 265 238.55816650391 753.92188262939 134765.03975677 72082201.881777
4567	651714 8365 2304 12734 51.5 120.5 277 0.973 11.093806525473 682.43319259462 3007.4890931619
4566	660079 8766 2304 12734 51.5 120.5 277 -4.5 2.5 39.869146347046 530.63447031737
4565	668845 8866 2271 12734 51.25 120.5 278 0 15.665773391724 2217.5037568957 28497.646508242
4564	677711 9075 2238 12734 51 120.5 279 486.85000610352 486.85000610352 135831.15170288 66129397.035595
4563	686786 9040 2238 12734 51 120.5 279 236.67962646484 785.82187652588 147144.32232666 82093066.587727
vector 4780  IntersectionExampleScenario.node[47].veinsmobility  posx  ETV
vector 4781  IntersectionExampleScenario.node[47].veinsmobility  posy  ETV
vector 4782  IntersectionExampleScenario.node[47].veinsmobility  speed  ETV
vector 4783  IntersectionExampleScenario.node[47].veinsmobility  acceleration  ETV
vector 4784  IntersectionExampleScenario.node[47].veinsmobility  co2emission  ETV
4574	696222 8597 2506 13177 53 123.25 282 0.973 11.54047740176 658.90620267472 2919.8301950447
4573	704819 8828 2506 13177 53 123.25 282 -4.5 2.5000019073486 38.341367721558 464.19456234415
4572	713647 9001 2471 13177 52.75 123.25 283 0 15.562502861023 2303.415971756 29571.327043198
4571	722648 9258 2436 13177 52.5 123.25 284 486.85000610352 486.85000610352 138265.4017334 67314511.67781
4570	731906 9218 2436 13177 52.5 123.25 284 235.51049804688 806.11563110352 151210.77184296 85410212.745507
vector 4787  IntersectionExampleScenario.node[48].veinsmobility  posx  ETV
vector 4788  IntersectionExampleScenario.node[48].veinsmobility  posy  ETV
vector 4789  IntersectionExampleScenario.node[48].veinsmobility  speed  ETV
vector 4790  IntersectionExampleScenario.node[48].veinsmobility  acceleration  ETV
vector 4791  IntersectionExampleScenario.node[48].veinsmobility  co2emission  ETV
vector 4794  IntersectionExampleScenario.node[49].veinsmobility  posx  ETV
vector 4795  IntersectionExampleScenario.node[49].veinsmobility  posy  ETV
vector 4796  IntersectionExampleScenario.node[49].veinsmobility  speed  ETV
vector 4797  IntersectionExampleScenario.node[49].veinsmobility  acceleration  ETV
vector 4798  IntersectionExampleScenario.node[49].veinsmobility  co2emission  ETV
4602	741916 6197 5216 13507 73.75 125.25 207 0.973 11.648172402475 576.19671244211 2954.0094525767
4601	748113 5800 5216 13507 73.75 125.25 207 -8.4909086227417 4 38.001859664917 493.50338611871
4600	753913 6019 5185 13507 73.5 125.25 208 0 15.64999961853 2207.1772987843 31179.875685654
4599	759932 6844 5154 13507 73.25 125.25 209 184.17810058594 732.3010559082 94888.713409424 47235816.469361
4598	766776 6875 5154 13507 73.25 125.25 209 486.85000610352 486.85000610352 101751.65127563 49537792.044585
vector 4801  IntersectionExampleScenario.node[50].veinsmobility  posx  ETV
vector 4802  IntersectionExampleScenario.node[50].veinsmobility  posy  ETV
vector 4803  IntersectionExampleScenario.node[50].veinsmobility  speed  ETV
vector 4804  IntersectionExampleScenario.node[50].veinsmobility  acceleration  ETV
vector 4805  IntersectionExampleScenario.node[50].veinsmobility  co2emission  ETV
vector 4808  IntersectionExampleScenario.node[51].veinsmobility  posx  ETV
vector 4809  IntersectionExampleScenario.node[51].veinsmobility  posy  ETV
vector 4810  IntersectionExampleScenario.node[51].veinsmobility  speed  ETV
vector 4811  IntersectionExampleScenario.node[51].veinsmobility  acceleration  ETV
vector 4812  IntersectionExampleScenario.node[51].veinsmobility  co2emission  ETV
4637	774443 5828 5922 13850 79.5 127.25 192 0.97223939240464 11.648172402475 551.95863946018 2830.6045849175
4636	780271 6133 5922 13850 79.5 127.25 192 -2.9609375 2.5 38.680875778198 318.83612138417
4635	786404 6253 5887 13850 79.25 127.25 193 0.85240632295609 15.64999961853 2219.7103000283 30411.062514026
4634	792657 6373 5852 13850 79 127.25 194 184.17810058594 734.27998352051 87377.313476562 43508895.145102
4633	799030 6409 5852 13850 79 127.25 194 486.85000610352 486.85000610352 94448.901184082 45982448.117941
vector 4815  IntersectionExampleScenario.node[52].veinsmobility  posx  ETV
vector 4816  IntersectionExampleScenario.node[52].veinsmobility  posy  ETV
vector 4817  IntersectionExampleScenario.node[52].veinsmobility  speed  ETV
vector 4818  IntersectionExampleScenario.node[52].veinsmobility  acceleration  ETV
vector 4819  IntersectionExampleScenario.node[52].veinsmobility  co2emission  ETV
4651	805835 6007 6294 14299 82 129.75 192 0.973 11.200708441096 553.1719646299 2696.4145633473
4650	811842 6056 6294 14299 82 129.75 192 -4.5 2.5 36.98334312439 323.81963169893
4649	817898 6266 6255 14299 81.75 129.75 193 4.1687860488892 15.313927650452 2277.6939077377 29897.689350308
4648	824164 6398 6216 14299 81.5 129.75 194 168.58435058594 733.42747497559 85461.771118164 42232550.833593
4647	830562 6431 6216 14299 81.5 129.75 194 486.85000610352 486.85000610352 94448.901184082 45982448.117941
4665	836993 5606 7115 14689 87.5 132 179 0.973 11.200708441096 510.34373967002 2437.8229922188
4664	842599 5568 7115 14689 87.5 132 179 -4.5 2.5 35.964826583862 318.94118451704
4663	848167 5848 7074 14689 87.25 132 180 3.2384116649628 15.02499961853 2123.9937236309 27382.589210721
4662	854015 6011 7035 14689 87 132 181 206.97509765625 733.55708312988 82463.690765381 41381482.776603
4661	860026 6030 7035 14689 87 132 181 486.85000610352 486.85000610352 88119.851104736 42901150.048182
4616	866056 6565 5750 14897 78.25 133.25 221 0.973 11.648172402475 590.58311146415 2965.1131059996
4615	872621 6037 5750 14897 78.25 133.25 221 -9.0749959945679 4 38.341367721558 511.03156301807
4614	878658 6258 5717 14897 78 133.25 222 0 15.64999961853 2176.3680484295 30665.161477851
4613	884916 7321 5686 14897 77.75 133.25 223 236.95220947266 483.14999389648 99560.700958252 45488131.23835
4612	892237 7358 5686 14897 77.75 133.25 223 184.17810058594 483.36395263672 93189.249023438 40927244.238666
4644	899595 6956 6031 15184 80.25 135 220 0.973 11.648172402475 610.20180943912 3005.9236577311
4643	906551 6961 6031 15184 80.25 135 220 -4.5 2.5 40.208654403687 439.0950145122
4642	913512 7072 5994 15184 80 135 221 0 15.734438896179 2248.9919309327 31901.087863203
4641	920584 7355 5957 15184 79.75 135 222 238.82635498047 483.14999389648 99417.370269775 45515652.128182
4640	927939 7302 5957 15184 79.75 135 222 166.078125 483.20443725586 90936.092956543 39478526.423499
vector 4822  IntersectionExampleScenario.node[53].veinsmobility  posx  ETV
vector 4823  IntersectionExampleScenario.node[53].veinsmobility  posy  ETV
vector 4824  IntersectionExampleScenario.node[53].veinsmobility  speed  ETV
vector 4829  IntersectionExampleScenario.node[54].veinsmobility  posx  ETV
vector 4830  IntersectionExampleScenario.node[54].veinsmobility  posy  ETV
vector 4825  IntersectionExampleScenario.node[53].veinsmobility  acceleration  ETV
vector 4826  IntersectionExampleScenario.node[53].veinsmobility  co2emission  ETV
vector 4831  IntersectionExampleScenario.node[54].veinsmobility  speed  ETV
vector 4832  IntersectionExampleScenario.node[54].veinsmobility  acceleration  ETV
vector 4833  IntersectionExampleScenario.node[54].veinsmobility  co2emission  ETV
4672	936033 6163 7115 15703 87.5 138.25 204 0.973 11.648172402475 557.48144015462 2868.3220816051
4671	942196 6273 7115 15703 87.5 138.25 204 -2.5170631408691 2.5 38.171613693237 322.13834263934
4670	948469 6530 7074 15703 87.25 138.25 205 1.1801215410233 15.64999961853 2185.9182698727 28365.149657842
4669	954999 6877 7035 15703 87 138.25 206 236.46881103516 483.14999389648 91288.645904541 41474858.817228
4668	961876 6852 7035 15703 87 138.25 206 184.17810058594 483.14999389648 83909.306121826 36013344.797184
4686	968728 6235 7360 15744 89 138.5 199 0.973 11.990504229548 585.82667226784 3095.7891737425
4685	974963 6203 7360 15744 89 138.5 199 -4.5 2.5000019073486 40.208654403687 388.01528494136
4684	981166 6473 7319 15744 88.75 138.5 200 2.9164574146271 16.125 2291.6197943687 31215.268070884
4683	987639 6724 7278 15744 88.5 138.5 201 483.14999389648 483.14999389648 97113.148773193 46920217.237037
4682	994363 6668 7278 15744 88.5 138.5 201 163.88433837891 731.61633300781 87663.199172974 42716848.285103
vector 4836  IntersectionExampleScenario.node[55].veinsmobility  posx  ETV
vector 4837  IntersectionExampleScenario.node[55].veinsmobility  posy  ETV
vector 4838  IntersectionExampleScenario.node[55].veinsmobility  speed  ETV
vector 4839  IntersectionExampleScenario.node[55].veinsmobility  acceleration  ETV
vector 4840  IntersectionExampleScenario.node[55].veinsmobility  co2emission  ETV
4679	1001427 6467 7156 16165 87.75 141 214 0.973 11.648172402475 597.95608630857 3028.0302623146
4678	1007894 5784 7156 16165 87.75 141 214 -6.9388580322266 4 39.869146347046 480.66915848942
4677	1013678 6243 7115 16165 87.5 141 215 0 15.658491134644 2218.3089776039 32099.024439067
4676	1019921 7212 7074 16165 87.25 141 216 235.31457519531 785.82187652588 111217.28093719 61389973.082811
4675	1027133 7224 7074 16165 87.25 141 216 483.14999389648 483.14999389648 104360.39868164 50421725.986069
vector 4843  IntersectionExampleScenario.node[56].veinsmobility  posx  ETV
vector 4844  IntersectionExampleScenario.node[56].veinsmobility  posy  ETV
vector 4845  IntersectionExampleScenario.node[56].veinsmobility  speed  ETV
vector 4846  IntersectionExampleScenario.node[56].veinsmobility  acceleration  ETV
vector 4847  IntersectionExampleScenario.node[56].veinsmobility  co2emission  ETV
4700	1034753 6661 7708 16619 91 143.75 212 0.973 11.200708441096 570.09525305255 2775.8968781683
4699	1041414 6860 7708 16619 91 143.75 212 -4.057300567627 2.5 37.15309715271 363.80391145456
4698	1048274 7026 7663 16619 90.75 143.75 213 0 15.430233955383 2262.8149285857 30883.729446201
4697	1055300 7156 7618 16619 90.5 143.75 214 235.92822265625 797.07032012939 111662.23093414 62755106.546606
4696	1062456 7183 7618 16619 90.5 143.75 214 483.14999389648 483.14999389648 103394.09869385 49954858.152865
4728	1069639 5038 10361 16865 106.75 145.25 155 0.973 12.099024792222 530.97340109237 3178.1270753051
4727	1074677 4795 10361 16865 106.75 145.25 155 -3.5273780822754 2.5 41.396924972534 261.7776363116
4726	1079472 5066 10320 16865 106.5 145.25 156 5.6500000953674 16.27499961853 2209.4639492035 32220.602617449
4725	1084538 5332 10279 16865 106.25 145.25 157 239.04534912109 785.82187652588 82403.54372406 47215189.245013
4724	1089870 5339 10279 16865 106.25 145.25 157 483.14999389648 483.14999389648 75854.549041748 36649124.906541
vector 4850  IntersectionExampleScenario.node[57].veinsmobility  posx  ETV
vector 4851  IntersectionExampleScenario.node[57].veinsmobility  posy  ETV
vector 4852  IntersectionExampleScenario.node[57].veinsmobility  speed  ETV
vector 4853  IntersectionExampleScenario.node[57].veinsmobility  acceleration  ETV
vector 4854  IntersectionExampleScenario.node[57].veinsmobility  co2emission  ETV
vector 4857  IntersectionExampleScenario.node[58].veinsmobility  posx  ETV
vector 4858  IntersectionExampleScenario.node[58].veinsmobility  posy  ETV
vector 4859  IntersectionExampleScenario.node[58].veinsmobility  speed  ETV
4630	1095834 7868 5819 17341 78.75 148.25 279 0.973 11.648172402475 662.61130802042 3190.5198223947
4629	1103702 7589 5819 17341 78.75 148.25 279 -7.0298318862915 4 38.511121749878 544.78709591572
4628	1111291 7915 5785 17341 78.5 148.25 280 0 15.64999961853 2103.5939424038 27109.213377623
4627	1119206 9363 5750 17341 78.25 148.25 281 486.85000610352 486.85000610352 136804.85171509 66603442.892481
4626	1128569 9341 5750 17341 78.25 148.25 281 236.02325439453 757.99687957764 143043.3457489 76444071.585675
vector 4860  IntersectionExampleScenario.node[58].veinsmobility  acceleration  ETV
vector 4861  IntersectionExampleScenario.node[58].veinsmobility  co2emission  ETV
vector 4864  IntersectionExampleScenario.node[59].veinsmobility  posx  ETV
vector 4865  IntersectionExampleScenario.node[59].veinsmobility  posy  ETV
vector 4866  IntersectionExampleScenario.node[59].veinsmobility  speed  ETV
vector 4867  IntersectionExampleScenario.node[59].veinsmobility  acceleration  ETV
vector 4868  IntersectionExampleScenario.node[59].veinsmobility  co2emission  ETV
4609	1138473 8888 5686 17780 77.75 151 294 0.973 11.54047740176 671.82526872273 2960.9220153009
4608	1147361 9267 5686 17780 77.75 151 294 -4.5 2.5 37.832105636597 481.71956086596
4607	1156628 9385 5657 17780 77.5 151 295 0 15.5 2209.9959344924 27719.718142855
4606	1166013 9864 5627 17780 77.25 151 296 486.85000610352 486.85000610352 144107.60180664 70158786.819126
4605	1175877 9829 5627 17780 77.25 151 296 238.07751464844 785.82187652588 155063.59577942 85757542.884781
vector 4871  IntersectionExampleScenario.node[60].veinsmobility  posx  ETV
vector 4872  IntersectionExampleScenario.node[60].veinsmobility  posy  ETV
vector 4873  IntersectionExampleScenario.node[60].veinsmobility  speed  ETV
vector 4874  IntersectionExampleScenario.node[60].veinsmobility  acceleration  ETV
vector 4875  IntersectionExampleScenario.node[60].veinsmobility  co2emission  ETV
vector 4878  IntersectionExampleScenario.node[61].veinsmobility  posx  ETV
vector 4879  IntersectionExampleScenario.node[61].veinsmobility  posy  ETV
vector 4880  IntersectionExampleScenario.node[61].veinsmobility  speed  ETV
vector 4881  IntersectionExampleScenario.node[61].veinsmobility  acceleration  ETV
vector 4882  IntersectionExampleScenario.node[61].veinsmobility  co2emission  ETV
4623	1186498 9485 5785 18302 78.5 154.25 304 0.973 11.36141391502 683.1848885902 2846.7266860699
4622	1195983 9714 5785 18302 78.5 154.25 304 -4.3365516662598 2.5 38.341367721558 441.79087273994
4621	1205697 9827 5750 18302 78.25 154.25 305 0 15.270167350769 2281.2047885992 28248.464102822
4620	1215524 10203 5717 18302 78 154.25 306 486.85000610352 734.2989654541 157247.94244385 81942285.007961
4619	1225727 10189 5717 18302 78 154.25 306 486.68426513672 808.82032012939 171420.26348114 98666246.76553
vector 4885  IntersectionExampleScenario.node[62].veinsmobility  posx  ETV
vector 4886  IntersectionExampleScenario.node[62].veinsmobility  posy  ETV
vector 4887  IntersectionExampleScenario.node[62].veinsmobility  speed  ETV
vector 4892  IntersectionExampleScenario.node[63].veinsmobility  posx  ETV
vector 4893  IntersectionExampleScenario.node[63].veinsmobility  posy  ETV
vector 4888  IntersectionExampleScenario.node[62].veinsmobility  acceleration  ETV
vector 4889  IntersectionExampleScenario.node[62].veinsmobility  co2emission  ETV
vector 4894  IntersectionExampleScenario.node[63].veinsmobility  speed  ETV
vector 4895  IntersectionExampleScenario.node[63].veinsmobility  acceleration  ETV
vector 4896  IntersectionExampleScenario.node[63].veinsmobility  co2emission  ETV
4658	1236708 8202 7000 18728 86.75 156.75 281 0.973 11.810082123732 709.98807312608 3369.1713800822
4657	1244910 7382 7000 18728 86.75 156.75 281 -7.1019821166992 4 40.887662887573 614.61157096088
4656	1252292 7953 6965 18728 86.5 156.75 282 0 15.897952079773 2209.8983819485 28831.749369302
4655	1260245 9484 6929 18728 86.25 156.75 283 175.76898193359 483.36395263672 118447.86434937 51956860.390338
4654	1269729 9422 6929 18728 86.25 156.75 283 486.85000610352 733.3787689209 145674.22386169 76057066.899471
4707	1279151 7607 8618 19163 96.25 159.25 253 0.973 12.099024792222 657.25442665124 3722.5988342513
4706	1286758 7789 8618 19163 96.25 159.25 253 -4.5 2.5 40.038900375366 468.67227804644
4705	1294547 7901 8576 19163 96 159.25 254 0 16.27499961853 2178.6346447961 29755.870152744
4704	1302448 8580 8533 19163 95.75 159.25 255 184.17810058594 483.17758178711 107253.12799072 47118320.154176
4703	1311028 8607 8533 19163 95.75 159.25 255 486.85000610352 732.09364318848 132064.4949646 69438687.090941
4714	1319635 8259 8909 19776 98 163 261 0.973 10.916047529558 601.18817411723 2557.6742865446
4713	1327894 8514 8909 19776 98 163 261 -3.6671738624573 2.5000004768372 34.606801986694 315.83631858425
4712	1336408 8566 8866 19776 97.75 163 262 0 14.625 2267.8212794866 28738.16693856
4711	1344974 8859 8823 19776 97.5 163 263 164.94219970703 483.14999389648 108303.7645874 46961364.721152
4710	1353833 8896 8823 19776 97.5 163 263 486.85000610352 735.14733886719 136865.92460632 72388647.487865
vector 4899  IntersectionExampleScenario.node[64].veinsmobility  posx  ETV
vector 4900  IntersectionExampleScenario.node[64].veinsmobility  posy  ETV
vector 4901  IntersectionExampleScenario.node[64].veinsmobility  speed  ETV
vector 4902  IntersectionExampleScenario.node[64].veinsmobility  acceleration  ETV
vector 4903  IntersectionExampleScenario.node[64].veinsmobility  co2emission  ETV
4742	1363125 6764 10764 19975 109.25 164.25 221 0.973 12.099024792222 592.23069975168 3006.722602401
4741	1369889 7221 10764 19975 109.25 164.25 221 -3.9568738937378 2.5000001192093 40.13934135437 350.32695345923
4740	1377110 7216 10721 19975 109 164.25 222 0 16.27499961853 2189.589945361 28576.781683555
4739	1384326 7551 10678 19975 108.75 164.25 223 184.17810058594 483.29864501953 91386.438110352 39279380.795796
4738	1391877 7562 10678 19975 108.75 164.25 223 486.85000610352 733.96162414551 116643.94177246 62041050.142498
4791	1399439 5401 13298 20093 124 165 165 0.973 12.353032912318 562.61549996049 3318.5641300097
4790	1404840 5117 13298 20093 124 165 165 -4.5 2.5 41.736440658569 416.24509488099
4789	1409957 5359 13257 20093 123.75 165 166 3.8393707275391 16.625 2289.7818374634 33712.351456204
4788	1415316 5676 13216 20093 123.5 165 167 483.14999389648 731.20855712891 88547.06288147 47877228.444384
4787	1420992 5641 13216 20093 123.5 165 167 162.00311279297 486.87002563477 65468.552215576 27769205.202272
vector 4906  IntersectionExampleScenario.node[65].veinsmobility  posx  ETV
vector 4907  IntersectionExampleScenario.node[65].veinsmobility  posy  ETV
vector 4908  IntersectionExampleScenario.node[65].veinsmobility  speed  ETV
vector 4909  IntersectionExampleScenario.node[65].veinsmobility  acceleration  ETV
vector 4910  IntersectionExampleScenario.node[65].veinsmobility  co2emission  ETV
4784	1427029 5604 13137 20209 123 165.75 172 0.973 12.099024792222 564.67991307629 3032.1970583472
4783	1432633 5589 13137 20209 123 165.75 172 -9.4888134002686 4 40.887662887573 513.60882911982
4782	1438222 5697 13096 20209 122.75 165.75 173 0 16.27499961853 2209.9352557659 31869.010309261
4781	1443919 5917 13055 20209 122.5 165.75 174 483.14999389648 483.14999389648 84068.098937988 40617501.488778
4780	1449836 5895 13055 20209 122.5 165.75 174 184.17810058594 732.01136779785 78477.20022583 39413854.116022
vector 4913  IntersectionExampleScenario.node[66].veinsmobility  posx  ETV
vector 4914  IntersectionExampleScenario.node[66].veinsmobility  posy  ETV
vector 4915  IntersectionExampleScenario.node[66].veinsmobility  speed  ETV
vector 4916  IntersectionExampleScenario.node[66].veinsmobility  acceleration  ETV
vector 4917  IntersectionExampleScenario.node[66].veinsmobility  co2emission  ETV
4805	1456127 5528 13717 20729 126.5 169 171 0.97223939240464 11.810082123732 566.87293226142 3364.1394101668
4804	1461655 5348 13717 20729 126.5 169 171 -3.2350387573242 2.5 38.680875778198 358.47974892156
4803	1467003 5513 13674 20729 126.25 169 172 5.6500000953674 15.875 2285.0639657974 31893.36884496
4802	1472516 5876 13631 20729 126 169 173 238.03302001953 483.14999389648 75519.027496338 33903430.661094
4801	1478392 5851 13631 20729 126 169 173 157.49688720703 483.14999389648 67134.944854736 28218513.197883
vector 4920  IntersectionExampleScenario.node[67].veinsmobility  posx  ETV
vector 4921  IntersectionExampleScenario.node[67].veinsmobility  posy  ETV
vector 4922  IntersectionExampleScenario.node[67].veinsmobility  speed  ETV
vector 4923  IntersectionExampleScenario.node[67].veinsmobility  acceleration  ETV
vector 4924  IntersectionExampleScenario.node[67].veinsmobility  co2emission  ETV
4763	1484639 7136 11333 21227 112.5 172.25 240 0.973 12.099024792222 645.78168267615 3390.7421225425
4762	1491775 6636 11333 21227 112.5 172.25 240 -9.1468639373779 4 42.585195541382 535.04928793187
4761	1498411 6787 11286 21227 112.25 172.25 241 0 16.50171661377 2205.5752468109 33045.489514576
4760	1505198 8216 11241 21227 112 172.25 242 238.37542724609 785.82187652588 124420.36675262 67924748.973395
4759	1513414 8227 11241 21227 112 172.25 242 483.14999389648 483.14999389648 116922.29852295 56491007.817726
4812	1521641 6081 13850 21737 127.25 175.75 195 0.973 11.54047740176 541.91145532736 2737.6009521924
4811	1527722 6437 13850 21737 127.25 175.75 195 -2.1334800720215 2.5 36.98334312439 288.01647704643
4810	1534159 6515 13805 21737 127 175.75 196 1.8801665306091 15.5 2209.8564574718 29061.711370263
4809	1540674 6672 13760 21737 126.75 175.75 197 237.96887207031 785.82187652588 102709.57447052 57744152.32184
4808	1547346 6699 13760 21737 126.75 175.75 197 483.14999389648 483.14999389648 95180.548797607 45986481.570628
4826	1554045 5210 15579 22041 137.5 178 163 0.973 12.099024792222 566.15716685944 3557.3193245883
4825	1559255 4635 15579 22041 137.5 178 163 -3.1466217041016 2.5 41.396924972534 331.12444110407
4824	1563890 5271 15538 22041 137.25 178 164 5.6500000953674 16.27499961853 2214.2138290405 31308.71059352
4823	1569161 5601 15497 22041 137 178 165 483.14999389648 785.82187652588 94277.969108582 55614360.291261
4822	1574762 5602 15497 22041 137 178 165 483.14999389648 734.67221069336 87850.909515381 47733741.452981
4693	1580364 10622 7446 22372 89.5 180.5 365 0.973 11.450879080643 753.85156020156 3194.9493384661
4692	1590986 10564 7446 22372 89.5 180.5 365 -21.281955718994 4 36.813589096069 995.47665413586
4691	1601550 10763 7403 22372 89.25 180.5 366 0 15.375 2198.8881843705 27590.321286634
4690	1612313 12361 7360 22372 89 180.5 367 238.42358398438 486.85000610352 170176.36193848 80121256.970147
4689	1624674 12352 7360 22372 89 180.5 367 483.14999389648 785.82187652588 198164.5714035 109171857.30158
4721	1637026 9689 9629 22497 102.25 181.5 318 0.973 11.810082123732 720.54630211707 3337.2405637446
4720	1646715 9992 9629 22497 102.25 181.5 318 -4.4343280792236 2.5 39.869146347046 500.41162291946
4719	1656707 9977 9586 22497 102 181.5 319 0 15.875 2189.9924116256 28438.036287709
4718	1666684 10861 9543 22497 101.75 181.5 320 486.85000610352 734.37342834473 163864.79566956 85035259.437674
4717	1677545 10838 9543 22497 101.75 181.5 320 486.85000610352 785.82187652588 174465.99629974 97141631.219106
vector 4927  IntersectionExampleScenario.node[68].veinsmobility  posx  ETV
vector 4928  IntersectionExampleScenario.node[68].veinsmobility  posy  ETV
vector 4929  IntersectionExampleScenario.node[68].veinsmobility  speed  ETV
vector 4930  IntersectionExampleScenario.node[68].veinsmobility  acceleration  ETV
vector 4931  IntersectionExampleScenario.node[68].veinsmobility  co2emission  ETV
4735	1688779 9210 10764 22775 109.25 183.75 299 0.973 11.648172402475 657.56515135348 3011.8792907598
4734	1697989 9820 10764 22775 109.25 183.75 299 -3.893533706665 2.5000009536743 38.171613693237 392.42387734733
4733	1707809 9930 10721 22775 109 183.75 300 0 15.64999961853 2211.0459393021 28446.980615805
4732	1717739 10235 10678 22775 108.75 183.75 301 486.85000610352 486.85000610352 146541.85183716 71343901.461341
4731	1727974 10210 10678 22775 108.75 183.75 301 238.22143554688 785.82187652588 157402.68221283 86469386.352636
vector 4934  IntersectionExampleScenario.node[69].veinsmobility  posx  ETV
vector 4935  IntersectionExampleScenario.node[69].veinsmobility  posy  ETV
vector 4936  IntersectionExampleScenario.node[69].veinsmobility  speed  ETV
vector 4937  IntersectionExampleScenario.node[69].veinsmobility  acceleration  ETV
vector 4938  IntersectionExampleScenario.node[69].veinsmobility  co2emission  ETV
4749	1738580 9737 10976 23020 110.5 185.75 302 0.973 11.648172402475 691.01065039942 3025.2390686514
4748	1748317 9767 10976 23020 110.5 185.75 302 -4.5 2.5000019073486 38.850629806519 479.81119200484
4747	1758084 10094 10931 23020 110.25 185.75 303 0 15.64999961853 2306.0278763101 29930.676274043
4746	1768178 10336 10888 23020 110 185.75 304 486.85000610352 486.85000610352 148002.40185547 72054970.24667
4745	1778514 10290 10888 23020 110 185.75 304 236.06121826172 807.09531402588 161808.40540314 90778452.112343
vector 4941  IntersectionExampleScenario.node[70].veinsmobility  posx  ETV
vector 4942  IntersectionExampleScenario.node[70].veinsmobility  posy  ETV
vector 4943  IntersectionExampleScenario.node[70].veinsmobility  speed  ETV
vector 4944  IntersectionExampleScenario.node[70].veinsmobility  acceleration  ETV
vector 4945  IntersectionExampleScenario.node[70].veinsmobility  co2emission  ETV
vector 4948  IntersectionExampleScenario.node[71].veinsmobility  posx  ETV
vector 4949  IntersectionExampleScenario.node[71].veinsmobility  posy  ETV
vector 4950  IntersectionExampleScenario.node[71].veinsmobility  speed  ETV
vector 4951  IntersectionExampleScenario.node[71].veinsmobility  acceleration  ETV
vector 4952  IntersectionExampleScenario.node[71].veinsmobility  co2emission  ETV
4756	1789596 9151 11021 23393 110.75 188.75 313 0.973 12.099024792222 726.66575054815 3461.9942602271
4755	1798747 9008 11021 23393 110.75 188.75 313 -8.247218132019 4 40.548154830933 632.10116694144
4754	1807755 9118 10976 23393 110.5 188.75 314 0 16.27499961853 2256.4782552719 29994.44888628
4753	1816873 10652 10931 23393 110.25 188.75 315 163.88433837891 483.36395263672 132834.33343506 58459892.976856
4752	1827525 10640 10931 23393 110.25 188.75 315 486.85000610352 732.40849304199 161230.61506653 83611090.605958
4798	1838165 7746 13507 23584 125.25 190.25 261 0.973 11.648172402475 658.12495647335 3327.0947466882
4797	1845911 7303 13507 23584 125.25 190.25 261 -4.5 2.5 38.850629806519 491.17724969329
4796	1853214 7675 13464 23584 125 190.25 262 0 15.64999961853 2218.9740767805 29744.770470912
4795	1860889 8814 13421 23584 124.75 190.25 263 184.17810058594 734.09712219238 118989.90293884 58025744.692014
4794	1869703 8942 13421 23584 124.75 190.25 263 486.85000610352 486.85000610352 128041.55160522 62337030.180507
vector 4955  IntersectionExampleScenario.node[72].veinsmobility  posx  ETV
vector 4956  IntersectionExampleScenario.node[72].veinsmobility  posy  ETV
vector 4957  IntersectionExampleScenario.node[72].veinsmobility  speed  ETV
4847	1878874 6016 16537 23761 143.25 191.75 195 0.973 12.099024792222 582.74348514738 3145.4899176076
4846	1884890 6121 16537 23761 143.25 191.75 195 -4.5 2.5000009536743 42.075933456421 355.62883064446
4845	1891011 6488 16495 23761 143 191.75 196 1.3431798219681 16.27499961853 2214.0069373846 30693.168903015
4844	1897499 6650 16452 23761 142.75 191.75 197 184.17810058594 732.3143157959 87881.775909424 43177738.721364
4843	1904149 6699 16452 23761 142.75 191.75 197 486.85000610352 486.85000610352 95909.451202393 46693516.90327
vector 4958  IntersectionExampleScenario.node[72].veinsmobility  acceleration  ETV
vector 4959  IntersectionExampleScenario.node[72].veinsmobility  co2emission  ETV
vector 4962  IntersectionExampleScenario.node[73].veinsmobility  posx  ETV
vector 4963  IntersectionExampleScenario.node[73].veinsmobility  posy  ETV
vector 4964  IntersectionExampleScenario.node[73].veinsmobility  speed  ETV
vector 4965  IntersectionExampleScenario.node[73].veinsmobility  acceleration  ETV
vector 4966  IntersectionExampleScenario.node[73].veinsmobility  co2emission  ETV
vector 4969  IntersectionExampleScenario.node[74].veinsmobility  posx  ETV
vector 4970  IntersectionExampleScenario.node[74].veinsmobility  posy  ETV
vector 4971  IntersectionExampleScenario.node[74].veinsmobility  speed  ETV
vector 4976  IntersectionExampleScenario.node[75].veinsmobility  posx  ETV
vector 4977  IntersectionExampleScenario.node[75].veinsmobility  posy  ETV
vector 4972  IntersectionExampleScenario.node[74].veinsmobility  acceleration  ETV
vector 4973  IntersectionExampleScenario.node[74].veinsmobility  co2emission  ETV
vector 4978  IntersectionExampleScenario.node[75].veinsmobility  speed  ETV
vector 4983  IntersectionExampleScenario.node[76].veinsmobility  posx  ETV
vector 4984  IntersectionExampleScenario.node[76].veinsmobility  posy  ETV
vector 4979  IntersectionExampleScenario.node[75].veinsmobility  acceleration  ETV
vector 4980  IntersectionExampleScenario.node[75].veinsmobility  co2emission  ETV
vector 4990  IntersectionExampleScenario.node[77].veinsmobility  posx  ETV
vector 4991  IntersectionExampleScenario.node[77].veinsmobility  posy  ETV
vector 4985  IntersectionExampleScenario.node[76].veinsmobility  speed  ETV
vector 4986  IntersectionExampleScenario.node[76].veinsmobility  acceleration  ETV
vector 4987  IntersectionExampleScenario.node[76].veinsmobility  co2emission  ETV
vector 4992  IntersectionExampleScenario.node[77].veinsmobility  speed  ETV
vector 4993  IntersectionExampleScenario.node[77].veinsmobility  acceleration  ETV
vector 4994  IntersectionExampleScenario.node[77].veinsmobility  co2emission  ETV
4833	1912995 7212 15662 24538 138 197.5 239 0.973 11.405302658306 614.72434765019 3037.6148128245
4832	1920207 6548 15662 24538 138 197.5 239 -7.1814060211182 4 36.98334312439 509.64715729912
4831	1926755 6862 15621 24538 137.75 197.5 240 0 15.311344146729 2174.5783312321 30028.339290798
4830	1933617 8132 15579 24538 137.5 197.5 241 237.36993408203 483.14999389648 108115.30014038 49574988.608011
4829	1941749 8166 15579 24538 137.5 197.5 241 184.17810058594 483.36395263672 101488.95739746 44786179.901256
4861	1949915 6251 17382 24753 148.5 199 203 0.973 11.450879080643 546.28704467102 2745.2270823959
4860	1956166 6626 17382 24753 148.5 199 203 -2.0949859619141 2.5 36.643835067749 304.85598006798
4859	1962792 6694 17341 24753 148.25 199 204 0.93299865722656 15.375 2206.9728215933 28715.798345526
4858	1969486 6956 17300 24753 148 199 205 483.14999389648 733.751953125 107712.55093384 57677812.067865
4857	1976442 6939 17300 24753 148 199 205 184.17810058594 487.03164672852 83862.403503418 36211650.72565
4875	1983381 6143 17979 24928 152.25 200.25 193 0.973 11.54047740176 543.99247859379 2757.3335652033
4874	1989524 6191 17979 24928 152.25 200.25 193 -4.4142189025879 2.5000009536743 37.15309715271 322.24837682971
4873	1995715 6367 17938 24928 152 200.25 194 3.0553557872772 15.5 2245.1097266674 29524.174484976
4872	2002082 6630 17897 24928 151.75 200.25 195 483.14999389648 483.14999389648 94214.248809814 45519613.737424
4871	2008712 6601 17897 24928 151.75 200.25 195 176.21716308594 732.62991333008 86289.208938599 42564867.241123
4889	2015313 5791 18593 25129 156 201.75 184 0.973 11.200708441096 548.60883133911 2768.8409624518
4888	2021104 5813 18593 25129 156 201.75 184 -4.5 2.5 39.699392318726 281.813129927
4887	2026917 6072 18550 25129 155.75 201.75 185 3.2667973041534 15.631831169128 2270.7147204876 30950.185480018
4886	2032989 6325 18507 25129 155.5 201.75 186 483.14999389648 483.14999389648 89865.898864746 43418708.488004
4885	2039314 6303 18507 25129 155.5 201.75 186 172.23669433594 734.16160583496 81986.139068604 40522088.933667
vector 4997  IntersectionExampleScenario.node[78].veinsmobility  posx  ETV
vector 4998  IntersectionExampleScenario.node[78].veinsmobility  posy  ETV
vector 4999  IntersectionExampleScenario.node[78].veinsmobility  speed  ETV
4840	2045846 7542 15953 25450 139.75 204.25 259 0.973 12.353032912318 668.07405336477 3571.7266091314
4839	2053388 6979 15953 25450 139.75 204.25 259 -28.688735961914 4 42.585195541382 1231.8275725772
4838	2060367 7215 15910 25450 139.5 204.25 260 0 16.625 2275.2361879349 33590.223154472
4837	2067582 8852 15867 25450 139.25 204.25 261 238.02075195312 802.70781707764 135482.10656738 74696973.193954
4836	2076434 8875 15867 25450 139.25 204.25 261 483.14999389648 483.14999389648 126102.14840698 60926252.233167
vector 5000  IntersectionExampleScenario.node[78].veinsmobility  acceleration  ETV
vector 5001  IntersectionExampleScenario.node[78].veinsmobility  co2emission  ETV
vector 5004  IntersectionExampleScenario.node[79].veinsmobility  posx  ETV
vector 5005  IntersectionExampleScenario.node[79].veinsmobility  posy  ETV
vector 5006  IntersectionExampleScenario.node[79].veinsmobility  speed  ETV
vector 5007  IntersectionExampleScenario.node[79].veinsmobility  acceleration  ETV
vector 5008  IntersectionExampleScenario.node[79].veinsmobility  co2emission  ETV
4868	2085872 7008 17702 25746 150.5 206.5 225 0.97223939240464 11.648172402475 585.87297913554 2921.7041965732
4867	2092880 7203 17702 25746 150.5 206.5 225 -3.8517127037048 2.5 38.680875778198 343.54836129805
4866	2100083 7439 17663 25746 150.25 206.5 226 0 15.64999961853 2203.3282891829 29339.821767688
4865	2107522 7700 17624 25746 150 206.5 227 482.97311401367 785.82187652588 125926.55051422 71799708.7309
4864	2115222 7711 17624 25746 150 206.5 227 483.14999389648 732.6749420166 118005.60151672 62424235.387655
vector 5011  IntersectionExampleScenario.node[80].veinsmobility  posx  ETV
vector 5012  IntersectionExampleScenario.node[80].veinsmobility  posy  ETV
vector 5018  IntersectionExampleScenario.node[81].veinsmobility  posx  ETV
vector 5019  IntersectionExampleScenario.node[81].veinsmobility  posy  ETV
vector 5013  IntersectionExampleScenario.node[80].veinsmobility  speed  ETV
vector 5020  IntersectionExampleScenario.node[81].veinsmobility  speed  ETV
vector 5025  IntersectionExampleScenario.node[82].veinsmobility  posx  ETV
vector 5026  IntersectionExampleScenario.node[82].veinsmobility  posy  ETV
vector 5014  IntersectionExampleScenario.node[80].veinsmobility  acceleration  ETV
vector 5015  IntersectionExampleScenario.node[80].veinsmobility  co2emission  ETV
vector 5021  IntersectionExampleScenario.node[81].veinsmobility  acceleration  ETV
vector 5022  IntersectionExampleScenario.node[81].veinsmobility  co2emission  ETV
vector 5027  IntersectionExampleScenario.node[82].veinsmobility  speed  ETV
vector 5028  IntersectionExampleScenario.node[82].veinsmobility  acceleration  ETV
vector 5029  IntersectionExampleScenario.node[82].veinsmobility  co2emission  ETV
4882	2124121 6921 18220 26135 153.75 209.25 223 0.973 11.450879080643 575.6474112762 2766.2964959661
4881	2131042 7290 18220 26135 153.75 209.25 223 -4.4268379211426 2.5000000596046 37.15309715271 374.44072403596
4880	2138332 7338 18179 26135 153.5 209.25 224 0 15.375 2248.947311148 28982.563507039
4879	2145670 7622 18138 26135 153.25 209.25 225 483.14999389648 797.07032012939 126700.45389557 73439707.868236
4878	2153292 7636 18138 26135 153.25 209.25 225 483.14999389648 732.39801025391 117221.22137451 62162627.845464
vector 5032  IntersectionExampleScenario.node[83].veinsmobility  posx  ETV
vector 5033  IntersectionExampleScenario.node[83].veinsmobility  posy  ETV
vector 5034  IntersectionExampleScenario.node[83].veinsmobility  speed  ETV
vector 5035  IntersectionExampleScenario.node[83].veinsmobility  acceleration  ETV
vector 5036  IntersectionExampleScenario.node[83].veinsmobility  co2emission  ETV
vector 5039  IntersectionExampleScenario.node[84].veinsmobility  posx  ETV
vector 5040  IntersectionExampleScenario.node[84].veinsmobility  posy  ETV
vector 5046  IntersectionExampleScenario.node[85].veinsmobility  posx  ETV
vector 5047  IntersectionExampleScenario.node[85].veinsmobility  posy  ETV
vector 5041  IntersectionExampleScenario.node[84].veinsmobility  speed  ETV
vector 5042  IntersectionExampleScenario.node[84].veinsmobility  acceleration  ETV
vector 5043  IntersectionExampleScenario.node[84].veinsmobility  co2emission  ETV
vector 5048  IntersectionExampleScenario.node[85].veinsmobility  speed  ETV
vector 5049  IntersectionExampleScenario.node[85].veinsmobility  acceleration  ETV
vector 5050  IntersectionExampleScenario.node[85].veinsmobility  co2emission  ETV
4770	2162116 12025 11380 26678 112.75 212.5 400 0.973 11.36141391502 811.48546863198 3297.503949798
4769	2174141 11634 11380 26678 112.75 212.5 400 -24.916404724121 4 37.15309715271 1240.7903892495
4768	2185775 11887 11333 26678 112.5 212.5 401 0 15.25 2285.9643602408 28619.980324843
4767	2197662 13607 11286 26678 112.25 212.5 402 486.85000610352 733.15849304199 204051.04089355 104767018.32702
4766	2211269 13652 11286 26678 112.25 212.5 402 486.63604736328 813.34453582764 220379.34513855 123500778.24867
4777	2224921 12216 12101 27106 116.75 215 394 0.973 11.36141391502 782.32036832329 3093.8133531967
4776	2237137 12887 12101 27106 116.75 215 394 -3.8870344161987 2.5 37.32285118103 499.43432880371
4775	2250024 12779 12057 27106 116.5 215 395 0 15.25 2267.5620553968 27696.70231201
4774	2262803 13456 12012 27106 116.25 215 396 486.85000610352 734.53103637695 201204.4024353 103436531.33435
4773	2276259 13428 12012 27106 116.25 215 396 486.85000610352 805.78321838379 217948.11026001 122414249.47356
vector 5053  IntersectionExampleScenario.node[86].veinsmobility  posx  ETV
vector 5054  IntersectionExampleScenario.node[86].veinsmobility  posy  ETV
vector 5055  IntersectionExampleScenario.node[86].veinsmobility  speed  ETV
vector 5056  IntersectionExampleScenario.node[86].veinsmobility  acceleration  ETV
vector 5057  IntersectionExampleScenario.node[86].veinsmobility  co2emission  ETV
vector 5060  IntersectionExampleScenario.node[87].veinsmobility  posx  ETV
vector 5061  IntersectionExampleScenario.node[87].veinsmobility  posy  ETV
vector 5062  IntersectionExampleScenario.node[87].veinsmobility  speed  ETV
vector 5063  IntersectionExampleScenario.node[87].veinsmobility  acceleration  ETV
vector 5064  IntersectionExampleScenario.node[87].veinsmobility  co2emission  ETV
4819	2290479 10810 14029 27406 128.25 216.75 355 0.973 11.648172402475 719.66213988568 3055.4762186674
4818	2301289 11489 14029 27406 128.25 216.75 355 -3.8967390060425 2.5000009536743 38.341367721558 440.36665584406
4817	2312778 11597 13984 27406 128 216.75 356 0 15.64999961853 2200.0720727015 26604.752292616
4816	2324375 12128 13939 27406 127.75 216.75 357 238.41900634766 486.85000610352 165502.11810303 77906512.27814
4815	2336503 12101 13939 27406 127.75 216.75 357 483.12435913086 785.82187652588 196628.46599579 110316885.81542
vector 5067  IntersectionExampleScenario.node[88].veinsmobility  posx  ETV
vector 5068  IntersectionExampleScenario.node[88].veinsmobility  posy  ETV
vector 5069  IntersectionExampleScenario.node[88].veinsmobility  speed  ETV
vector 5070  IntersectionExampleScenario.node[88].veinsmobility  acceleration  ETV
vector 5071  IntersectionExampleScenario.node[88].veinsmobility  co2emission  ETV
4854	2349000 9054 17260 27807 147.75 219 286 0.973 12.099024792222 682.39936168992 3264.6292359082
4853	2358054 9146 17260 27807 147.75 219 286 -4.5 2.5 40.038900375366 441.57965349453
4852	2367200 9450 17219 27807 147.5 219 287 0 16.27499961853 2179.3946002983 27589.403313481
4851	2376650 9785 17178 27807 147.25 219 288 486.85000610352 731.58686828613 148105.65519714 77228738.821984
4850	2386435 9756 17178 27807 147.25 219 288 486.84225463867 785.82187652588 159818.51628876 90565291.966946
4896	2396191 7541 18683 28108 156.5 220.75 258 0.96333723109819 12.099024792222 703.89256987648 4044.1712455461
4895	2403732 6745 18683 28108 156.5 220.75 258 -28.461864471436 4 40.208654403687 1279.8713217237
4894	2410477 7119 18638 28108 156.25 220.75 259 0 16.27499961853 2173.4314517975 30944.295561262
4893	2417596 8819 18593 28108 156 220.75 260 184.17810058594 483.36395263672 110612.87692261 49112941.109672
4892	2426415 8766 18593 28108 156 220.75 260 486.85000610352 731.43809509277 134431.05258179 70544145.013793
vector 5074  IntersectionExampleScenario.node[89].veinsmobility  posx  ETV
vector 5075  IntersectionExampleScenario.node[89].veinsmobility  posy  ETV
vector 5076  IntersectionExampleScenario.node[89].veinsmobility  speed  ETV
vector 5077  IntersectionExampleScenario.node[89].veinsmobility  acceleration  ETV
vector 5078  IntersectionExampleScenario.node[89].veinsmobility  co2emission  ETV
vector 5081  IntersectionExampleScenario.node[90].veinsmobility  posx  ETV
vector 5082  IntersectionExampleScenario.node[90].veinsmobility  posy  ETV
vector 5088  IntersectionExampleScenario.node[91].veinsmobility  posx  ETV
vector 5089  IntersectionExampleScenario.node[91].veinsmobility  posy  ETV
vector 5083  IntersectionExampleScenario.node[90].veinsmobility  speed  ETV
vector 5084  IntersectionExampleScenario.node[90].veinsmobility  acceleration  ETV
vector 5085  IntersectionExampleScenario.node[90].veinsmobility  co2emission  ETV
vector 5090  IntersectionExampleScenario.node[91].veinsmobility  speed  ETV
vector 5091  IntersectionExampleScenario.node[91].veinsmobility  acceleration  ETV
vector 5092  IntersectionExampleScenario.node[91].veinsmobility  co2emission  ETV
vector 5095  IntersectionExampleScenario.node[92].veinsmobility  posx  ETV
vector 5096  IntersectionExampleScenario.node[92].veinsmobility  posy  ETV
vector 5097  IntersectionExampleScenario.node[92].veinsmobility  speed  ETV
vector 5098  IntersectionExampleScenario.node[92].veinsmobility  acceleration  ETV
vector 5099  IntersectionExampleScenario.node[92].veinsmobility  co2emission  ETV
4924	2436765 7023 21110 29631 171.5 229.25 232 0.973 11.450879080643 589.58818373104 2819.831475001
4923	2443788 6439 21110 29631 171.5 229.25 232 -6.7711095809937 4 36.98334312439 452.58186531079
4922	2450227 6751 21071 29631 171.25 229.25 233 0 15.375 2182.7726492882 30224.122440747
4921	2456978 7946 21032 29631 171 229.25 234 483.14999389648 733.20059204102 121637.18687439 64346293.321318
4920	2464924 7927 21032 29631 171 229.25 234 184.17810058594 486.85000610352 98416.240264893 43451422.184157
4931	2472851 5863 22682 29771 183 230 189 0.973 11.990504229548 556.85359593248 3037.3636408481
4930	2478714 6093 22682 29771 183 230 189 -2.1371688842773 2.5 39.699392318726 317.26010173998
4929	2484807 6277 22651 29771 182.75 230 190 1.6161912679672 16.125 2217.5938060284 30290.316990535
4928	2491084 6493 22620 29771 182.5 230 191 483.14999389648 483.14999389648 92281.648834229 44585878.071015
4927	2497577 6460 22620 29771 182.5 230 191 184.17810058594 733.33129882812 85532.979919434 42395323.526
4938	2504037 6210 22927 30311 185 233 193 0.973 11.450879080643 566.23132395704 2934.2735422017
4937	2510247 5981 22927 30311 185 233 193 -4.5 2.5 37.492597579956 358.29102974852
4936	2516228 6308 22896 30311 184.75 233 194 4.3322882652283 15.375 2280.0074863434 29932.392966076
4935	2522536 6621 22865 30311 184.5 233 195 483.14999389648 733.08073425293 102726.7911377 55163432.511318
4934	2529157 6585 22865 30311 184.5 233 195 166.078125 486.86401367188 77194.138549805 32668282.800486
4994	2535742 4963 24353 30866 196.25 236.25 161 0.973 11.36141391502 510.91562927624 3108.3992030278
4993	2540705 5022 24353 30866 196.25 236.25 161 -3.656566619873 2.5 36.98334312439 314.57246578456
4992	2545727 5190 24316 30866 196 236.25 162 5.6500000953674 15.25 2067.28399086 27529.970675869
4991	2550917 5533 24279 30866 195.75 236.25 163 236.86358642578 483.14999389648 70393.060913086 31340287.249192
4990	2556450 5524 24279 30866 195.75 236.25 163 212.90466308594 483.14999389648 66472.667999268 28479616.451751
4980	2561974 5520 24243 31025 195.5 237.25 168 0.973 11.36141391502 527.11365815623 2747.410427346
4979	2567494 4901 24243 31025 195.5 237.25 168 -3.6574907302856 2.5 37.492597579956 373.61403008423
4978	2572395 5510 24208 31025 195.25 237.25 169 2.5128645896912 15.25 2183.1247551441 30345.799103206
4977	2577905 5769 24173 31025 195 237.25 170 486.67700195312 785.82187652588 96836.230323792 56949659.640669
4976	2583674 5770 24173 31025 195 237.25 170 235.97192382812 483.14999389648 73784.744873047 32987049.859778
vector 5102  IntersectionExampleScenario.node[93].veinsmobility  posx  ETV
vector 5103  IntersectionExampleScenario.node[93].veinsmobility  posy  ETV
vector 5104  IntersectionExampleScenario.node[93].veinsmobility  speed  ETV
vector 5105  IntersectionExampleScenario.node[93].veinsmobility  acceleration  ETV
vector 5106  IntersectionExampleScenario.node[93].veinsmobility  co2emission  ETV
4903	2589840 9267 19975 32064 164.25 244 320 0.973 11.810082123732 708.0045555341 3268.5481182379
4902	2599107 9342 19975 32064 164.25 244 320 -6.5104122161865 4 39.869146347046 507.28327108008
4901	2608449 9412 19934 32064 164 244 321 0 15.875 2184.4377494864 27959.669938062
4900	2617861 10877 19893 32064 163.75 244 322 486.85000610352 734.37205505371 164840.46224976 85511190.443923
4899	2628738 10924 19893 32064 163.75 244 322 486.63604736328 785.82187652588 175167.21092987 97368476.916262
vector 5109  IntersectionExampleScenario.node[94].veinsmobility  posx  ETV
vector 5110  IntersectionExampleScenario.node[94].veinsmobility  posy  ETV
vector 5111  IntersectionExampleScenario.node[94].veinsmobility  speed  ETV
vector 5112  IntersectionExampleScenario.node[94].veinsmobility  acceleration  ETV
vector 5113  IntersectionExampleScenario.node[94].veinsmobility  co2emission  ETV
4910	2640058 9662 20209 32452 165.75 246.5 324 0.973 11.810082123732 712.06779820295 3221.9073963823
4909	2649720 9623 20209 32452 165.75 246.5 324 -4.5 2.5 38.850629806519 524.68201684581
4908	2659343 9755 20170 32452 165.5 246.5 325 0 15.875 2274.8261853531 29004.245502482
4907	2669098 11080 20131 32452 165.25 246.5 326 486.85000610352 734.91539001465 166939.89611816 86637094.193487
4906	2680178 11063 20131 32452 165.25 246.5 326 486.66467285156 806.11563110352 179670.66290283 101447233.63671
vector 5116  IntersectionExampleScenario.node[95].veinsmobility  posx  ETV
vector 5117  IntersectionExampleScenario.node[95].veinsmobility  posy  ETV
vector 5123  IntersectionExampleScenario.node[96].veinsmobility  posx  ETV
vector 5124  IntersectionExampleScenario.node[96].veinsmobility  posy  ETV
vector 5118  IntersectionExampleScenario.node[95].veinsmobility  speed  ETV
vector 5119  IntersectionExampleScenario.node[95].veinsmobility  acceleration  ETV
vector 5120  IntersectionExampleScenario.node[95].veinsmobility  co2emission  ETV
vector 5125  IntersectionExampleScenario.node[96].veinsmobility  speed  ETV
vector 5126  IntersectionExampleScenario.node[96].veinsmobility  acceleration  ETV
vector 5127  IntersectionExampleScenario.node[96].veinsmobility  co2emission  ETV
vector 5130  IntersectionExampleScenario.node[97].veinsmobility  posx  ETV
vector 5131  IntersectionExampleScenario.node[97].veinsmobility  posy  ETV
vector 5132  IntersectionExampleScenario.node[97].veinsmobility  speed  ETV
vector 5133  IntersectionExampleScenario.node[97].veinsmobility  acceleration  ETV
vector 5134  IntersectionExampleScenario.node[97].veinsmobility  co2emission  ETV
4917	2692429 10657 20369 33146 166.75 250.75 337 0.973 10.916047529558 689.74475520168 2680.8092452481
4916	2703086 11025 20369 33146 166.75 250.75 337 -4.5 2.5 38.893590927124 449.9786986992
4915	2714111 10956 20328 33146 166.5 250.75 338 0 14.625 2316.7812870704 27665.480746667
4914	2725067 11522 20287 33146 166.25 250.75 339 486.85000610352 734.05249023438 173895.38606262 90428283.178119
4913	2736589 11481 20287 33146 166.25 250.75 339 486.83432006836 818.2259979248 189953.11591339 109321727.16709
vector 5137  IntersectionExampleScenario.node[98].veinsmobility  posx  ETV
vector 5138  IntersectionExampleScenario.node[98].veinsmobility  posy  ETV
vector 5139  IntersectionExampleScenario.node[98].veinsmobility  speed  ETV
vector 5140  IntersectionExampleScenario.node[98].veinsmobility  acceleration  ETV
vector 5141  IntersectionExampleScenario.node[98].veinsmobility  co2emission  ETV
vector 5144  IntersectionExampleScenario.node[99].veinsmobility  posx  ETV
vector 5145  IntersectionExampleScenario.node[99].veinsmobility  posy  ETV
vector 5146  IntersectionExampleScenario.node[99].veinsmobility  speed  ETV
4945	2748695 8121 23172 33395 187 252.25 262 0.973 11.648172402475 620.11156205069 2873.4333405944
4944	2756816 8702 23172 33395 187 252.25 262 -3.9541342258453 2.5 38.813405990601 325.05576735819
4943	2765518 8628 23141 33395 186.75 252.25 263 0 15.64999961853 2190.3138937876 27475.848661268
4942	2774146 8969 23110 33395 186.5 252.25 264 486.85000610352 734.26823425293 136779.45550537 71961495.365162
4941	2783115 8961 23110 33395 186.5 252.25 264 486.69055175781 785.82187652588 146817.93608856 83547576.450235
vector 5147  IntersectionExampleScenario.node[99].veinsmobility  acceleration  ETV
vector 5148  IntersectionExampleScenario.node[99].veinsmobility  co2emission  ETV
5008	2792243 6235 25581 33732 205.25 254.25 197 0.973 10.916047529558 536.03425912519 2514.0203588969
5007	2798478 5690 25581 33732 205.25 254.25 197 -7.1267910003662 4 34.437047958374 443.47186880003
5006	2804168 6116 25548 33732 205 254.25 198 0 14.625 2182.5621302128 29045.20439781
5005	2810284 6740 25515 33732 204.75 254.25 199 184.17810058594 483.36395263672 81347.627807617 35192188.435276
5004	2817024 6705 25515 33732 204.75 254.25 199 486.85000610352 734.64698791504 105699.10577393 57206414.618927
5022	2823729 6106 26018 33928 208.5 255.5 189 0.973 10.916047529558 576.08902882975 2798.8607572064
5021	2829835 6210 26018 33928 208.5 255.5 189 -4.5 2.5000009536743 41.018243789673 423.31884692061
5020	2836045 6199 25981 33928 208.25 255.5 190 0 16.094989776611 2233.2512068897 31324.055950545
5019	2842244 6460 25944 33928 208 255.5 191 172.9296875 483.14999389648 76946.711303711 33027845.881685
5018	2848704 6487 25944 33928 208 255.5 191 486.85000610352 733.81028747559 101047.00686646 54434962.86023
vector 5151  IntersectionExampleScenario.node[100].veinsmobility  posx  ETV
vector 5152  IntersectionExampleScenario.node[100].veinsmobility  posy  ETV
vector 5153  IntersectionExampleScenario.node[100].veinsmobility  speed  ETV
[...]
vector 9017  IntersectionExampleScenario.node[652].veinsmobility  speed  ETV
vector 9018  IntersectionExampleScenario.node[652].veinsmobility  acceleration  ETV
vector 9019  IntersectionExampleScenario.node[652].veinsmobility  co2emission  ETV
8851	27345130 7467 250706 260062 1709.5 1766.25 228 0.973 10.916047529558 564.63657731314 2537.9162885932
8850	27352597 6782 250706 260062 1709.5 1766.25 228 -7.8153886795044 4 34.267293930054 448.84467511232
8849	27359379 7192 250669 260062 1709.25 1766.25 229 0 14.625 2179.6677105427 28929.234149374
8848	27366571 8211 250632 260062 1709 1766.25 230 235.92425537109 483.14999389648 102324.27926636 46635106.868548
8847	27374782 8254 250632 260062 1709 1766.25 230 184.17810058594 483.36395263672 95941.579650879 42066479.53425
8872	27383036 7571 251181 260173 1712.5 1767 219 0.973 11.093806525473 574.34012737459 2612.3828974354
8871	27390607 7188 251181 260173 1712.5 1767 219 -4.5 2.5000009536743 35.795072555542 422.48638278347
8870	27397795 7785 251140 260173 1712.25 1767 220 0 14.875 2271.216321962 30787.905987624
8869	27405580 7954 251099 260173 1712 1767 221 483.14999389648 483.14999389648 106776.14865112 51588895.56908
8868	27413534 7916 251099 260173 1712 1767 221 171.40313720703 734.78590393066 99198.725891113 49150289.270031
vector 9022  IntersectionExampleScenario.node[653].veinsmobility  posx  ETV
vector 9023  IntersectionExampleScenario.node[653].veinsmobility  posy  ETV
vector 9024  IntersectionExampleScenario.node[653].veinsmobility  speed  ETV
8886	27421682 6909 251841 260323 1716.5 1768 207 0.973 11.882766162391 605.30009929557 3086.8513303901
8885	27428591 7202 251841 260323 1716.5 1768 207 -4.3552360534668 2.5000009536743 41.303224563599 387.69256343516
8884	27435793 7314 251800 260323 1716.25 1768 208 0 16.098243713379 2264.2447919548 31237.842995345
8883	27443107 7522 251759 260323 1716 1768 209 483.14999389648 483.14999389648 100978.34872437 48787688.569854
8882	27450629 7477 251759 260323 1716 1768 209 171.59063720703 732.86175537109 93011.850997925 45787674.910996
vector 9025  IntersectionExampleScenario.node[653].veinsmobility  acceleration  ETV
vector 9026  IntersectionExampleScenario.node[653].veinsmobility  co2emission  ETV
8865	27458275 8003 251060 261178 1711.75 1774 250 0.973 11.90022389248 636.87500046776 2986.7617335384
8864	27466278 7347 251060 261178 1711.75 1774 250 -4.5 2.5 39.869146347046 482.22350218108
8863	27473625 7649 251020 261178 1711.5 1774 251 0 16 2281.6056696177 32434.250961653
8862	27481274 8981 250979 261178 1711.25 1774 252 483.00192260742 805.05782318115 139423.03414917 79544617.961007
8861	27490255 9069 250979 261178 1711.25 1774 252 483.14999389648 732.73742675781 129937.88539124 68093708.931819
8858	27499324 8244 250784 261211 1710 1774.25 258 0.973 11.00486315618 595.71002856002 2604.6561978959
8857	27507568 7472 250784 261211 1710 1774.25 258 -8.9527311325073 4 34.097539901733 465.54392889226
8856	27515040 7898 250745 261211 1709.75 1774.25 259 0 14.75 2207.4479663372 29468.083042919
8855	27522938 9348 250706 261211 1709.5 1774.25 260 237.09387207031 785.82187652588 133191.33230591 72615635.574933
8854	27532286 9360 250706 261211 1709.5 1774.25 260 483.14999389648 483.14999389648 125618.99841309 60692818.316565
vector 9029  IntersectionExampleScenario.node[654].veinsmobility  posx  ETV
vector 9030  IntersectionExampleScenario.node[654].veinsmobility  posy  ETV
vector 9031  IntersectionExampleScenario.node[654].veinsmobility  speed  ETV
vector 9032  IntersectionExampleScenario.node[654].veinsmobility  acceleration  ETV
vector 9033  IntersectionExampleScenario.node[654].veinsmobility  co2emission  ETV
8907	27542047 7216 252794 261507 1722.25 1776.5 218 0.973 11.200708441096 567.48518111507 2628.8502987192
8906	27549263 7467 252794 261507 1722.25 1776.5 218 -3.7807319164276 2.5000019073486 37.32285118103 317.43828992245
8905	27556730 7726 252749 261507 1722 1776.5 219 0 15.02499961853 2214.4103688486 29061.322235078
8904	27564456 7888 252704 261507 1721.75 1776.5 220 237.12890625 785.82187652588 114592.01869965 63890517.855622
8903	27572344 7920 252704 261507 1721.75 1776.5 220 483.14999389648 483.14999389648 106292.99865723 51355461.652478
vector 9036  IntersectionExampleScenario.node[655].veinsmobility  posx  ETV
vector 9037  IntersectionExampleScenario.node[655].veinsmobility  posy  ETV
vector 9038  IntersectionExampleScenario.node[655].veinsmobility  speed  ETV
vector 9039  IntersectionExampleScenario.node[655].veinsmobility  acceleration  ETV
vector 9040  IntersectionExampleScenario.node[655].veinsmobility  co2emission  ETV
8942	27580665 6587 254164 261873 1729.75 1779.25 199 0.973 11.648172402475 565.86298692666 2986.9523058288
8941	27587252 6388 254164 261873 1729.75 1779.25 199 -4.1954555511475 2.5000019073486 38.341367721558 373.55716421886
8940	27593640 6876 254115 261873 1729.5 1779.25 200 2.5987837314606 15.64999961853 2186.7941567898 27880.461844208
8939	27600516 7223 254066 261873 1729.25 1779.25 201 486.81723022461 785.82187652588 113798.51396942 66231199.410271
8938	27607739 7224 254066 261873 1729.25 1779.25 201 236.24371337891 483.14999389648 88880.605743408 40315136.771533
8844	27614963 8944 250597 262029 1708.75 1780.5 288 0.973 11.36141391502 661.53344550841 3002.5282978941
8843	27623907 8699 250597 262029 1708.75 1780.5 288 -7.3646030426025 4 36.98334312439 537.31171189095
8842	27632606 8858 250561 262029 1708.5 1780.5 289 0 15.25 2176.7727234364 27491.406100458
8841	27641464 10374 250524 262029 1708.25 1780.5 290 486.85000610352 732.63011169434 149510.35012817 78202329.79205
8840	27651838 10423 250524 262029 1708.25 1780.5 290 486.63604736328 785.82187652588 158160.52701569 88359257.159019
8893	27662261 7897 251965 262091 1717.25 1781 256 0.96333723109819 12.099024792222 649.72971503766 3456.4440228977
8892	27670158 7498 251965 262091 1717.25 1781 256 -4.5 2.5 40.208654403687 499.74542373335
8891	27677656 7936 251924 262091 1717 1781 257 0 16.27499961853 2220.88613832 30442.524806606
8890	27685592 9287 251882 262091 1716.75 1781 258 486.85000610352 486.85000610352 125607.30157471 61151915.538292
8889	27694879 9268 251882 262091 1716.75 1781 258 235.28082275391 785.82187652588 133511.7569046 73235570.161549
8900	27704147 8691 252704 262603 1721.75 1785.5 256 0.973 11.200708441096 610.22993134578 2740.2902752501
8899	27712838 8744 252704 262603 1721.75 1785.5 256 -4.5 2.5 35.285810470581 411.32544575047
8898	27721582 8821 252663 262603 1721.5 1785.5 257 0 15.02499961853 2186.2787350761 28528.285657503
8897	27730403 9279 252621 262603 1721.25 1785.5 258 486.85000610352 733.96438598633 134255.1269989 70994781.852463
8896	27739682 9266 252621 262603 1721.25 1785.5 258 486.85000610352 785.82187652588 142237.10109711 80412181.192992
8928	27748948 8020 253468 262630 1726 1785.75 240 0.973 11.990504229548 618.64797014553 2973.480421201
8927	27756968 8384 253468 262630 1726 1785.75 240 -3.9270858764648 2.5 39.869146347046 373.64156758264
8926	27765352 8441 253421 262630 1725.75 1785.75 241 0 16.125 2229.791935036 30220.485245311
8925	27773793 8713 253374 262630 1725.5 1785.75 242 486.85000610352 486.85000610352 117817.70147705 57359548.683204
8924	27782506 8696 253374 262630 1725.5 1785.75 242 237.76513671875 790.18281555176 127081.78485107 70927982.390598
8837	27791202 10166 250313 262921 1706.75 1788.75 329 0.973 11.648172402475 741.55107221091 3296.3496325078
8836	27801368 10256 250313 262921 1706.75 1788.75 329 -7.0349903106689 4 41.566686630249 549.17767562143
8835	27811624 10359 250276 262921 1706.5 1788.75 330 0 16.088636398315 2215.5615181029 29339.689914684
8834	27821983 11867 250239 262921 1706.25 1788.75 331 184.17810058594 733.88447570801 149544.11647034 71674033.936542
8833	27833850 11918 250239 262921 1706.25 1788.75 331 486.85000610352 486.85000610352 161147.35202026 78454589.314631
8879	27845768 9636 251267 263088 1713 1790.75 312 0.96333723109819 12.099024792222 693.05874744906 3220.9723664724
8878	27855404 9722 251267 263088 1713 1790.75 312 -4.5 2.5 40.208654403687 480.50236778191
8877	27865126 10006 251224 263088 1712.75 1790.75 313 0 16.27499961853 2215.0903812498 29095.821602703
8876	27875132 11267 251181 263088 1712.5 1790.75 314 184.17810058594 733.12542724609 141216.45031738 67630570.168873
8875	27886399 11305 251181 263088 1712.5 1790.75 314 486.85000610352 486.85003662109 152870.90197754 74425199.59053
vector 9043  IntersectionExampleScenario.node[656].veinsmobility  posx  ETV
vector 9044  IntersectionExampleScenario.node[656].veinsmobility  posy  ETV
vector 9045  IntersectionExampleScenario.node[656].veinsmobility  speed  ETV
vector 9046  IntersectionExampleScenario.node[656].veinsmobility  acceleration  ETV
vector 9047  IntersectionExampleScenario.node[656].veinsmobility  co2emission  ETV
8914	27898105 9200 252794 263246 1722.25 1792.75 283 0.94600815583079 12.26218747632 670.63730931565 3451.9238470278
8913	27907305 9801 252794 263246 1722.25 1792.75 283 -3.7229418754578 2.5000009536743 41.566686630249 399.08227756434
8912	27917106 9848 252749 263246 1722 1792.75 284 0 16.5 2179.4462950211 28090.312465003
8911	27926954 10222 252704 263246 1721.75 1792.75 285 184.17810058594 483.32034301758 119364.7645874 51938419.778347
8910	27937176 10236 252704 263246 1721.75 1792.75 285 486.85000610352 731.56930541992 146446.34422302 76293330.994127
vector 9050  IntersectionExampleScenario.node[657].veinsmobility  posx  ETV
vector 9051  IntersectionExampleScenario.node[657].veinsmobility  posy  ETV
vector 9052  IntersectionExampleScenario.node[657].veinsmobility  speed  ETV
vector 9053  IntersectionExampleScenario.node[657].veinsmobility  acceleration  ETV
vector 9054  IntersectionExampleScenario.node[657].veinsmobility  co2emission  ETV
8921	27947813 9535 253421 263441 1725.75 1795.25 279 0.973 11.648172402475 649.3195993455 3004.987247881
8920	27957348 9636 253421 263441 1725.75 1795.25 279 -4.5 2.5000019073486 38.341367721558 419.91697500014
8919	27966984 9870 253374 263441 1725.5 1795.25 280 0 15.64999961853 2259.7772075888 29580.641598228
8918	27976854 10070 253329 263441 1725.25 1795.25 281 174.53436279297 734.11148071289 124781.11042786 59814547.756566
8917	27986924 10117 253329 263441 1725.25 1795.25 281 486.85000610352 486.85000610352 136804.85171509 66603442.892481
8949	27997041 7321 256259 263621 1741.5 1797.5 225 0.973 11.450879080643 585.07936947008 2840.0422953342
8948	28004362 6753 256259 263621 1741.5 1797.5 225 -6.7711095809937 4 36.98334312439 456.08186531079
8947	28011115 7106 256217 263621 1741.25 1797.5 226 0 15.375 2209.3351569176 30725.483345122
8946	28018221 8171 256174 263621 1741 1797.5 227 483.14999389648 483.14999389648 109675.0486145 52989499.068693
8945	28026392 8142 256174 263621 1741 1797.5 227 184.17810058594 732.67367553711 103388.54792786 51310242.362334
vector 9057  IntersectionExampleScenario.node[658].veinsmobility  posx  ETV
vector 9058  IntersectionExampleScenario.node[658].veinsmobility  posy  ETV
vector 9059  IntersectionExampleScenario.node[658].veinsmobility  speed  ETV
8935	28034766 8791 253925 263799 1728.5 1800 287 0.973 11.648172402475 641.72800587768 3134.4388519919
8934	28043557 8756 253925 263799 1728.5 1800 287 -20.159229278564 4 38.859411239624 962.43536311846
8933	28052313 8836 253878 263799 1728.25 1800 288 0 15.64999961853 1527.4124399051 18239.988685689
8932	28061149 10402 253831 263799 1728 1800 289 423.87451171875 486.85000610352 140073.42129517 67914862.085244
8931	28071551 10371 253831 263799 1728 1800 289 483.14999389648 803.59610748291 160863.21766663 91778014.913597
8956	28081922 6817 256345 263799 1742 1800 233 0.973 12.099024792222 430.41489106097 1857.2982307569
8955	28088739 7178 256345 263799 1742 1800 233 -7.1087465286255 2.5 -22.60000038147 390.33015403259
8954	28095917 7254 256302 263799 1741.75 1800 234 0 16.27499961853 1147.3425294571 13501.92827916
8953	28103171 8427 256259 263799 1741.5 1800 235 184.17810058594 471.60000610352 95744.599273682 40725602.685546
8952	28111598 8459 256259 263799 1741.5 1800 235 486.85000610352 486.85003662109 114409.75149536 55700388.243533
8963	28120057 7166 256598 263799 1743.5 1800 227 0.973 11.648172402475 410.43778051482 1621.6667327948
8962	28127223 7867 256598 263799 1743.5 1800 227 -4.5 2.5 -22.60000038147 337.24899355848
8961	28135090 7725 256555 263799 1743.25 1800 228 0 15.64999961853 1205.3133217199 14434.692570425
8960	28142815 8166 256512 263799 1743 1800 229 163.88433837891 465.2028503418 90426.980010986 37649620.056546
8959	28150981 8242 256512 263799 1743 1800 229 486.84997558594 486.85003662109 111488.65142822 54278250.64316
8970	28159223 7144 257184 263799 1747 1800 213 0.973 11.200708441096 563.90673769832 2748.6283299593
8969	28166367 7453 257184 263799 1747 1800 213 -3.7223773002625 2.5000004768372 36.98334312439 342.13379023842
8968	28173820 7544 257142 263799 1746.75 1800 214 0 15.386597633362 2218.5779285561 29848.751316627
8967	28181364 7739 257099 263799 1746.5 1800 215 483.14999389648 483.14999389648 103877.24868774 50188292.069467
8966	28189103 7688 257099 263799 1746.5 1800 215 184.17810058594 734.13754272461 97228.718765259 48209116.892628
8977	28196791 7001 257352 263799 1748 1800 209 0.973 11.450879080643 592.22250879374 2920.2255001695
8976	28203792 7048 257352 263799 1748 1800 209 -4.5 2.5 39.869146347046 462.29752231255
8975	28210840 7264 257309 263799 1747.75 1800 210 0 15.668356895447 2185.9001570642 29474.042488301
8974	28218104 7586 257266 263799 1747.5 1800 211 483.14999389648 705.6771697998 108484.87509155 56541827.799449
8973	28225690 7552 257266 263799 1747.5 1800 211 162.00311279297 486.85855102539 84600.683074951 36127231.145134
8984	28233242 5561 258990 263799 1758.75 1800 166 0.973 11.54047740176 501.57992555322 2718.4732055839
8983	28238803 5644 258990 263799 1758.75 1800 166 -2.8637142181396 2.5 37.492605209351 284.079428735
8982	28244447 5780 258955 263799 1758.5 1800 167 5.2445502281189 15.5 1998.7960572243 25950.959977946
8981	28250227 6048 258920 263799 1758.25 1800 168 483.14999389648 483.14999389648 81169.198974609 39216897.989165
8980	28256275 6019 258920 263799 1758.25 1800 168 184.17810058594 678.74098205566 71052.24206543 33173169.881276
8991	28262294 5145 259169 263799 1760 1800 161 0.973 12.099024792222 437.43308825068 2416.846116505
8990	28267439 5637 259169 263799 1760 1800 161 -3.7638320922852 2.5 31.39999961853 320.99078779152
8989	28273076 5648 259132 263799 1759.75 1800 162 0 16.27499961853 1330.711950358 16343.076176028
8988	28278724 5866 259095 263799 1759.5 1800 163 454.33587646484 486.85000610352 79136.51675415 38425154.998449
8987	28284590 5852 259095 263799 1759.5 1800 163 483.01007080078 785.82187652588 94597.016136169 56405785.846432
8998	28290442 5374 259316 263799 1761 1800 157 0.973 10.756497587458 457.03947789079 2262.4496931627
8997	28295816 5129 259316 263799 1761 1800 157 -7.102258682251 4 32.739545822144 427.04671479037
8996	28300945 5318 259279 263799 1760.75 1800 158 0 14.39999961853 1810.7075824738 23158.778918406
8995	28306263 5712 259242 263799 1760.5 1800 159 486.63604736328 785.82187652588 92279.533851624 55248127.900876
8994	28311975 5668 259242 263799 1760.5 1800 159 328.14251708984 483.14999389648 73194.63848877 33984162.405399
9005	28317643 4765 259915 263799 1765.25 1800 140 0.973 10.253428471757 437.63562128609 2202.4824016725
9004	28322408 4782 259915 263799 1765.25 1800 140 -4.5 2.5 37.00389289856 273.96641760381
9003	28327190 4866 259880 263799 1765 1800 141 4.5442976951599 14.94716835022 1613.7637834549 20381.521614435
9002	28332056 5096 259845 263799 1764.75 1800 142 486.85000610352 790.22969055176 85019.361465454 52532082.87874
9001	28337152 5109 259845 263799 1764.75 1800 142 383.55065917969 483.14999389648 67126.891143799 31812591.507967
9012	28342261 4296 259988 263799 1765.75 1800 138 0.973 11.200708441096 281.87703281834 1285.6424523574
9011	28346557 5046 259988 263799 1765.75 1800 138 -3.9132642745972 2.5 -21.679660499096 175.52502113247
9010	28351603 4979 259951 263799 1765.5 1800 139 0 15.02499961853 1094.807826031 13194.271304336
9009	28356582 5011 259915 263799 1765.25 1800 140 184.17810058594 458.06954956055 51482.961303711 20149181.617495
9008	28361593 5040 259915 263799 1765.25 1800 140 486.85000610352 486.85000610352 68159.000854492 33183209.982019
9019	28366633 4720 260025 263799 1766 1800 137 0.973 10.756497587458 464.31934431566 2363.2198082642
9018	28371353 4646 260025 263799 1766 1800 137 -4.5 2.5 37.985105514526 386.35061369183
9017	28375999 4794 259988 263799 1765.75 1800 138 2.0150074958801 15.673343658447 1629.0895345211 21822.411448387
9016	28380793 4986 259951 263799 1765.5 1800 139 486.81900024414 761.02422332764 79687.448112488 46949100.515674
9015	28385779 4993 259951 263799 1765.5 1800 139 350.16912841797 483.14999389648 64599.714630127 30197135.56866
9026	28390772 3951 260361 263799 1768.25 1800 128 0.973 11.275930274582 310.9246629891 1649.7607690548
9025	28394723 4053 260361 263799 1768.25 1800 128 -7.7924938201904 2.5 -22.60000038147 338.63734191444
9024	28398776 4073 260323 263799 1768 1800 129 0 15.130390167236 1146.8981261253 15623.843774231
9023	28402849 4679 260284 263799 1767.75 1800 130 483.14999389648 483.14999389648 62809.499206543 30346409.158282
9022	28407528 4657 260284 263799 1767.75 1800 130 184.17810058594 471.60000610352 48193.196105957 19206872.305414
9033	28412185 3092 261441 263799 1776 1800 97 0.973 12.192820641944 298.75471070212 1949.6911432609
9032	28415277 3275 261441 263799 1776 1800 97 -7.3151693344116 2.5 -22.60000038147 365.5573067827
9031	28418552 3342 261408 263799 1775.75 1800 98 0 16.404441833496 1147.2808361053 16563.602289793
9030	28421894 3559 261375 263799 1775.5 1800 99 498.39999389648 785.82187652588 61891.246452332 39669681.893704
9029	28425453 3563 261375 263799 1775.5 1800 99 483.14999389648 483.14999389648 47831.849395752 23109957.743615
9040	28429016 2942 261609 263799 1777.25 1800 92 0.973 10.756497587458 230.54185697079 1130.8231381375
9039	28431958 3292 261609 263799 1777.25 1800 92 -2.0858764648438 2.5 -8.7985734939575 146.29445649106
9038	28435250 3328 261575 263799 1777 1800 93 3.4503567218781 14.39999961853 1018.8168087006 12450.352187628
9037	28438578 3363 261540 263799 1776.75 1800 94 184.17810058594 437.8332824707 30289.540618896 10421489.022925
9036	28441941 3383 261540 263799 1776.75 1800 94 486.85000610352 486.85000610352 45763.90057373 22280155.273641
9047	28445324 1111 263225 263799 1792.5 1800 31 1.8321577376031 11.200708441096 155.60834733191 1121.383313073
9046	28446435 989 263225 263799 1792.5 1800 31 -0.086727142333984 2.5 37.156568527222 93.767180898318
9045	28447424 1142 263204 263799 1792.25 1800 32 5.6500000953674 15.02499961853 404.66993141174 5420.7718024116
9044	28448566 1169 263183 263799 1792 1800 33 184.17810058594 280.36682128906 7416.1032714844 1697317.4804554
9043	28449735 1186 263183 263799 1792 1800 33 486.85000610352 486.85000610352 16066.050201416 7821756.6386188
9054	28450921 697 263441 263799 1795.25 1800 20 0.973 11.648172402475 138.90220997631 1194.4350359066
9053	28451618 548 263441 263799 1795.25 1800 20 -0.45709991455078 2.5 38.750120162964 100.42975422231
9052	28452166 744 263420 263799 1795 1800 21 5.6500000953674 15.64999961853 242.75900840759 3039.5800158614
9051	28452910 791 263399 263799 1794.75 1800 22 483.14999389648 483.14999389648 10629.299865723 5135546.1652478
9050	28453701 774 263399 263799 1794.75 1800 22 184.17810058594 239.70532226562 4538.6041870117 942999.22746364
9059	28454475 34 263799 263799 1800 1800 1 5.6500000953674 5.6500000953674 5.6500000953674 31.922501077652
9058	28454509 71 263779 263799 1799.75 1800 2 184.17810058594 184.17810058594 368.35620117188 67843.145470887
9057	28454580 71 263779 263799 1799.75 1800 2 486.85000610352 486.85000610352 973.70001220703 474045.85688599
4447	28454651 612 0 263798 0 1800 31 0 34 709 17593
4448	28455263 630 0 263798 0 1800 31 0 273 4189 786227
