version 2
run nodebug-2-20200605-18:26:03-18076
attr configname nodebug
attr datetime 20200605-18:26:03
attr experiment nodebug
attr inifile omnetpp.ini
attr iterationvars ""
attr iterationvars2 $repetition=2
attr measurement ""
attr network "\"org.car2x.veins.modules.application.ExtTraCIScenarioManagerLaunchd.IntersectionExampleScenario\""
attr processid 18076
attr repetition 2
attr replication #2
attr resultdir results
attr runnumber 2
attr seedset 2
param **.coreDebug false
param **.debug false
param *.**.nic.mac1609_4.bitrate 18Mbps
param *.**.nic.mac1609_4.txPower 20mW
param *.**.nic.mac1609_4.useServiceChannel false
param *.**.nic.phy80211p.analogueModels "xmldoc(\"config.xml\")"
param *.**.nic.phy80211p.decider "xmldoc(\"config.xml\")"
param *.**.nic.phy80211p.sensitivity -89dBm
param *.**.nic.phy80211p.thermalNoise -110dBm
param *.**.nic.phy80211p.usePropagationDelay true
param *.**.nic.phy80211p.useThermalNoise true
param *.annotations.draw false
param *.connectionManager.alpha 2.0
param *.connectionManager.carrierFrequency "5.890e9 Hz"
param *.connectionManager.pMax 20mW
param *.connectionManager.sat -89dBm
param *.connectionManager.sendDirect true
param *.manager.autoShutdown true
param *.manager.host "\"localhost\""
param *.manager.launchConfig "xmldoc(\"paramics.launchd.xml\")"
param *.manager.margin 25
param *.manager.moduleDisplayString "\"\""
param *.manager.moduleName "\"node\""
param *.manager.moduleType "\"org.car2x.veins.nodes.Car\""
param *.manager.port 9999
param *.manager.updateInterval 250ms
param *.node[*0].veinsmobility.accidentCount 0
param *.node[*0].veinsmobility.accidentDuration 30s
param *.node[*0].veinsmobility.accidentStart 75s
param *.node[*].appl.LiderSelectZoneRadio 55.0
param *.node[*].appl.ShareDataZoneRadio 110.0
param *.node[*].appl.TiempoSemaforo 30.0
param *.node[*].appl.beaconInterval 1s
param *.node[*].appl.beaconPriority 3
param *.node[*].appl.dataOnSch false
param *.node[*].appl.dataPriority 2
param *.node[*].appl.debug false
param *.node[*].appl.headerLength "256 bit"
param *.node[*].appl.maxOffset 0.005s
param *.node[*].appl.sendBeacons false
param *.node[*].appl.sendData true
param *.node[*].applType "\"Dummy\""
param *.node[*].mobilityType "\"TraCIMobility\""
param *.node[*].mobilityType.debug true
param *.node[*].veinsmobility.x 0
param *.node[*].veinsmobility.y 0
param *.node[*].veinsmobility.z 1.895
param *.node[*].veinsmobilityType "\"org.car2x.veins.modules.mobility.traci.TraCIMobility\""
param *.node[*].veinsmobilityType.debug true
param *.playgroundSizeX 8500m
param *.playgroundSizeY 8500m
param *.playgroundSizeZ 50m
param *.world.use2D false
param *.world.useTorus false

scalar IntersectionExampleScenario.node[0].appl 	VehicleRemoved 	0
scalar IntersectionExampleScenario.node[0].appl 	ArrivedAtDest 	1
scalar IntersectionExampleScenario.node[0].appl 	IntersectionEnterTime 	3
scalar IntersectionExampleScenario.node[0].appl 	IntersectionExitTime 	25.80441529915
scalar IntersectionExampleScenario.node[0].appl 	NumberOfCollisions 	0
scalar IntersectionExampleScenario.node[0].nic.phy80211p 	busyTime 	0
scalar IntersectionExampleScenario.node[0].nic.mac1609_4 	ReceivedUnicastPackets 	0
scalar IntersectionExampleScenario.node[0].nic.mac1609_4 	ReceivedBroadcasts 	0
scalar IntersectionExampleScenario.node[0].nic.mac1609_4 	SentPackets 	0
scalar IntersectionExampleScenario.node[0].nic.mac1609_4 	SNIRLostPackets 	0
scalar IntersectionExampleScenario.node[0].nic.mac1609_4 	RXTXLostPackets 	0
scalar IntersectionExampleScenario.node[0].nic.mac1609_4 	TotalLostPackets 	0
scalar IntersectionExampleScenario.node[0].nic.mac1609_4 	DroppedPacketsInMac 	0
scalar IntersectionExampleScenario.node[0].nic.mac1609_4 	TooLittleTime 	0
scalar IntersectionExampleScenario.node[0].nic.mac1609_4 	TimesIntoBackoff 	0
scalar IntersectionExampleScenario.node[0].nic.mac1609_4 	SlotsBackoff 	0
scalar IntersectionExampleScenario.node[0].nic.mac1609_4 	NumInternalContention 	0
scalar IntersectionExampleScenario.node[0].nic.mac1609_4 	totalBusyTime 	0
scalar IntersectionExampleScenario.node[0].veinsmobility 	startTime 	3
scalar IntersectionExampleScenario.node[0].veinsmobility 	totalTime 	38.75
scalar IntersectionExampleScenario.node[0].veinsmobility 	stopTime 	42
scalar IntersectionExampleScenario.node[0].veinsmobility 	minSpeed 	5.6500000953674
scalar IntersectionExampleScenario.node[0].veinsmobility 	maxSpeed 	16.5
scalar IntersectionExampleScenario.node[0].veinsmobility 	totalDistance 	542.84637171596
scalar IntersectionExampleScenario.node[0].veinsmobility 	totalCO2Emission 	130.89386272748
scalar IntersectionExampleScenario.node[3].appl 	VehicleRemoved 	0
scalar IntersectionExampleScenario.node[3].appl 	ArrivedAtDest 	1
scalar IntersectionExampleScenario.node[3].appl 	IntersectionEnterTime 	12
scalar IntersectionExampleScenario.node[3].appl 	IntersectionExitTime 	35.59816689344
scalar IntersectionExampleScenario.node[3].appl 	NumberOfCollisions 	0
scalar IntersectionExampleScenario.node[3].nic.phy80211p 	busyTime 	0
scalar IntersectionExampleScenario.node[3].nic.mac1609_4 	ReceivedUnicastPackets 	0
scalar IntersectionExampleScenario.node[3].nic.mac1609_4 	ReceivedBroadcasts 	0
scalar IntersectionExampleScenario.node[3].nic.mac1609_4 	SentPackets 	0
scalar IntersectionExampleScenario.node[3].nic.mac1609_4 	SNIRLostPackets 	0
scalar IntersectionExampleScenario.node[3].nic.mac1609_4 	RXTXLostPackets 	0
scalar IntersectionExampleScenario.node[3].nic.mac1609_4 	TotalLostPackets 	0
scalar IntersectionExampleScenario.node[3].nic.mac1609_4 	DroppedPacketsInMac 	0
scalar IntersectionExampleScenario.node[3].nic.mac1609_4 	TooLittleTime 	0
scalar IntersectionExampleScenario.node[3].nic.mac1609_4 	TimesIntoBackoff 	0
scalar IntersectionExampleScenario.node[3].nic.mac1609_4 	SlotsBackoff 	0
scalar IntersectionExampleScenario.node[3].nic.mac1609_4 	NumInternalContention 	0
scalar IntersectionExampleScenario.node[3].nic.mac1609_4 	totalBusyTime 	0
scalar IntersectionExampleScenario.node[3].veinsmobility 	startTime 	12
scalar IntersectionExampleScenario.node[3].veinsmobility 	totalTime 	39.75
scalar IntersectionExampleScenario.node[3].veinsmobility 	stopTime 	52
scalar IntersectionExampleScenario.node[3].veinsmobility 	minSpeed 	5.6500000953674
scalar IntersectionExampleScenario.node[3].veinsmobility 	maxSpeed 	16.27499961853
scalar IntersectionExampleScenario.node[3].veinsmobility 	totalDistance 	542.89398474804
scalar IntersectionExampleScenario.node[3].veinsmobility 	totalCO2Emission 	131.03724810635
scalar IntersectionExampleScenario.node[1].appl 	VehicleRemoved 	0
scalar IntersectionExampleScenario.node[1].appl 	ArrivedAtDest 	1
scalar IntersectionExampleScenario.node[1].appl 	IntersectionEnterTime 	5.25
scalar IntersectionExampleScenario.node[1].appl 	IntersectionExitTime 	45.327408871293
scalar IntersectionExampleScenario.node[1].appl 	NumberOfCollisions 	0
scalar IntersectionExampleScenario.node[1].nic.phy80211p 	busyTime 	0
scalar IntersectionExampleScenario.node[1].nic.mac1609_4 	ReceivedUnicastPackets 	0
scalar IntersectionExampleScenario.node[1].nic.mac1609_4 	ReceivedBroadcasts 	0
scalar IntersectionExampleScenario.node[1].nic.mac1609_4 	SentPackets 	0
scalar IntersectionExampleScenario.node[1].nic.mac1609_4 	SNIRLostPackets 	0
scalar IntersectionExampleScenario.node[1].nic.mac1609_4 	RXTXLostPackets 	0
scalar IntersectionExampleScenario.node[1].nic.mac1609_4 	TotalLostPackets 	0
scalar IntersectionExampleScenario.node[1].nic.mac1609_4 	DroppedPacketsInMac 	0
scalar IntersectionExampleScenario.node[1].nic.mac1609_4 	TooLittleTime 	0
scalar IntersectionExampleScenario.node[1].nic.mac1609_4 	TimesIntoBackoff 	0
scalar IntersectionExampleScenario.node[1].nic.mac1609_4 	SlotsBackoff 	0
scalar IntersectionExampleScenario.node[1].nic.mac1609_4 	NumInternalContention 	0
scalar IntersectionExampleScenario.node[1].nic.mac1609_4 	totalBusyTime 	0
scalar IntersectionExampleScenario.node[1].veinsmobility 	startTime 	5.25
scalar IntersectionExampleScenario.node[1].veinsmobility 	totalTime 	55.75
scalar IntersectionExampleScenario.node[1].veinsmobility 	stopTime 	61.25
scalar IntersectionExampleScenario.node[1].veinsmobility 	minSpeed 	0
scalar IntersectionExampleScenario.node[1].veinsmobility 	maxSpeed 	16
scalar IntersectionExampleScenario.node[1].veinsmobility 	totalDistance 	554.25534057617
scalar IntersectionExampleScenario.node[1].veinsmobility 	totalCO2Emission 	151.17685248082
scalar IntersectionExampleScenario.node[4].appl 	VehicleRemoved 	0
scalar IntersectionExampleScenario.node[4].appl 	ArrivedAtDest 	1
scalar IntersectionExampleScenario.node[4].appl 	IntersectionEnterTime 	14
scalar IntersectionExampleScenario.node[4].appl 	IntersectionExitTime 	46.259955683869
scalar IntersectionExampleScenario.node[4].appl 	NumberOfCollisions 	0
scalar IntersectionExampleScenario.node[4].nic.phy80211p 	busyTime 	0
scalar IntersectionExampleScenario.node[4].nic.mac1609_4 	ReceivedUnicastPackets 	0
scalar IntersectionExampleScenario.node[4].nic.mac1609_4 	ReceivedBroadcasts 	0
scalar IntersectionExampleScenario.node[4].nic.mac1609_4 	SentPackets 	0
scalar IntersectionExampleScenario.node[4].nic.mac1609_4 	SNIRLostPackets 	0
scalar IntersectionExampleScenario.node[4].nic.mac1609_4 	RXTXLostPackets 	0
scalar IntersectionExampleScenario.node[4].nic.mac1609_4 	TotalLostPackets 	0
scalar IntersectionExampleScenario.node[4].nic.mac1609_4 	DroppedPacketsInMac 	0
scalar IntersectionExampleScenario.node[4].nic.mac1609_4 	TooLittleTime 	0
scalar IntersectionExampleScenario.node[4].nic.mac1609_4 	TimesIntoBackoff 	0
scalar IntersectionExampleScenario.node[4].nic.mac1609_4 	SlotsBackoff 	0
scalar IntersectionExampleScenario.node[4].nic.mac1609_4 	NumInternalContention 	0
scalar IntersectionExampleScenario.node[4].nic.mac1609_4 	totalBusyTime 	0
scalar IntersectionExampleScenario.node[4].veinsmobility 	startTime 	14
scalar IntersectionExampleScenario.node[4].veinsmobility 	totalTime 	49
scalar IntersectionExampleScenario.node[4].veinsmobility 	stopTime 	63.25
scalar IntersectionExampleScenario.node[4].veinsmobility 	minSpeed 	1.4701368808746
scalar IntersectionExampleScenario.node[4].veinsmobility 	maxSpeed 	15.64999961853
scalar IntersectionExampleScenario.node[4].veinsmobility 	totalDistance 	544.60373412573
scalar IntersectionExampleScenario.node[4].veinsmobility 	totalCO2Emission 	136.7478394722
scalar IntersectionExampleScenario.node[5].appl 	VehicleRemoved 	0
scalar IntersectionExampleScenario.node[5].appl 	ArrivedAtDest 	1
scalar IntersectionExampleScenario.node[5].appl 	IntersectionEnterTime 	18
scalar IntersectionExampleScenario.node[5].appl 	IntersectionExitTime 	48.262066365191
scalar IntersectionExampleScenario.node[5].appl 	NumberOfCollisions 	0
scalar IntersectionExampleScenario.node[5].nic.phy80211p 	busyTime 	0
scalar IntersectionExampleScenario.node[5].nic.mac1609_4 	ReceivedUnicastPackets 	0
scalar IntersectionExampleScenario.node[5].nic.mac1609_4 	ReceivedBroadcasts 	0
scalar IntersectionExampleScenario.node[5].nic.mac1609_4 	SentPackets 	0
scalar IntersectionExampleScenario.node[5].nic.mac1609_4 	SNIRLostPackets 	0
scalar IntersectionExampleScenario.node[5].nic.mac1609_4 	RXTXLostPackets 	0
scalar IntersectionExampleScenario.node[5].nic.mac1609_4 	TotalLostPackets 	0
scalar IntersectionExampleScenario.node[5].nic.mac1609_4 	DroppedPacketsInMac 	0
scalar IntersectionExampleScenario.node[5].nic.mac1609_4 	TooLittleTime 	0
scalar IntersectionExampleScenario.node[5].nic.mac1609_4 	TimesIntoBackoff 	0
scalar IntersectionExampleScenario.node[5].nic.mac1609_4 	SlotsBackoff 	0
scalar IntersectionExampleScenario.node[5].nic.mac1609_4 	NumInternalContention 	0
scalar IntersectionExampleScenario.node[5].nic.mac1609_4 	totalBusyTime 	0
scalar IntersectionExampleScenario.node[5].veinsmobility 	startTime 	18
scalar IntersectionExampleScenario.node[5].veinsmobility 	totalTime 	46
scalar IntersectionExampleScenario.node[5].veinsmobility 	stopTime 	64.25
scalar IntersectionExampleScenario.node[5].veinsmobility 	minSpeed 	3.8920419216156
scalar IntersectionExampleScenario.node[5].veinsmobility 	maxSpeed 	16
scalar IntersectionExampleScenario.node[5].veinsmobility 	totalDistance 	555.18329807949
scalar IntersectionExampleScenario.node[5].veinsmobility 	totalCO2Emission 	143.78118150727
scalar IntersectionExampleScenario.node[2].appl 	VehicleRemoved 	0
scalar IntersectionExampleScenario.node[2].appl 	ArrivedAtDest 	1
scalar IntersectionExampleScenario.node[2].appl 	IntersectionEnterTime 	8.5
scalar IntersectionExampleScenario.node[2].appl 	IntersectionExitTime 	53.316142761294
scalar IntersectionExampleScenario.node[2].appl 	NumberOfCollisions 	0
scalar IntersectionExampleScenario.node[2].nic.phy80211p 	busyTime 	0
scalar IntersectionExampleScenario.node[2].nic.mac1609_4 	ReceivedUnicastPackets 	0
scalar IntersectionExampleScenario.node[2].nic.mac1609_4 	ReceivedBroadcasts 	0
scalar IntersectionExampleScenario.node[2].nic.mac1609_4 	SentPackets 	0
scalar IntersectionExampleScenario.node[2].nic.mac1609_4 	SNIRLostPackets 	0
scalar IntersectionExampleScenario.node[2].nic.mac1609_4 	RXTXLostPackets 	0
scalar IntersectionExampleScenario.node[2].nic.mac1609_4 	TotalLostPackets 	0
scalar IntersectionExampleScenario.node[2].nic.mac1609_4 	DroppedPacketsInMac 	0
scalar IntersectionExampleScenario.node[2].nic.mac1609_4 	TooLittleTime 	0
scalar IntersectionExampleScenario.node[2].nic.mac1609_4 	TimesIntoBackoff 	0
scalar IntersectionExampleScenario.node[2].nic.mac1609_4 	SlotsBackoff 	0
scalar IntersectionExampleScenario.node[2].nic.mac1609_4 	NumInternalContention 	0
scalar IntersectionExampleScenario.node[2].nic.mac1609_4 	totalBusyTime 	0
scalar IntersectionExampleScenario.node[2].veinsmobility 	startTime 	8.5
scalar IntersectionExampleScenario.node[2].veinsmobility 	totalTime 	60
scalar IntersectionExampleScenario.node[2].veinsmobility 	stopTime 	68.75
scalar IntersectionExampleScenario.node[2].veinsmobility 	minSpeed 	0
scalar IntersectionExampleScenario.node[2].veinsmobility 	maxSpeed 	16.27499961853
scalar IntersectionExampleScenario.node[2].veinsmobility 	totalDistance 	551.21324157715
scalar IntersectionExampleScenario.node[2].veinsmobility 	totalCO2Emission 	158.79892270136
scalar IntersectionExampleScenario.node[6].appl 	VehicleRemoved 	0
scalar IntersectionExampleScenario.node[6].appl 	ArrivedAtDest 	1
scalar IntersectionExampleScenario.node[6].appl 	IntersectionEnterTime 	18.25
scalar IntersectionExampleScenario.node[6].appl 	IntersectionExitTime 	54.263368210581
scalar IntersectionExampleScenario.node[6].appl 	NumberOfCollisions 	0
scalar IntersectionExampleScenario.node[6].nic.phy80211p 	busyTime 	0
scalar IntersectionExampleScenario.node[6].nic.mac1609_4 	ReceivedUnicastPackets 	0
scalar IntersectionExampleScenario.node[6].nic.mac1609_4 	ReceivedBroadcasts 	0
scalar IntersectionExampleScenario.node[6].nic.mac1609_4 	SentPackets 	0
scalar IntersectionExampleScenario.node[6].nic.mac1609_4 	SNIRLostPackets 	0
scalar IntersectionExampleScenario.node[6].nic.mac1609_4 	RXTXLostPackets 	0
scalar IntersectionExampleScenario.node[6].nic.mac1609_4 	TotalLostPackets 	0
scalar IntersectionExampleScenario.node[6].nic.mac1609_4 	DroppedPacketsInMac 	0
scalar IntersectionExampleScenario.node[6].nic.mac1609_4 	TooLittleTime 	0
scalar IntersectionExampleScenario.node[6].nic.mac1609_4 	TimesIntoBackoff 	0
scalar IntersectionExampleScenario.node[6].nic.mac1609_4 	SlotsBackoff 	0
scalar IntersectionExampleScenario.node[6].nic.mac1609_4 	NumInternalContention 	0
scalar IntersectionExampleScenario.node[6].nic.mac1609_4 	totalBusyTime 	0
scalar IntersectionExampleScenario.node[6].veinsmobility 	startTime 	18.25
scalar IntersectionExampleScenario.node[6].veinsmobility 	totalTime 	52.25
scalar IntersectionExampleScenario.node[6].veinsmobility 	stopTime 	70.75
scalar IntersectionExampleScenario.node[6].veinsmobility 	minSpeed 	0
scalar IntersectionExampleScenario.node[6].veinsmobility 	maxSpeed 	15.64999961853
scalar IntersectionExampleScenario.node[6].veinsmobility 	totalDistance 	549.46752995379
scalar IntersectionExampleScenario.node[6].veinsmobility 	totalCO2Emission 	141.44927378365
scalar IntersectionExampleScenario.node[7].appl 	VehicleRemoved 	0
scalar IntersectionExampleScenario.node[7].appl 	ArrivedAtDest 	1
scalar IntersectionExampleScenario.node[7].appl 	IntersectionEnterTime 	19.5
scalar IntersectionExampleScenario.node[7].appl 	IntersectionExitTime 	56.525217903371
scalar IntersectionExampleScenario.node[7].appl 	NumberOfCollisions 	0
scalar IntersectionExampleScenario.node[7].nic.phy80211p 	busyTime 	0
scalar IntersectionExampleScenario.node[7].nic.mac1609_4 	ReceivedUnicastPackets 	0
scalar IntersectionExampleScenario.node[7].nic.mac1609_4 	ReceivedBroadcasts 	0
scalar IntersectionExampleScenario.node[7].nic.mac1609_4 	SentPackets 	0
scalar IntersectionExampleScenario.node[7].nic.mac1609_4 	SNIRLostPackets 	0
scalar IntersectionExampleScenario.node[7].nic.mac1609_4 	RXTXLostPackets 	0
scalar IntersectionExampleScenario.node[7].nic.mac1609_4 	TotalLostPackets 	0
scalar IntersectionExampleScenario.node[7].nic.mac1609_4 	DroppedPacketsInMac 	0
scalar IntersectionExampleScenario.node[7].nic.mac1609_4 	TooLittleTime 	0
scalar IntersectionExampleScenario.node[7].nic.mac1609_4 	TimesIntoBackoff 	0
scalar IntersectionExampleScenario.node[7].nic.mac1609_4 	SlotsBackoff 	0
scalar IntersectionExampleScenario.node[7].nic.mac1609_4 	NumInternalContention 	0
scalar IntersectionExampleScenario.node[7].nic.mac1609_4 	totalBusyTime 	0
scalar IntersectionExampleScenario.node[7].veinsmobility 	startTime 	19.5
scalar IntersectionExampleScenario.node[7].veinsmobility 	totalTime 	52.75
scalar IntersectionExampleScenario.node[7].veinsmobility 	stopTime 	72.5
scalar IntersectionExampleScenario.node[7].veinsmobility 	minSpeed 	1.5157997608185
scalar IntersectionExampleScenario.node[7].veinsmobility 	maxSpeed 	16.125
scalar IntersectionExampleScenario.node[7].veinsmobility 	totalDistance 	574.41636657715
scalar IntersectionExampleScenario.node[7].veinsmobility 	totalCO2Emission 	149.82096650388
scalar IntersectionExampleScenario.node[12].appl 	VehicleRemoved 	0
scalar IntersectionExampleScenario.node[12].appl 	ArrivedAtDest 	1
scalar IntersectionExampleScenario.node[12].appl 	IntersectionEnterTime 	34.5
scalar IntersectionExampleScenario.node[12].appl 	IntersectionExitTime 	59.601767302112
scalar IntersectionExampleScenario.node[12].appl 	NumberOfCollisions 	0
scalar IntersectionExampleScenario.node[12].nic.phy80211p 	busyTime 	0
scalar IntersectionExampleScenario.node[12].nic.mac1609_4 	ReceivedUnicastPackets 	0
scalar IntersectionExampleScenario.node[12].nic.mac1609_4 	ReceivedBroadcasts 	0
scalar IntersectionExampleScenario.node[12].nic.mac1609_4 	SentPackets 	0
scalar IntersectionExampleScenario.node[12].nic.mac1609_4 	SNIRLostPackets 	0
scalar IntersectionExampleScenario.node[12].nic.mac1609_4 	RXTXLostPackets 	0
scalar IntersectionExampleScenario.node[12].nic.mac1609_4 	TotalLostPackets 	0
scalar IntersectionExampleScenario.node[12].nic.mac1609_4 	DroppedPacketsInMac 	0
scalar IntersectionExampleScenario.node[12].nic.mac1609_4 	TooLittleTime 	0
scalar IntersectionExampleScenario.node[12].nic.mac1609_4 	TimesIntoBackoff 	0
scalar IntersectionExampleScenario.node[12].nic.mac1609_4 	SlotsBackoff 	0
scalar IntersectionExampleScenario.node[12].nic.mac1609_4 	NumInternalContention 	0
scalar IntersectionExampleScenario.node[12].nic.mac1609_4 	totalBusyTime 	0
scalar IntersectionExampleScenario.node[12].veinsmobility 	startTime 	34.5
scalar IntersectionExampleScenario.node[12].veinsmobility 	totalTime 	41.75
scalar IntersectionExampleScenario.node[12].veinsmobility 	stopTime 	76.5
scalar IntersectionExampleScenario.node[12].veinsmobility 	minSpeed 	5.6500000953674
scalar IntersectionExampleScenario.node[12].veinsmobility 	maxSpeed 	15.875
scalar IntersectionExampleScenario.node[12].veinsmobility 	totalDistance 	546.30250340109
scalar IntersectionExampleScenario.node[12].veinsmobility 	totalCO2Emission 	140.82526514372
scalar IntersectionExampleScenario.node[13].appl 	VehicleRemoved 	0
scalar IntersectionExampleScenario.node[13].appl 	ArrivedAtDest 	1
scalar IntersectionExampleScenario.node[13].appl 	IntersectionEnterTime 	36
scalar IntersectionExampleScenario.node[13].appl 	IntersectionExitTime 	61.277624769311
scalar IntersectionExampleScenario.node[13].appl 	NumberOfCollisions 	0
scalar IntersectionExampleScenario.node[13].nic.phy80211p 	busyTime 	0
scalar IntersectionExampleScenario.node[13].nic.mac1609_4 	ReceivedUnicastPackets 	0
scalar IntersectionExampleScenario.node[13].nic.mac1609_4 	ReceivedBroadcasts 	0
scalar IntersectionExampleScenario.node[13].nic.mac1609_4 	SentPackets 	0
scalar IntersectionExampleScenario.node[13].nic.mac1609_4 	SNIRLostPackets 	0
scalar IntersectionExampleScenario.node[13].nic.mac1609_4 	RXTXLostPackets 	0
scalar IntersectionExampleScenario.node[13].nic.mac1609_4 	TotalLostPackets 	0
scalar IntersectionExampleScenario.node[13].nic.mac1609_4 	DroppedPacketsInMac 	0
scalar IntersectionExampleScenario.node[13].nic.mac1609_4 	TooLittleTime 	0
scalar IntersectionExampleScenario.node[13].nic.mac1609_4 	TimesIntoBackoff 	0
scalar IntersectionExampleScenario.node[13].nic.mac1609_4 	SlotsBackoff 	0
scalar IntersectionExampleScenario.node[13].nic.mac1609_4 	NumInternalContention 	0
scalar IntersectionExampleScenario.node[13].nic.mac1609_4 	totalBusyTime 	0
scalar IntersectionExampleScenario.node[13].veinsmobility 	startTime 	36
scalar IntersectionExampleScenario.node[13].veinsmobility 	totalTime 	41.75
scalar IntersectionExampleScenario.node[13].veinsmobility 	stopTime 	78
scalar IntersectionExampleScenario.node[13].veinsmobility 	minSpeed 	5.0124917030334
scalar IntersectionExampleScenario.node[13].veinsmobility 	maxSpeed 	15.64999961853
scalar IntersectionExampleScenario.node[13].veinsmobility 	totalDistance 	553.70133209229
scalar IntersectionExampleScenario.node[13].veinsmobility 	totalCO2Emission 	132.09982486159
scalar IntersectionExampleScenario.node[8].appl 	VehicleRemoved 	0
scalar IntersectionExampleScenario.node[8].appl 	ArrivedAtDest 	1
scalar IntersectionExampleScenario.node[8].appl 	IntersectionEnterTime 	22.5
scalar IntersectionExampleScenario.node[8].appl 	IntersectionExitTime 	68.298361581314
scalar IntersectionExampleScenario.node[8].appl 	NumberOfCollisions 	0
scalar IntersectionExampleScenario.node[8].nic.phy80211p 	busyTime 	0
scalar IntersectionExampleScenario.node[8].nic.mac1609_4 	ReceivedUnicastPackets 	0
scalar IntersectionExampleScenario.node[8].nic.mac1609_4 	ReceivedBroadcasts 	0
scalar IntersectionExampleScenario.node[8].nic.mac1609_4 	SentPackets 	0
scalar IntersectionExampleScenario.node[8].nic.mac1609_4 	SNIRLostPackets 	0
scalar IntersectionExampleScenario.node[8].nic.mac1609_4 	RXTXLostPackets 	0
scalar IntersectionExampleScenario.node[8].nic.mac1609_4 	TotalLostPackets 	0
scalar IntersectionExampleScenario.node[8].nic.mac1609_4 	DroppedPacketsInMac 	0
scalar IntersectionExampleScenario.node[8].nic.mac1609_4 	TooLittleTime 	0
scalar IntersectionExampleScenario.node[8].nic.mac1609_4 	TimesIntoBackoff 	0
scalar IntersectionExampleScenario.node[8].nic.mac1609_4 	SlotsBackoff 	0
scalar IntersectionExampleScenario.node[8].nic.mac1609_4 	NumInternalContention 	0
scalar IntersectionExampleScenario.node[8].nic.mac1609_4 	totalBusyTime 	0
scalar IntersectionExampleScenario.node[8].veinsmobility 	startTime 	22.5
scalar IntersectionExampleScenario.node[8].veinsmobility 	totalTime 	62
scalar IntersectionExampleScenario.node[8].veinsmobility 	stopTime 	84.75
scalar IntersectionExampleScenario.node[8].veinsmobility 	minSpeed 	0
scalar IntersectionExampleScenario.node[8].veinsmobility 	maxSpeed 	15.375
scalar IntersectionExampleScenario.node[8].veinsmobility 	totalDistance 	553.37906646729
scalar IntersectionExampleScenario.node[8].veinsmobility 	totalCO2Emission 	152.9597291991
scalar IntersectionExampleScenario.node[9].appl 	VehicleRemoved 	0
scalar IntersectionExampleScenario.node[9].appl 	ArrivedAtDest 	1
scalar IntersectionExampleScenario.node[9].appl 	IntersectionEnterTime 	24.5
scalar IntersectionExampleScenario.node[9].appl 	IntersectionExitTime 	69.08759404294
scalar IntersectionExampleScenario.node[9].appl 	NumberOfCollisions 	0
scalar IntersectionExampleScenario.node[9].nic.phy80211p 	busyTime 	0
scalar IntersectionExampleScenario.node[9].nic.mac1609_4 	ReceivedUnicastPackets 	0
scalar IntersectionExampleScenario.node[9].nic.mac1609_4 	ReceivedBroadcasts 	0
scalar IntersectionExampleScenario.node[9].nic.mac1609_4 	SentPackets 	0
scalar IntersectionExampleScenario.node[9].nic.mac1609_4 	SNIRLostPackets 	0
scalar IntersectionExampleScenario.node[9].nic.mac1609_4 	RXTXLostPackets 	0
scalar IntersectionExampleScenario.node[9].nic.mac1609_4 	TotalLostPackets 	0
scalar IntersectionExampleScenario.node[9].nic.mac1609_4 	DroppedPacketsInMac 	0
scalar IntersectionExampleScenario.node[9].nic.mac1609_4 	TooLittleTime 	0
scalar IntersectionExampleScenario.node[9].nic.mac1609_4 	TimesIntoBackoff 	0
scalar IntersectionExampleScenario.node[9].nic.mac1609_4 	SlotsBackoff 	0
scalar IntersectionExampleScenario.node[9].nic.mac1609_4 	NumInternalContention 	0
scalar IntersectionExampleScenario.node[9].nic.mac1609_4 	totalBusyTime 	0
scalar IntersectionExampleScenario.node[9].veinsmobility 	startTime 	24.5
scalar IntersectionExampleScenario.node[9].veinsmobility 	totalTime 	60.75
scalar IntersectionExampleScenario.node[9].veinsmobility 	stopTime 	85.5
scalar IntersectionExampleScenario.node[9].veinsmobility 	minSpeed 	0
scalar IntersectionExampleScenario.node[9].veinsmobility 	maxSpeed 	15.875
scalar IntersectionExampleScenario.node[9].veinsmobility 	totalDistance 	561.27562605169
scalar IntersectionExampleScenario.node[9].veinsmobility 	totalCO2Emission 	158.67143511293
scalar IntersectionExampleScenario.node[11].appl 	VehicleRemoved 	0
scalar IntersectionExampleScenario.node[11].appl 	ArrivedAtDest 	1
scalar IntersectionExampleScenario.node[11].appl 	IntersectionEnterTime 	34
scalar IntersectionExampleScenario.node[11].appl 	IntersectionExitTime 	71.544209421671
scalar IntersectionExampleScenario.node[11].appl 	NumberOfCollisions 	0
scalar IntersectionExampleScenario.node[11].nic.phy80211p 	busyTime 	0
scalar IntersectionExampleScenario.node[11].nic.mac1609_4 	ReceivedUnicastPackets 	0
scalar IntersectionExampleScenario.node[11].nic.mac1609_4 	ReceivedBroadcasts 	0
scalar IntersectionExampleScenario.node[11].nic.mac1609_4 	SentPackets 	0
scalar IntersectionExampleScenario.node[11].nic.mac1609_4 	SNIRLostPackets 	0
scalar IntersectionExampleScenario.node[11].nic.mac1609_4 	RXTXLostPackets 	0
scalar IntersectionExampleScenario.node[11].nic.mac1609_4 	TotalLostPackets 	0
scalar IntersectionExampleScenario.node[11].nic.mac1609_4 	DroppedPacketsInMac 	0
scalar IntersectionExampleScenario.node[11].nic.mac1609_4 	TooLittleTime 	0
scalar IntersectionExampleScenario.node[11].nic.mac1609_4 	TimesIntoBackoff 	0
scalar IntersectionExampleScenario.node[11].nic.mac1609_4 	SlotsBackoff 	0
scalar IntersectionExampleScenario.node[11].nic.mac1609_4 	NumInternalContention 	0
scalar IntersectionExampleScenario.node[11].nic.mac1609_4 	totalBusyTime 	0
scalar IntersectionExampleScenario.node[11].veinsmobility 	startTime 	34
scalar IntersectionExampleScenario.node[11].veinsmobility 	totalTime 	53.25
scalar IntersectionExampleScenario.node[11].veinsmobility 	stopTime 	87.5
scalar IntersectionExampleScenario.node[11].veinsmobility 	minSpeed 	0
scalar IntersectionExampleScenario.node[11].veinsmobility 	maxSpeed 	15.64999961853
scalar IntersectionExampleScenario.node[11].veinsmobility 	totalDistance 	551.46964263916
scalar IntersectionExampleScenario.node[11].veinsmobility 	totalCO2Emission 	142.58085642094
scalar IntersectionExampleScenario.node[14].appl 	VehicleRemoved 	0
scalar IntersectionExampleScenario.node[14].appl 	ArrivedAtDest 	1
scalar IntersectionExampleScenario.node[14].appl 	IntersectionEnterTime 	41.75
scalar IntersectionExampleScenario.node[14].appl 	IntersectionExitTime 	73.367649162858
scalar IntersectionExampleScenario.node[14].appl 	NumberOfCollisions 	0
scalar IntersectionExampleScenario.node[14].nic.phy80211p 	busyTime 	0
scalar IntersectionExampleScenario.node[14].nic.mac1609_4 	ReceivedUnicastPackets 	0
scalar IntersectionExampleScenario.node[14].nic.mac1609_4 	ReceivedBroadcasts 	0
scalar IntersectionExampleScenario.node[14].nic.mac1609_4 	SentPackets 	0
scalar IntersectionExampleScenario.node[14].nic.mac1609_4 	SNIRLostPackets 	0
scalar IntersectionExampleScenario.node[14].nic.mac1609_4 	RXTXLostPackets 	0
scalar IntersectionExampleScenario.node[14].nic.mac1609_4 	TotalLostPackets 	0
scalar IntersectionExampleScenario.node[14].nic.mac1609_4 	DroppedPacketsInMac 	0
scalar IntersectionExampleScenario.node[14].nic.mac1609_4 	TooLittleTime 	0
scalar IntersectionExampleScenario.node[14].nic.mac1609_4 	TimesIntoBackoff 	0
scalar IntersectionExampleScenario.node[14].nic.mac1609_4 	SlotsBackoff 	0
scalar IntersectionExampleScenario.node[14].nic.mac1609_4 	NumInternalContention 	0
scalar IntersectionExampleScenario.node[14].nic.mac1609_4 	totalBusyTime 	0
scalar IntersectionExampleScenario.node[14].veinsmobility 	startTime 	41.75
scalar IntersectionExampleScenario.node[14].veinsmobility 	totalTime 	46.75
scalar IntersectionExampleScenario.node[14].veinsmobility 	stopTime 	88.75
scalar IntersectionExampleScenario.node[14].veinsmobility 	minSpeed 	3.1537485122681
scalar IntersectionExampleScenario.node[14].veinsmobility 	maxSpeed 	16.27499961853
scalar IntersectionExampleScenario.node[14].veinsmobility 	totalDistance 	550.81076812744
scalar IntersectionExampleScenario.node[14].veinsmobility 	totalCO2Emission 	139.57381346253
scalar IntersectionExampleScenario.node[10].appl 	VehicleRemoved 	0
scalar IntersectionExampleScenario.node[10].appl 	ArrivedAtDest 	1
scalar IntersectionExampleScenario.node[10].appl 	IntersectionEnterTime 	31.5
scalar IntersectionExampleScenario.node[10].appl 	IntersectionExitTime 	77.37415828649
scalar IntersectionExampleScenario.node[10].appl 	NumberOfCollisions 	0
scalar IntersectionExampleScenario.node[10].nic.phy80211p 	busyTime 	0
scalar IntersectionExampleScenario.node[10].nic.mac1609_4 	ReceivedUnicastPackets 	0
scalar IntersectionExampleScenario.node[10].nic.mac1609_4 	ReceivedBroadcasts 	0
scalar IntersectionExampleScenario.node[10].nic.mac1609_4 	SentPackets 	0
scalar IntersectionExampleScenario.node[10].nic.mac1609_4 	SNIRLostPackets 	0
scalar IntersectionExampleScenario.node[10].nic.mac1609_4 	RXTXLostPackets 	0
scalar IntersectionExampleScenario.node[10].nic.mac1609_4 	TotalLostPackets 	0
scalar IntersectionExampleScenario.node[10].nic.mac1609_4 	DroppedPacketsInMac 	0
scalar IntersectionExampleScenario.node[10].nic.mac1609_4 	TooLittleTime 	0
scalar IntersectionExampleScenario.node[10].nic.mac1609_4 	TimesIntoBackoff 	0
scalar IntersectionExampleScenario.node[10].nic.mac1609_4 	SlotsBackoff 	0
scalar IntersectionExampleScenario.node[10].nic.mac1609_4 	NumInternalContention 	0
scalar IntersectionExampleScenario.node[10].nic.mac1609_4 	totalBusyTime 	0
scalar IntersectionExampleScenario.node[10].veinsmobility 	startTime 	31.5
scalar IntersectionExampleScenario.node[10].veinsmobility 	totalTime 	61.75
scalar IntersectionExampleScenario.node[10].veinsmobility 	stopTime 	93.5
scalar IntersectionExampleScenario.node[10].veinsmobility 	minSpeed 	0
scalar IntersectionExampleScenario.node[10].veinsmobility 	maxSpeed 	15.64999961853
scalar IntersectionExampleScenario.node[10].veinsmobility 	totalDistance 	550.51133073916
scalar IntersectionExampleScenario.node[10].veinsmobility 	totalCO2Emission 	154.53296211725
scalar IntersectionExampleScenario.node[23].appl 	VehicleRemoved 	0
scalar IntersectionExampleScenario.node[23].appl 	ArrivedAtDest 	1
scalar IntersectionExampleScenario.node[23].appl 	IntersectionEnterTime 	56.5
scalar IntersectionExampleScenario.node[23].appl 	IntersectionExitTime 	81.776829468494
scalar IntersectionExampleScenario.node[23].appl 	NumberOfCollisions 	0
scalar IntersectionExampleScenario.node[23].nic.phy80211p 	busyTime 	0
scalar IntersectionExampleScenario.node[23].nic.mac1609_4 	ReceivedUnicastPackets 	0
scalar IntersectionExampleScenario.node[23].nic.mac1609_4 	ReceivedBroadcasts 	0
scalar IntersectionExampleScenario.node[23].nic.mac1609_4 	SentPackets 	0
scalar IntersectionExampleScenario.node[23].nic.mac1609_4 	SNIRLostPackets 	0
scalar IntersectionExampleScenario.node[23].nic.mac1609_4 	RXTXLostPackets 	0
scalar IntersectionExampleScenario.node[23].nic.mac1609_4 	TotalLostPackets 	0
scalar IntersectionExampleScenario.node[23].nic.mac1609_4 	DroppedPacketsInMac 	0
scalar IntersectionExampleScenario.node[23].nic.mac1609_4 	TooLittleTime 	0
scalar IntersectionExampleScenario.node[23].nic.mac1609_4 	TimesIntoBackoff 	0
scalar IntersectionExampleScenario.node[23].nic.mac1609_4 	SlotsBackoff 	0
scalar IntersectionExampleScenario.node[23].nic.mac1609_4 	NumInternalContention 	0
scalar IntersectionExampleScenario.node[23].nic.mac1609_4 	totalBusyTime 	0
scalar IntersectionExampleScenario.node[23].veinsmobility 	startTime 	56.5
scalar IntersectionExampleScenario.node[23].veinsmobility 	totalTime 	40.5
scalar IntersectionExampleScenario.node[23].veinsmobility 	stopTime 	97.25
scalar IntersectionExampleScenario.node[23].veinsmobility 	minSpeed 	5.6500000953674
scalar IntersectionExampleScenario.node[23].veinsmobility 	maxSpeed 	16.125
scalar IntersectionExampleScenario.node[23].veinsmobility 	totalDistance 	572.12591552734
scalar IntersectionExampleScenario.node[23].veinsmobility 	totalCO2Emission 	137.93454448648
scalar IntersectionExampleScenario.node[21].appl 	VehicleRemoved 	0
scalar IntersectionExampleScenario.node[21].appl 	ArrivedAtDest 	1
scalar IntersectionExampleScenario.node[21].appl 	IntersectionEnterTime 	54.75
scalar IntersectionExampleScenario.node[21].appl 	IntersectionExitTime 	80.293858987774
scalar IntersectionExampleScenario.node[21].appl 	NumberOfCollisions 	0
scalar IntersectionExampleScenario.node[21].nic.phy80211p 	busyTime 	0
scalar IntersectionExampleScenario.node[21].nic.mac1609_4 	ReceivedUnicastPackets 	0
scalar IntersectionExampleScenario.node[21].nic.mac1609_4 	ReceivedBroadcasts 	0
scalar IntersectionExampleScenario.node[21].nic.mac1609_4 	SentPackets 	0
scalar IntersectionExampleScenario.node[21].nic.mac1609_4 	SNIRLostPackets 	0
scalar IntersectionExampleScenario.node[21].nic.mac1609_4 	RXTXLostPackets 	0
scalar IntersectionExampleScenario.node[21].nic.mac1609_4 	TotalLostPackets 	0
scalar IntersectionExampleScenario.node[21].nic.mac1609_4 	DroppedPacketsInMac 	0
scalar IntersectionExampleScenario.node[21].nic.mac1609_4 	TooLittleTime 	0
scalar IntersectionExampleScenario.node[21].nic.mac1609_4 	TimesIntoBackoff 	0
scalar IntersectionExampleScenario.node[21].nic.mac1609_4 	SlotsBackoff 	0
scalar IntersectionExampleScenario.node[21].nic.mac1609_4 	NumInternalContention 	0
scalar IntersectionExampleScenario.node[21].nic.mac1609_4 	totalBusyTime 	0
scalar IntersectionExampleScenario.node[21].veinsmobility 	startTime 	54.75
scalar IntersectionExampleScenario.node[21].veinsmobility 	totalTime 	42.5
scalar IntersectionExampleScenario.node[21].veinsmobility 	stopTime 	97.5
scalar IntersectionExampleScenario.node[21].veinsmobility 	minSpeed 	5.6500000953674
scalar IntersectionExampleScenario.node[21].veinsmobility 	maxSpeed 	15.25
scalar IntersectionExampleScenario.node[21].veinsmobility 	totalDistance 	545.04225709425
scalar IntersectionExampleScenario.node[21].veinsmobility 	totalCO2Emission 	137.17289345924
scalar IntersectionExampleScenario.node[16].appl 	VehicleRemoved 	0
scalar IntersectionExampleScenario.node[16].appl 	ArrivedAtDest 	1
scalar IntersectionExampleScenario.node[16].appl 	IntersectionEnterTime 	47.25
scalar IntersectionExampleScenario.node[16].appl 	IntersectionExitTime 	84.595241249859
scalar IntersectionExampleScenario.node[16].appl 	NumberOfCollisions 	0
scalar IntersectionExampleScenario.node[16].nic.phy80211p 	busyTime 	0
scalar IntersectionExampleScenario.node[16].nic.mac1609_4 	ReceivedUnicastPackets 	0
scalar IntersectionExampleScenario.node[16].nic.mac1609_4 	ReceivedBroadcasts 	0
scalar IntersectionExampleScenario.node[16].nic.mac1609_4 	SentPackets 	0
scalar IntersectionExampleScenario.node[16].nic.mac1609_4 	SNIRLostPackets 	0
scalar IntersectionExampleScenario.node[16].nic.mac1609_4 	RXTXLostPackets 	0
scalar IntersectionExampleScenario.node[16].nic.mac1609_4 	TotalLostPackets 	0
scalar IntersectionExampleScenario.node[16].nic.mac1609_4 	DroppedPacketsInMac 	0
scalar IntersectionExampleScenario.node[16].nic.mac1609_4 	TooLittleTime 	0
scalar IntersectionExampleScenario.node[16].nic.mac1609_4 	TimesIntoBackoff 	0
scalar IntersectionExampleScenario.node[16].nic.mac1609_4 	SlotsBackoff 	0
scalar IntersectionExampleScenario.node[16].nic.mac1609_4 	NumInternalContention 	0
scalar IntersectionExampleScenario.node[16].nic.mac1609_4 	totalBusyTime 	0
scalar IntersectionExampleScenario.node[16].veinsmobility 	startTime 	47.25
scalar IntersectionExampleScenario.node[16].veinsmobility 	totalTime 	54
scalar IntersectionExampleScenario.node[16].veinsmobility 	stopTime 	101.5
scalar IntersectionExampleScenario.node[16].veinsmobility 	minSpeed 	0
scalar IntersectionExampleScenario.node[16].veinsmobility 	maxSpeed 	15.64999961853
scalar IntersectionExampleScenario.node[16].veinsmobility 	totalDistance 	542.84239865691
scalar IntersectionExampleScenario.node[16].veinsmobility 	totalCO2Emission 	144.87170998268
scalar IntersectionExampleScenario.node[26].appl 	VehicleRemoved 	0
scalar IntersectionExampleScenario.node[26].appl 	ArrivedAtDest 	1
scalar IntersectionExampleScenario.node[26].appl 	IntersectionEnterTime 	58.5
scalar IntersectionExampleScenario.node[26].appl 	IntersectionExitTime 	87.277604739618
scalar IntersectionExampleScenario.node[26].appl 	NumberOfCollisions 	0
scalar IntersectionExampleScenario.node[26].nic.phy80211p 	busyTime 	0
scalar IntersectionExampleScenario.node[26].nic.mac1609_4 	ReceivedUnicastPackets 	0
scalar IntersectionExampleScenario.node[26].nic.mac1609_4 	ReceivedBroadcasts 	0
scalar IntersectionExampleScenario.node[26].nic.mac1609_4 	SentPackets 	0
scalar IntersectionExampleScenario.node[26].nic.mac1609_4 	SNIRLostPackets 	0
scalar IntersectionExampleScenario.node[26].nic.mac1609_4 	RXTXLostPackets 	0
scalar IntersectionExampleScenario.node[26].nic.mac1609_4 	TotalLostPackets 	0
scalar IntersectionExampleScenario.node[26].nic.mac1609_4 	DroppedPacketsInMac 	0
scalar IntersectionExampleScenario.node[26].nic.mac1609_4 	TooLittleTime 	0
scalar IntersectionExampleScenario.node[26].nic.mac1609_4 	TimesIntoBackoff 	0
scalar IntersectionExampleScenario.node[26].nic.mac1609_4 	SlotsBackoff 	0
scalar IntersectionExampleScenario.node[26].nic.mac1609_4 	NumInternalContention 	0
scalar IntersectionExampleScenario.node[26].nic.mac1609_4 	totalBusyTime 	0
scalar IntersectionExampleScenario.node[26].veinsmobility 	startTime 	58.5
scalar IntersectionExampleScenario.node[26].veinsmobility 	totalTime 	45.25
scalar IntersectionExampleScenario.node[26].veinsmobility 	stopTime 	104
scalar IntersectionExampleScenario.node[26].veinsmobility 	minSpeed 	3.7080893516541
scalar IntersectionExampleScenario.node[26].veinsmobility 	maxSpeed 	15.64999961853
scalar IntersectionExampleScenario.node[26].veinsmobility 	totalDistance 	543.42658532554
scalar IntersectionExampleScenario.node[26].veinsmobility 	totalCO2Emission 	133.86014298093
scalar IntersectionExampleScenario.node[29].appl 	VehicleRemoved 	0
scalar IntersectionExampleScenario.node[29].appl 	ArrivedAtDest 	1
scalar IntersectionExampleScenario.node[29].appl 	IntersectionEnterTime 	63
scalar IntersectionExampleScenario.node[29].appl 	IntersectionExitTime 	89.573907169484
scalar IntersectionExampleScenario.node[29].appl 	NumberOfCollisions 	0
scalar IntersectionExampleScenario.node[29].nic.phy80211p 	busyTime 	0
scalar IntersectionExampleScenario.node[29].nic.mac1609_4 	ReceivedUnicastPackets 	0
scalar IntersectionExampleScenario.node[29].nic.mac1609_4 	ReceivedBroadcasts 	0
scalar IntersectionExampleScenario.node[29].nic.mac1609_4 	SentPackets 	0
scalar IntersectionExampleScenario.node[29].nic.mac1609_4 	SNIRLostPackets 	0
scalar IntersectionExampleScenario.node[29].nic.mac1609_4 	RXTXLostPackets 	0
scalar IntersectionExampleScenario.node[29].nic.mac1609_4 	TotalLostPackets 	0
scalar IntersectionExampleScenario.node[29].nic.mac1609_4 	DroppedPacketsInMac 	0
scalar IntersectionExampleScenario.node[29].nic.mac1609_4 	TooLittleTime 	0
scalar IntersectionExampleScenario.node[29].nic.mac1609_4 	TimesIntoBackoff 	0
scalar IntersectionExampleScenario.node[29].nic.mac1609_4 	SlotsBackoff 	0
scalar IntersectionExampleScenario.node[29].nic.mac1609_4 	NumInternalContention 	0
scalar IntersectionExampleScenario.node[29].nic.mac1609_4 	totalBusyTime 	0
scalar IntersectionExampleScenario.node[29].veinsmobility 	startTime 	63
scalar IntersectionExampleScenario.node[29].veinsmobility 	totalTime 	42.75
scalar IntersectionExampleScenario.node[29].veinsmobility 	stopTime 	106
scalar IntersectionExampleScenario.node[29].veinsmobility 	minSpeed 	4.0129399299622
scalar IntersectionExampleScenario.node[29].veinsmobility 	maxSpeed 	15.5
scalar IntersectionExampleScenario.node[29].veinsmobility 	totalDistance 	528.50819396973
scalar IntersectionExampleScenario.node[29].veinsmobility 	totalCO2Emission 	134.29810569782
scalar IntersectionExampleScenario.node[15].appl 	VehicleRemoved 	0
scalar IntersectionExampleScenario.node[15].appl 	ArrivedAtDest 	1
scalar IntersectionExampleScenario.node[15].appl 	IntersectionEnterTime 	45.5
scalar IntersectionExampleScenario.node[15].appl 	IntersectionExitTime 	92.560127719393
scalar IntersectionExampleScenario.node[15].appl 	NumberOfCollisions 	0
scalar IntersectionExampleScenario.node[15].nic.phy80211p 	busyTime 	0
scalar IntersectionExampleScenario.node[15].nic.mac1609_4 	ReceivedUnicastPackets 	0
scalar IntersectionExampleScenario.node[15].nic.mac1609_4 	ReceivedBroadcasts 	0
scalar IntersectionExampleScenario.node[15].nic.mac1609_4 	SentPackets 	0
scalar IntersectionExampleScenario.node[15].nic.mac1609_4 	SNIRLostPackets 	0
scalar IntersectionExampleScenario.node[15].nic.mac1609_4 	RXTXLostPackets 	0
scalar IntersectionExampleScenario.node[15].nic.mac1609_4 	TotalLostPackets 	0
scalar IntersectionExampleScenario.node[15].nic.mac1609_4 	DroppedPacketsInMac 	0
scalar IntersectionExampleScenario.node[15].nic.mac1609_4 	TooLittleTime 	0
scalar IntersectionExampleScenario.node[15].nic.mac1609_4 	TimesIntoBackoff 	0
scalar IntersectionExampleScenario.node[15].nic.mac1609_4 	SlotsBackoff 	0
scalar IntersectionExampleScenario.node[15].nic.mac1609_4 	NumInternalContention 	0
scalar IntersectionExampleScenario.node[15].nic.mac1609_4 	totalBusyTime 	0
scalar IntersectionExampleScenario.node[15].veinsmobility 	startTime 	45.5
scalar IntersectionExampleScenario.node[15].veinsmobility 	totalTime 	63.5
scalar IntersectionExampleScenario.node[15].veinsmobility 	stopTime 	109.25
scalar IntersectionExampleScenario.node[15].veinsmobility 	minSpeed 	0
scalar IntersectionExampleScenario.node[15].veinsmobility 	maxSpeed 	15.875
scalar IntersectionExampleScenario.node[15].veinsmobility 	totalDistance 	545.84707547576
scalar IntersectionExampleScenario.node[15].veinsmobility 	totalCO2Emission 	158.86585835091
scalar IntersectionExampleScenario.node[19].appl 	VehicleRemoved 	0
scalar IntersectionExampleScenario.node[19].appl 	ArrivedAtDest 	1
scalar IntersectionExampleScenario.node[19].appl 	IntersectionEnterTime 	52
scalar IntersectionExampleScenario.node[19].appl 	IntersectionExitTime 	94.276616655261
scalar IntersectionExampleScenario.node[19].appl 	NumberOfCollisions 	0
scalar IntersectionExampleScenario.node[19].nic.phy80211p 	busyTime 	0
scalar IntersectionExampleScenario.node[19].nic.mac1609_4 	ReceivedUnicastPackets 	0
scalar IntersectionExampleScenario.node[19].nic.mac1609_4 	ReceivedBroadcasts 	0
scalar IntersectionExampleScenario.node[19].nic.mac1609_4 	SentPackets 	0
scalar IntersectionExampleScenario.node[19].nic.mac1609_4 	SNIRLostPackets 	0
scalar IntersectionExampleScenario.node[19].nic.mac1609_4 	RXTXLostPackets 	0
scalar IntersectionExampleScenario.node[19].nic.mac1609_4 	TotalLostPackets 	0
scalar IntersectionExampleScenario.node[19].nic.mac1609_4 	DroppedPacketsInMac 	0
scalar IntersectionExampleScenario.node[19].nic.mac1609_4 	TooLittleTime 	0
scalar IntersectionExampleScenario.node[19].nic.mac1609_4 	TimesIntoBackoff 	0
scalar IntersectionExampleScenario.node[19].nic.mac1609_4 	SlotsBackoff 	0
scalar IntersectionExampleScenario.node[19].nic.mac1609_4 	NumInternalContention 	0
scalar IntersectionExampleScenario.node[19].nic.mac1609_4 	totalBusyTime 	0
scalar IntersectionExampleScenario.node[19].veinsmobility 	startTime 	52
scalar IntersectionExampleScenario.node[19].veinsmobility 	totalTime 	57.75
scalar IntersectionExampleScenario.node[19].veinsmobility 	stopTime 	110
scalar IntersectionExampleScenario.node[19].veinsmobility 	minSpeed 	0
scalar IntersectionExampleScenario.node[19].veinsmobility 	maxSpeed 	16.012405395508
scalar IntersectionExampleScenario.node[19].veinsmobility 	totalDistance 	520.64430999756
scalar IntersectionExampleScenario.node[19].veinsmobility 	totalCO2Emission 	153.06669596514
scalar IntersectionExampleScenario.node[17].appl 	VehicleRemoved 	0
scalar IntersectionExampleScenario.node[17].appl 	ArrivedAtDest 	1
scalar IntersectionExampleScenario.node[17].appl 	IntersectionEnterTime 	48.75
scalar IntersectionExampleScenario.node[17].appl 	IntersectionExitTime 	96.860558949906
scalar IntersectionExampleScenario.node[17].appl 	NumberOfCollisions 	0
scalar IntersectionExampleScenario.node[17].nic.phy80211p 	busyTime 	0
scalar IntersectionExampleScenario.node[17].nic.mac1609_4 	ReceivedUnicastPackets 	0
scalar IntersectionExampleScenario.node[17].nic.mac1609_4 	ReceivedBroadcasts 	0
scalar IntersectionExampleScenario.node[17].nic.mac1609_4 	SentPackets 	0
scalar IntersectionExampleScenario.node[17].nic.mac1609_4 	SNIRLostPackets 	0
scalar IntersectionExampleScenario.node[17].nic.mac1609_4 	RXTXLostPackets 	0
scalar IntersectionExampleScenario.node[17].nic.mac1609_4 	TotalLostPackets 	0
scalar IntersectionExampleScenario.node[17].nic.mac1609_4 	DroppedPacketsInMac 	0
scalar IntersectionExampleScenario.node[17].nic.mac1609_4 	TooLittleTime 	0
scalar IntersectionExampleScenario.node[17].nic.mac1609_4 	TimesIntoBackoff 	0
scalar IntersectionExampleScenario.node[17].nic.mac1609_4 	SlotsBackoff 	0
scalar IntersectionExampleScenario.node[17].nic.mac1609_4 	NumInternalContention 	0
scalar IntersectionExampleScenario.node[17].nic.mac1609_4 	totalBusyTime 	0
scalar IntersectionExampleScenario.node[17].veinsmobility 	startTime 	48.75
scalar IntersectionExampleScenario.node[17].veinsmobility 	totalTime 	65
scalar IntersectionExampleScenario.node[17].veinsmobility 	stopTime 	114
scalar IntersectionExampleScenario.node[17].veinsmobility 	minSpeed 	0
scalar IntersectionExampleScenario.node[17].veinsmobility 	maxSpeed 	15.25
scalar IntersectionExampleScenario.node[17].veinsmobility 	totalDistance 	555.66269046439
scalar IntersectionExampleScenario.node[17].veinsmobility 	totalCO2Emission 	167.58344588262
scalar IntersectionExampleScenario.node[22].appl 	VehicleRemoved 	0
scalar IntersectionExampleScenario.node[22].appl 	ArrivedAtDest 	1
scalar IntersectionExampleScenario.node[22].appl 	IntersectionEnterTime 	56
scalar IntersectionExampleScenario.node[22].appl 	IntersectionExitTime 	100.28915731536
scalar IntersectionExampleScenario.node[22].appl 	NumberOfCollisions 	0
scalar IntersectionExampleScenario.node[22].nic.phy80211p 	busyTime 	0
scalar IntersectionExampleScenario.node[22].nic.mac1609_4 	ReceivedUnicastPackets 	0
scalar IntersectionExampleScenario.node[22].nic.mac1609_4 	ReceivedBroadcasts 	0
scalar IntersectionExampleScenario.node[22].nic.mac1609_4 	SentPackets 	0
scalar IntersectionExampleScenario.node[22].nic.mac1609_4 	SNIRLostPackets 	0
scalar IntersectionExampleScenario.node[22].nic.mac1609_4 	RXTXLostPackets 	0
scalar IntersectionExampleScenario.node[22].nic.mac1609_4 	TotalLostPackets 	0
scalar IntersectionExampleScenario.node[22].nic.mac1609_4 	DroppedPacketsInMac 	0
scalar IntersectionExampleScenario.node[22].nic.mac1609_4 	TooLittleTime 	0
scalar IntersectionExampleScenario.node[22].nic.mac1609_4 	TimesIntoBackoff 	0
scalar IntersectionExampleScenario.node[22].nic.mac1609_4 	SlotsBackoff 	0
scalar IntersectionExampleScenario.node[22].nic.mac1609_4 	NumInternalContention 	0
scalar IntersectionExampleScenario.node[22].nic.mac1609_4 	totalBusyTime 	0
scalar IntersectionExampleScenario.node[22].veinsmobility 	startTime 	56
scalar IntersectionExampleScenario.node[22].veinsmobility 	totalTime 	60.25
scalar IntersectionExampleScenario.node[22].veinsmobility 	stopTime 	116.5
scalar IntersectionExampleScenario.node[22].veinsmobility 	minSpeed 	0
scalar IntersectionExampleScenario.node[22].veinsmobility 	maxSpeed 	15.70799446106
scalar IntersectionExampleScenario.node[22].veinsmobility 	totalDistance 	549.9621745502
scalar IntersectionExampleScenario.node[22].veinsmobility 	totalCO2Emission 	153.81420000354
scalar IntersectionExampleScenario.node[27].appl 	VehicleRemoved 	0
scalar IntersectionExampleScenario.node[27].appl 	ArrivedAtDest 	1
scalar IntersectionExampleScenario.node[27].appl 	IntersectionEnterTime 	59.5
scalar IntersectionExampleScenario.node[27].appl 	IntersectionExitTime 	101.03297231579
scalar IntersectionExampleScenario.node[27].appl 	NumberOfCollisions 	0
scalar IntersectionExampleScenario.node[27].nic.phy80211p 	busyTime 	0
scalar IntersectionExampleScenario.node[27].nic.mac1609_4 	ReceivedUnicastPackets 	0
scalar IntersectionExampleScenario.node[27].nic.mac1609_4 	ReceivedBroadcasts 	0
scalar IntersectionExampleScenario.node[27].nic.mac1609_4 	SentPackets 	0
scalar IntersectionExampleScenario.node[27].nic.mac1609_4 	SNIRLostPackets 	0
scalar IntersectionExampleScenario.node[27].nic.mac1609_4 	RXTXLostPackets 	0
scalar IntersectionExampleScenario.node[27].nic.mac1609_4 	TotalLostPackets 	0
scalar IntersectionExampleScenario.node[27].nic.mac1609_4 	DroppedPacketsInMac 	0
scalar IntersectionExampleScenario.node[27].nic.mac1609_4 	TooLittleTime 	0
scalar IntersectionExampleScenario.node[27].nic.mac1609_4 	TimesIntoBackoff 	0
scalar IntersectionExampleScenario.node[27].nic.mac1609_4 	SlotsBackoff 	0
scalar IntersectionExampleScenario.node[27].nic.mac1609_4 	NumInternalContention 	0
scalar IntersectionExampleScenario.node[27].nic.mac1609_4 	totalBusyTime 	0
scalar IntersectionExampleScenario.node[27].veinsmobility 	startTime 	59.5
scalar IntersectionExampleScenario.node[27].veinsmobility 	totalTime 	58.5
scalar IntersectionExampleScenario.node[27].veinsmobility 	stopTime 	118.25
scalar IntersectionExampleScenario.node[27].veinsmobility 	minSpeed 	0
scalar IntersectionExampleScenario.node[27].veinsmobility 	maxSpeed 	15.25
scalar IntersectionExampleScenario.node[27].veinsmobility 	totalDistance 	533.24317859447
scalar IntersectionExampleScenario.node[27].veinsmobility 	totalCO2Emission 	147.08579309066
scalar IntersectionExampleScenario.node[25].appl 	VehicleRemoved 	0
scalar IntersectionExampleScenario.node[25].appl 	ArrivedAtDest 	1
scalar IntersectionExampleScenario.node[25].appl 	IntersectionEnterTime 	58.5
scalar IntersectionExampleScenario.node[25].appl 	IntersectionExitTime 	103.35861457876
scalar IntersectionExampleScenario.node[25].appl 	NumberOfCollisions 	0
scalar IntersectionExampleScenario.node[25].nic.phy80211p 	busyTime 	0
scalar IntersectionExampleScenario.node[25].nic.mac1609_4 	ReceivedUnicastPackets 	0
scalar IntersectionExampleScenario.node[25].nic.mac1609_4 	ReceivedBroadcasts 	0
scalar IntersectionExampleScenario.node[25].nic.mac1609_4 	SentPackets 	0
scalar IntersectionExampleScenario.node[25].nic.mac1609_4 	SNIRLostPackets 	0
scalar IntersectionExampleScenario.node[25].nic.mac1609_4 	RXTXLostPackets 	0
scalar IntersectionExampleScenario.node[25].nic.mac1609_4 	TotalLostPackets 	0
scalar IntersectionExampleScenario.node[25].nic.mac1609_4 	DroppedPacketsInMac 	0
scalar IntersectionExampleScenario.node[25].nic.mac1609_4 	TooLittleTime 	0
scalar IntersectionExampleScenario.node[25].nic.mac1609_4 	TimesIntoBackoff 	0
scalar IntersectionExampleScenario.node[25].nic.mac1609_4 	SlotsBackoff 	0
scalar IntersectionExampleScenario.node[25].nic.mac1609_4 	NumInternalContention 	0
scalar IntersectionExampleScenario.node[25].nic.mac1609_4 	totalBusyTime 	0
scalar IntersectionExampleScenario.node[25].veinsmobility 	startTime 	58.5
scalar IntersectionExampleScenario.node[25].veinsmobility 	totalTime 	61
scalar IntersectionExampleScenario.node[25].veinsmobility 	stopTime 	119.75
scalar IntersectionExampleScenario.node[25].veinsmobility 	minSpeed 	0
scalar IntersectionExampleScenario.node[25].veinsmobility 	maxSpeed 	15.771499633789
scalar IntersectionExampleScenario.node[25].veinsmobility 	totalDistance 	558.95361787398
scalar IntersectionExampleScenario.node[25].veinsmobility 	totalCO2Emission 	161.56650224195
scalar IntersectionExampleScenario.node[39].appl 	VehicleRemoved 	0
scalar IntersectionExampleScenario.node[39].appl 	ArrivedAtDest 	1
scalar IntersectionExampleScenario.node[39].appl 	IntersectionEnterTime 	81.75
scalar IntersectionExampleScenario.node[39].appl 	IntersectionExitTime 	106.252373141
scalar IntersectionExampleScenario.node[39].appl 	NumberOfCollisions 	0
scalar IntersectionExampleScenario.node[39].nic.phy80211p 	busyTime 	0
scalar IntersectionExampleScenario.node[39].nic.mac1609_4 	ReceivedUnicastPackets 	0
scalar IntersectionExampleScenario.node[39].nic.mac1609_4 	ReceivedBroadcasts 	0
scalar IntersectionExampleScenario.node[39].nic.mac1609_4 	SentPackets 	0
scalar IntersectionExampleScenario.node[39].nic.mac1609_4 	SNIRLostPackets 	0
scalar IntersectionExampleScenario.node[39].nic.mac1609_4 	RXTXLostPackets 	0
scalar IntersectionExampleScenario.node[39].nic.mac1609_4 	TotalLostPackets 	0
scalar IntersectionExampleScenario.node[39].nic.mac1609_4 	DroppedPacketsInMac 	0
scalar IntersectionExampleScenario.node[39].nic.mac1609_4 	TooLittleTime 	0
scalar IntersectionExampleScenario.node[39].nic.mac1609_4 	TimesIntoBackoff 	0
scalar IntersectionExampleScenario.node[39].nic.mac1609_4 	SlotsBackoff 	0
scalar IntersectionExampleScenario.node[39].nic.mac1609_4 	NumInternalContention 	0
scalar IntersectionExampleScenario.node[39].nic.mac1609_4 	totalBusyTime 	0
scalar IntersectionExampleScenario.node[39].veinsmobility 	startTime 	81.75
scalar IntersectionExampleScenario.node[39].veinsmobility 	totalTime 	41
scalar IntersectionExampleScenario.node[39].veinsmobility 	stopTime 	123
scalar IntersectionExampleScenario.node[39].veinsmobility 	minSpeed 	5.6500000953674
scalar IntersectionExampleScenario.node[39].veinsmobility 	maxSpeed 	16.27499961853
scalar IntersectionExampleScenario.node[39].veinsmobility 	totalDistance 	546.76962906184
scalar IntersectionExampleScenario.node[39].veinsmobility 	totalCO2Emission 	139.6356876537
scalar IntersectionExampleScenario.node[24].appl 	VehicleRemoved 	0
scalar IntersectionExampleScenario.node[24].appl 	ArrivedAtDest 	1
scalar IntersectionExampleScenario.node[24].appl 	IntersectionEnterTime 	57.25
scalar IntersectionExampleScenario.node[24].appl 	IntersectionExitTime 	108.52130964151
scalar IntersectionExampleScenario.node[24].appl 	NumberOfCollisions 	0
scalar IntersectionExampleScenario.node[24].nic.phy80211p 	busyTime 	0
scalar IntersectionExampleScenario.node[24].nic.mac1609_4 	ReceivedUnicastPackets 	0
scalar IntersectionExampleScenario.node[24].nic.mac1609_4 	ReceivedBroadcasts 	0
scalar IntersectionExampleScenario.node[24].nic.mac1609_4 	SentPackets 	0
scalar IntersectionExampleScenario.node[24].nic.mac1609_4 	SNIRLostPackets 	0
scalar IntersectionExampleScenario.node[24].nic.mac1609_4 	RXTXLostPackets 	0
scalar IntersectionExampleScenario.node[24].nic.mac1609_4 	TotalLostPackets 	0
scalar IntersectionExampleScenario.node[24].nic.mac1609_4 	DroppedPacketsInMac 	0
scalar IntersectionExampleScenario.node[24].nic.mac1609_4 	TooLittleTime 	0
scalar IntersectionExampleScenario.node[24].nic.mac1609_4 	TimesIntoBackoff 	0
scalar IntersectionExampleScenario.node[24].nic.mac1609_4 	SlotsBackoff 	0
scalar IntersectionExampleScenario.node[24].nic.mac1609_4 	NumInternalContention 	0
scalar IntersectionExampleScenario.node[24].nic.mac1609_4 	totalBusyTime 	0
scalar IntersectionExampleScenario.node[24].veinsmobility 	startTime 	57.25
scalar IntersectionExampleScenario.node[24].veinsmobility 	totalTime 	67.75
scalar IntersectionExampleScenario.node[24].veinsmobility 	stopTime 	125.25
scalar IntersectionExampleScenario.node[24].veinsmobility 	minSpeed 	0
scalar IntersectionExampleScenario.node[24].veinsmobility 	maxSpeed 	15.875
scalar IntersectionExampleScenario.node[24].veinsmobility 	totalDistance 	578.46356870086
scalar IntersectionExampleScenario.node[24].veinsmobility 	totalCO2Emission 	169.25121461232
scalar IntersectionExampleScenario.node[34].appl 	VehicleRemoved 	0
scalar IntersectionExampleScenario.node[34].appl 	ArrivedAtDest 	1
scalar IntersectionExampleScenario.node[34].appl 	IntersectionEnterTime 	75
scalar IntersectionExampleScenario.node[34].appl 	IntersectionExitTime 	110.26815129461
scalar IntersectionExampleScenario.node[34].appl 	NumberOfCollisions 	0
scalar IntersectionExampleScenario.node[34].nic.phy80211p 	busyTime 	0
scalar IntersectionExampleScenario.node[34].nic.mac1609_4 	ReceivedUnicastPackets 	0
scalar IntersectionExampleScenario.node[34].nic.mac1609_4 	ReceivedBroadcasts 	0
scalar IntersectionExampleScenario.node[34].nic.mac1609_4 	SentPackets 	0
scalar IntersectionExampleScenario.node[34].nic.mac1609_4 	SNIRLostPackets 	0
scalar IntersectionExampleScenario.node[34].nic.mac1609_4 	RXTXLostPackets 	0
scalar IntersectionExampleScenario.node[34].nic.mac1609_4 	TotalLostPackets 	0
scalar IntersectionExampleScenario.node[34].nic.mac1609_4 	DroppedPacketsInMac 	0
scalar IntersectionExampleScenario.node[34].nic.mac1609_4 	TooLittleTime 	0
scalar IntersectionExampleScenario.node[34].nic.mac1609_4 	TimesIntoBackoff 	0
scalar IntersectionExampleScenario.node[34].nic.mac1609_4 	SlotsBackoff 	0
scalar IntersectionExampleScenario.node[34].nic.mac1609_4 	NumInternalContention 	0
scalar IntersectionExampleScenario.node[34].nic.mac1609_4 	totalBusyTime 	0
scalar IntersectionExampleScenario.node[34].veinsmobility 	startTime 	75
scalar IntersectionExampleScenario.node[34].veinsmobility 	totalTime 	51.75
scalar IntersectionExampleScenario.node[34].veinsmobility 	stopTime 	127
scalar IntersectionExampleScenario.node[34].veinsmobility 	minSpeed 	0
scalar IntersectionExampleScenario.node[34].veinsmobility 	maxSpeed 	15.64999961853
scalar IntersectionExampleScenario.node[34].veinsmobility 	totalDistance 	551.2944977049
scalar IntersectionExampleScenario.node[34].veinsmobility 	totalCO2Emission 	139.95599125261
scalar IntersectionExampleScenario.node[35].appl 	VehicleRemoved 	0
scalar IntersectionExampleScenario.node[35].appl 	ArrivedAtDest 	1
scalar IntersectionExampleScenario.node[35].appl 	IntersectionEnterTime 	79
scalar IntersectionExampleScenario.node[35].appl 	IntersectionExitTime 	112.52741124661
scalar IntersectionExampleScenario.node[35].appl 	NumberOfCollisions 	0
scalar IntersectionExampleScenario.node[35].nic.phy80211p 	busyTime 	0
scalar IntersectionExampleScenario.node[35].nic.mac1609_4 	ReceivedUnicastPackets 	0
scalar IntersectionExampleScenario.node[35].nic.mac1609_4 	ReceivedBroadcasts 	0
scalar IntersectionExampleScenario.node[35].nic.mac1609_4 	SentPackets 	0
scalar IntersectionExampleScenario.node[35].nic.mac1609_4 	SNIRLostPackets 	0
scalar IntersectionExampleScenario.node[35].nic.mac1609_4 	RXTXLostPackets 	0
scalar IntersectionExampleScenario.node[35].nic.mac1609_4 	TotalLostPackets 	0
scalar IntersectionExampleScenario.node[35].nic.mac1609_4 	DroppedPacketsInMac 	0
scalar IntersectionExampleScenario.node[35].nic.mac1609_4 	TooLittleTime 	0
scalar IntersectionExampleScenario.node[35].nic.mac1609_4 	TimesIntoBackoff 	0
scalar IntersectionExampleScenario.node[35].nic.mac1609_4 	SlotsBackoff 	0
scalar IntersectionExampleScenario.node[35].nic.mac1609_4 	NumInternalContention 	0
scalar IntersectionExampleScenario.node[35].nic.mac1609_4 	totalBusyTime 	0
scalar IntersectionExampleScenario.node[35].veinsmobility 	startTime 	79
scalar IntersectionExampleScenario.node[35].veinsmobility 	totalTime 	49.25
scalar IntersectionExampleScenario.node[35].veinsmobility 	stopTime 	128.5
scalar IntersectionExampleScenario.node[35].veinsmobility 	minSpeed 	2.2449960708618
scalar IntersectionExampleScenario.node[35].veinsmobility 	maxSpeed 	15.64999961853
scalar IntersectionExampleScenario.node[35].veinsmobility 	totalDistance 	558.81530761719
scalar IntersectionExampleScenario.node[35].veinsmobility 	totalCO2Emission 	142.43676958327
scalar IntersectionExampleScenario.node[43].appl 	VehicleRemoved 	0
scalar IntersectionExampleScenario.node[43].appl 	ArrivedAtDest 	1
scalar IntersectionExampleScenario.node[43].appl 	IntersectionEnterTime 	84
scalar IntersectionExampleScenario.node[43].appl 	IntersectionExitTime 	115.02055238641
scalar IntersectionExampleScenario.node[43].appl 	NumberOfCollisions 	0
scalar IntersectionExampleScenario.node[43].nic.phy80211p 	busyTime 	0
scalar IntersectionExampleScenario.node[43].nic.mac1609_4 	ReceivedUnicastPackets 	0
scalar IntersectionExampleScenario.node[43].nic.mac1609_4 	ReceivedBroadcasts 	0
scalar IntersectionExampleScenario.node[43].nic.mac1609_4 	SentPackets 	0
scalar IntersectionExampleScenario.node[43].nic.mac1609_4 	SNIRLostPackets 	0
scalar IntersectionExampleScenario.node[43].nic.mac1609_4 	RXTXLostPackets 	0
scalar IntersectionExampleScenario.node[43].nic.mac1609_4 	TotalLostPackets 	0
scalar IntersectionExampleScenario.node[43].nic.mac1609_4 	DroppedPacketsInMac 	0
scalar IntersectionExampleScenario.node[43].nic.mac1609_4 	TooLittleTime 	0
scalar IntersectionExampleScenario.node[43].nic.mac1609_4 	TimesIntoBackoff 	0
scalar IntersectionExampleScenario.node[43].nic.mac1609_4 	SlotsBackoff 	0
scalar IntersectionExampleScenario.node[43].nic.mac1609_4 	NumInternalContention 	0
scalar IntersectionExampleScenario.node[43].nic.mac1609_4 	totalBusyTime 	0
scalar IntersectionExampleScenario.node[43].veinsmobility 	startTime 	84
scalar IntersectionExampleScenario.node[43].veinsmobility 	totalTime 	48.5
scalar IntersectionExampleScenario.node[43].veinsmobility 	stopTime 	132.75
scalar IntersectionExampleScenario.node[43].veinsmobility 	minSpeed 	2.8168849945068
scalar IntersectionExampleScenario.node[43].veinsmobility 	maxSpeed 	14.667169570923
scalar IntersectionExampleScenario.node[43].veinsmobility 	totalDistance 	519.62521489411
scalar IntersectionExampleScenario.node[43].veinsmobility 	totalCO2Emission 	133.30020914604
scalar IntersectionExampleScenario.node[28].appl 	VehicleRemoved 	0
scalar IntersectionExampleScenario.node[28].appl 	ArrivedAtDest 	1
scalar IntersectionExampleScenario.node[28].appl 	IntersectionEnterTime 	61
scalar IntersectionExampleScenario.node[28].appl 	IntersectionExitTime 	116.57605527059
scalar IntersectionExampleScenario.node[28].appl 	NumberOfCollisions 	0
scalar IntersectionExampleScenario.node[28].nic.phy80211p 	busyTime 	0
scalar IntersectionExampleScenario.node[28].nic.mac1609_4 	ReceivedUnicastPackets 	0
scalar IntersectionExampleScenario.node[28].nic.mac1609_4 	ReceivedBroadcasts 	0
scalar IntersectionExampleScenario.node[28].nic.mac1609_4 	SentPackets 	0
scalar IntersectionExampleScenario.node[28].nic.mac1609_4 	SNIRLostPackets 	0
scalar IntersectionExampleScenario.node[28].nic.mac1609_4 	RXTXLostPackets 	0
scalar IntersectionExampleScenario.node[28].nic.mac1609_4 	TotalLostPackets 	0
scalar IntersectionExampleScenario.node[28].nic.mac1609_4 	DroppedPacketsInMac 	0
scalar IntersectionExampleScenario.node[28].nic.mac1609_4 	TooLittleTime 	0
scalar IntersectionExampleScenario.node[28].nic.mac1609_4 	TimesIntoBackoff 	0
scalar IntersectionExampleScenario.node[28].nic.mac1609_4 	SlotsBackoff 	0
scalar IntersectionExampleScenario.node[28].nic.mac1609_4 	NumInternalContention 	0
scalar IntersectionExampleScenario.node[28].nic.mac1609_4 	totalBusyTime 	0
scalar IntersectionExampleScenario.node[28].veinsmobility 	startTime 	61
scalar IntersectionExampleScenario.node[28].veinsmobility 	totalTime 	72.75
scalar IntersectionExampleScenario.node[28].veinsmobility 	stopTime 	134
scalar IntersectionExampleScenario.node[28].veinsmobility 	minSpeed 	0
scalar IntersectionExampleScenario.node[28].veinsmobility 	maxSpeed 	15.25
scalar IntersectionExampleScenario.node[28].veinsmobility 	totalDistance 	560.51268674285
scalar IntersectionExampleScenario.node[28].veinsmobility 	totalCO2Emission 	175.48500153548
scalar IntersectionExampleScenario.node[30].appl 	VehicleRemoved 	0
scalar IntersectionExampleScenario.node[30].appl 	ArrivedAtDest 	1
scalar IntersectionExampleScenario.node[30].appl 	IntersectionEnterTime 	64
scalar IntersectionExampleScenario.node[30].appl 	IntersectionExitTime 	119.5346799019
scalar IntersectionExampleScenario.node[30].appl 	NumberOfCollisions 	0
scalar IntersectionExampleScenario.node[30].nic.phy80211p 	busyTime 	0
scalar IntersectionExampleScenario.node[30].nic.mac1609_4 	ReceivedUnicastPackets 	0
scalar IntersectionExampleScenario.node[30].nic.mac1609_4 	ReceivedBroadcasts 	0
scalar IntersectionExampleScenario.node[30].nic.mac1609_4 	SentPackets 	0
scalar IntersectionExampleScenario.node[30].nic.mac1609_4 	SNIRLostPackets 	0
scalar IntersectionExampleScenario.node[30].nic.mac1609_4 	RXTXLostPackets 	0
scalar IntersectionExampleScenario.node[30].nic.mac1609_4 	TotalLostPackets 	0
scalar IntersectionExampleScenario.node[30].nic.mac1609_4 	DroppedPacketsInMac 	0
scalar IntersectionExampleScenario.node[30].nic.mac1609_4 	TooLittleTime 	0
scalar IntersectionExampleScenario.node[30].nic.mac1609_4 	TimesIntoBackoff 	0
scalar IntersectionExampleScenario.node[30].nic.mac1609_4 	SlotsBackoff 	0
scalar IntersectionExampleScenario.node[30].nic.mac1609_4 	NumInternalContention 	0
scalar IntersectionExampleScenario.node[30].nic.mac1609_4 	totalBusyTime 	0
scalar IntersectionExampleScenario.node[30].veinsmobility 	startTime 	64
scalar IntersectionExampleScenario.node[30].veinsmobility 	totalTime 	72.25
scalar IntersectionExampleScenario.node[30].veinsmobility 	stopTime 	136.5
scalar IntersectionExampleScenario.node[30].veinsmobility 	minSpeed 	0
scalar IntersectionExampleScenario.node[30].veinsmobility 	maxSpeed 	15.25
scalar IntersectionExampleScenario.node[30].veinsmobility 	totalDistance 	566.92100148126
scalar IntersectionExampleScenario.node[30].veinsmobility 	totalCO2Emission 	169.39426860144
scalar IntersectionExampleScenario.node[31].appl 	VehicleRemoved 	0
scalar IntersectionExampleScenario.node[31].appl 	ArrivedAtDest 	1
scalar IntersectionExampleScenario.node[31].appl 	IntersectionEnterTime 	68.75
scalar IntersectionExampleScenario.node[31].appl 	IntersectionExitTime 	121.52659592137
scalar IntersectionExampleScenario.node[31].appl 	NumberOfCollisions 	0
scalar IntersectionExampleScenario.node[31].nic.phy80211p 	busyTime 	0
scalar IntersectionExampleScenario.node[31].nic.mac1609_4 	ReceivedUnicastPackets 	0
scalar IntersectionExampleScenario.node[31].nic.mac1609_4 	ReceivedBroadcasts 	0
scalar IntersectionExampleScenario.node[31].nic.mac1609_4 	SentPackets 	0
scalar IntersectionExampleScenario.node[31].nic.mac1609_4 	SNIRLostPackets 	0
scalar IntersectionExampleScenario.node[31].nic.mac1609_4 	RXTXLostPackets 	0
scalar IntersectionExampleScenario.node[31].nic.mac1609_4 	TotalLostPackets 	0
scalar IntersectionExampleScenario.node[31].nic.mac1609_4 	DroppedPacketsInMac 	0
scalar IntersectionExampleScenario.node[31].nic.mac1609_4 	TooLittleTime 	0
scalar IntersectionExampleScenario.node[31].nic.mac1609_4 	TimesIntoBackoff 	0
scalar IntersectionExampleScenario.node[31].nic.mac1609_4 	SlotsBackoff 	0
scalar IntersectionExampleScenario.node[31].nic.mac1609_4 	NumInternalContention 	0
scalar IntersectionExampleScenario.node[31].nic.mac1609_4 	totalBusyTime 	0
scalar IntersectionExampleScenario.node[31].veinsmobility 	startTime 	68.75
scalar IntersectionExampleScenario.node[31].veinsmobility 	totalTime 	68.25
scalar IntersectionExampleScenario.node[31].veinsmobility 	stopTime 	137.25
scalar IntersectionExampleScenario.node[31].veinsmobility 	minSpeed 	0
scalar IntersectionExampleScenario.node[31].veinsmobility 	maxSpeed 	16.100343704224
scalar IntersectionExampleScenario.node[31].veinsmobility 	totalDistance 	567.40383911133
scalar IntersectionExampleScenario.node[31].veinsmobility 	totalCO2Emission 	163.80944745356
scalar IntersectionExampleScenario.node[18].appl 	VehicleRemoved 	0
scalar IntersectionExampleScenario.node[18].appl 	ArrivedAtDest 	1
scalar IntersectionExampleScenario.node[18].appl 	IntersectionEnterTime 	51.25
scalar IntersectionExampleScenario.node[18].appl 	IntersectionExitTime 	125.36581834356
scalar IntersectionExampleScenario.node[18].appl 	NumberOfCollisions 	0
scalar IntersectionExampleScenario.node[18].nic.phy80211p 	busyTime 	0
scalar IntersectionExampleScenario.node[18].nic.mac1609_4 	ReceivedUnicastPackets 	0
scalar IntersectionExampleScenario.node[18].nic.mac1609_4 	ReceivedBroadcasts 	0
scalar IntersectionExampleScenario.node[18].nic.mac1609_4 	SentPackets 	0
scalar IntersectionExampleScenario.node[18].nic.mac1609_4 	SNIRLostPackets 	0
scalar IntersectionExampleScenario.node[18].nic.mac1609_4 	RXTXLostPackets 	0
scalar IntersectionExampleScenario.node[18].nic.mac1609_4 	TotalLostPackets 	0
scalar IntersectionExampleScenario.node[18].nic.mac1609_4 	DroppedPacketsInMac 	0
scalar IntersectionExampleScenario.node[18].nic.mac1609_4 	TooLittleTime 	0
scalar IntersectionExampleScenario.node[18].nic.mac1609_4 	TimesIntoBackoff 	0
scalar IntersectionExampleScenario.node[18].nic.mac1609_4 	SlotsBackoff 	0
scalar IntersectionExampleScenario.node[18].nic.mac1609_4 	NumInternalContention 	0
scalar IntersectionExampleScenario.node[18].nic.mac1609_4 	totalBusyTime 	0
scalar IntersectionExampleScenario.node[18].veinsmobility 	startTime 	51.25
scalar IntersectionExampleScenario.node[18].veinsmobility 	totalTime 	90
scalar IntersectionExampleScenario.node[18].veinsmobility 	stopTime 	141.5
scalar IntersectionExampleScenario.node[18].veinsmobility 	minSpeed 	0
scalar IntersectionExampleScenario.node[18].veinsmobility 	maxSpeed 	15.375
scalar IntersectionExampleScenario.node[18].veinsmobility 	totalDistance 	570.63089861026
scalar IntersectionExampleScenario.node[18].veinsmobility 	totalCO2Emission 	193.27065833686
scalar IntersectionExampleScenario.node[20].appl 	VehicleRemoved 	0
scalar IntersectionExampleScenario.node[20].appl 	ArrivedAtDest 	1
scalar IntersectionExampleScenario.node[20].appl 	IntersectionEnterTime 	52.25
scalar IntersectionExampleScenario.node[20].appl 	IntersectionExitTime 	126.33277525275
scalar IntersectionExampleScenario.node[20].appl 	NumberOfCollisions 	0
scalar IntersectionExampleScenario.node[20].nic.phy80211p 	busyTime 	0
scalar IntersectionExampleScenario.node[20].nic.mac1609_4 	ReceivedUnicastPackets 	0
scalar IntersectionExampleScenario.node[20].nic.mac1609_4 	ReceivedBroadcasts 	0
scalar IntersectionExampleScenario.node[20].nic.mac1609_4 	SentPackets 	0
scalar IntersectionExampleScenario.node[20].nic.mac1609_4 	SNIRLostPackets 	0
scalar IntersectionExampleScenario.node[20].nic.mac1609_4 	RXTXLostPackets 	0
scalar IntersectionExampleScenario.node[20].nic.mac1609_4 	TotalLostPackets 	0
scalar IntersectionExampleScenario.node[20].nic.mac1609_4 	DroppedPacketsInMac 	0
scalar IntersectionExampleScenario.node[20].nic.mac1609_4 	TooLittleTime 	0
scalar IntersectionExampleScenario.node[20].nic.mac1609_4 	TimesIntoBackoff 	0
scalar IntersectionExampleScenario.node[20].nic.mac1609_4 	SlotsBackoff 	0
scalar IntersectionExampleScenario.node[20].nic.mac1609_4 	NumInternalContention 	0
scalar IntersectionExampleScenario.node[20].nic.mac1609_4 	totalBusyTime 	0
scalar IntersectionExampleScenario.node[20].veinsmobility 	startTime 	52.25
scalar IntersectionExampleScenario.node[20].veinsmobility 	totalTime 	89.25
scalar IntersectionExampleScenario.node[20].veinsmobility 	stopTime 	141.75
scalar IntersectionExampleScenario.node[20].veinsmobility 	minSpeed 	0
scalar IntersectionExampleScenario.node[20].veinsmobility 	maxSpeed 	16.290405273438
scalar IntersectionExampleScenario.node[20].veinsmobility 	totalDistance 	585.807472229
scalar IntersectionExampleScenario.node[20].veinsmobility 	totalCO2Emission 	203.34750019128
scalar IntersectionExampleScenario.node[33].appl 	VehicleRemoved 	0
scalar IntersectionExampleScenario.node[33].appl 	ArrivedAtDest 	1
scalar IntersectionExampleScenario.node[33].appl 	IntersectionEnterTime 	73
scalar IntersectionExampleScenario.node[33].appl 	IntersectionExitTime 	128.53422973369
scalar IntersectionExampleScenario.node[33].appl 	NumberOfCollisions 	0
scalar IntersectionExampleScenario.node[33].nic.phy80211p 	busyTime 	0
scalar IntersectionExampleScenario.node[33].nic.mac1609_4 	ReceivedUnicastPackets 	0
scalar IntersectionExampleScenario.node[33].nic.mac1609_4 	ReceivedBroadcasts 	0
scalar IntersectionExampleScenario.node[33].nic.mac1609_4 	SentPackets 	0
scalar IntersectionExampleScenario.node[33].nic.mac1609_4 	SNIRLostPackets 	0
scalar IntersectionExampleScenario.node[33].nic.mac1609_4 	RXTXLostPackets 	0
scalar IntersectionExampleScenario.node[33].nic.mac1609_4 	TotalLostPackets 	0
scalar IntersectionExampleScenario.node[33].nic.mac1609_4 	DroppedPacketsInMac 	0
scalar IntersectionExampleScenario.node[33].nic.mac1609_4 	TooLittleTime 	0
scalar IntersectionExampleScenario.node[33].nic.mac1609_4 	TimesIntoBackoff 	0
scalar IntersectionExampleScenario.node[33].nic.mac1609_4 	SlotsBackoff 	0
scalar IntersectionExampleScenario.node[33].nic.mac1609_4 	NumInternalContention 	0
scalar IntersectionExampleScenario.node[33].nic.mac1609_4 	totalBusyTime 	0
scalar IntersectionExampleScenario.node[33].veinsmobility 	startTime 	73
scalar IntersectionExampleScenario.node[33].veinsmobility 	totalTime 	71.5
scalar IntersectionExampleScenario.node[33].veinsmobility 	stopTime 	144.75
scalar IntersectionExampleScenario.node[33].veinsmobility 	minSpeed 	0
scalar IntersectionExampleScenario.node[33].veinsmobility 	maxSpeed 	15.64999961853
scalar IntersectionExampleScenario.node[33].veinsmobility 	totalDistance 	553.57694244385
scalar IntersectionExampleScenario.node[33].veinsmobility 	totalCO2Emission 	165.21482837528
scalar IntersectionExampleScenario.node[40].appl 	VehicleRemoved 	0
scalar IntersectionExampleScenario.node[40].appl 	ArrivedAtDest 	1
scalar IntersectionExampleScenario.node[40].appl 	IntersectionEnterTime 	82
scalar IntersectionExampleScenario.node[40].appl 	IntersectionExitTime 	132.30404863754
scalar IntersectionExampleScenario.node[40].appl 	NumberOfCollisions 	0
scalar IntersectionExampleScenario.node[40].nic.phy80211p 	busyTime 	0
scalar IntersectionExampleScenario.node[40].nic.mac1609_4 	ReceivedUnicastPackets 	0
scalar IntersectionExampleScenario.node[40].nic.mac1609_4 	ReceivedBroadcasts 	0
scalar IntersectionExampleScenario.node[40].nic.mac1609_4 	SentPackets 	0
scalar IntersectionExampleScenario.node[40].nic.mac1609_4 	SNIRLostPackets 	0
scalar IntersectionExampleScenario.node[40].nic.mac1609_4 	RXTXLostPackets 	0
scalar IntersectionExampleScenario.node[40].nic.mac1609_4 	TotalLostPackets 	0
scalar IntersectionExampleScenario.node[40].nic.mac1609_4 	DroppedPacketsInMac 	0
scalar IntersectionExampleScenario.node[40].nic.mac1609_4 	TooLittleTime 	0
scalar IntersectionExampleScenario.node[40].nic.mac1609_4 	TimesIntoBackoff 	0
scalar IntersectionExampleScenario.node[40].nic.mac1609_4 	SlotsBackoff 	0
scalar IntersectionExampleScenario.node[40].nic.mac1609_4 	NumInternalContention 	0
scalar IntersectionExampleScenario.node[40].nic.mac1609_4 	totalBusyTime 	0
scalar IntersectionExampleScenario.node[40].veinsmobility 	startTime 	82
scalar IntersectionExampleScenario.node[40].veinsmobility 	totalTime 	66.25
scalar IntersectionExampleScenario.node[40].veinsmobility 	stopTime 	148.5
scalar IntersectionExampleScenario.node[40].veinsmobility 	minSpeed 	0
scalar IntersectionExampleScenario.node[40].veinsmobility 	maxSpeed 	15.770698547363
scalar IntersectionExampleScenario.node[40].veinsmobility 	totalDistance 	578.59816741943
scalar IntersectionExampleScenario.node[40].veinsmobility 	totalCO2Emission 	168.65454044862
scalar IntersectionExampleScenario.node[46].appl 	VehicleRemoved 	0
scalar IntersectionExampleScenario.node[46].appl 	ArrivedAtDest 	1
scalar IntersectionExampleScenario.node[46].appl 	IntersectionEnterTime 	87.25
scalar IntersectionExampleScenario.node[46].appl 	IntersectionExitTime 	133.10608556488
scalar IntersectionExampleScenario.node[46].appl 	NumberOfCollisions 	0
scalar IntersectionExampleScenario.node[46].nic.phy80211p 	busyTime 	0
scalar IntersectionExampleScenario.node[46].nic.mac1609_4 	ReceivedUnicastPackets 	0
scalar IntersectionExampleScenario.node[46].nic.mac1609_4 	ReceivedBroadcasts 	0
scalar IntersectionExampleScenario.node[46].nic.mac1609_4 	SentPackets 	0
scalar IntersectionExampleScenario.node[46].nic.mac1609_4 	SNIRLostPackets 	0
scalar IntersectionExampleScenario.node[46].nic.mac1609_4 	RXTXLostPackets 	0
scalar IntersectionExampleScenario.node[46].nic.mac1609_4 	TotalLostPackets 	0
scalar IntersectionExampleScenario.node[46].nic.mac1609_4 	DroppedPacketsInMac 	0
scalar IntersectionExampleScenario.node[46].nic.mac1609_4 	TooLittleTime 	0
scalar IntersectionExampleScenario.node[46].nic.mac1609_4 	TimesIntoBackoff 	0
scalar IntersectionExampleScenario.node[46].nic.mac1609_4 	SlotsBackoff 	0
scalar IntersectionExampleScenario.node[46].nic.mac1609_4 	NumInternalContention 	0
scalar IntersectionExampleScenario.node[46].nic.mac1609_4 	totalBusyTime 	0
scalar IntersectionExampleScenario.node[46].veinsmobility 	startTime 	87.25
scalar IntersectionExampleScenario.node[46].veinsmobility 	totalTime 	62.5
scalar IntersectionExampleScenario.node[46].veinsmobility 	stopTime 	150
scalar IntersectionExampleScenario.node[46].veinsmobility 	minSpeed 	0
scalar IntersectionExampleScenario.node[46].veinsmobility 	maxSpeed 	15.875
scalar IntersectionExampleScenario.node[46].veinsmobility 	totalDistance 	556.67480836996
scalar IntersectionExampleScenario.node[46].veinsmobility 	totalCO2Emission 	155.60191378202
scalar IntersectionExampleScenario.node[52].appl 	VehicleRemoved 	0
scalar IntersectionExampleScenario.node[52].appl 	ArrivedAtDest 	1
scalar IntersectionExampleScenario.node[52].appl 	IntersectionEnterTime 	101.25
scalar IntersectionExampleScenario.node[52].appl 	IntersectionExitTime 	135.58341589587
scalar IntersectionExampleScenario.node[52].appl 	NumberOfCollisions 	0
scalar IntersectionExampleScenario.node[52].nic.phy80211p 	busyTime 	0
scalar IntersectionExampleScenario.node[52].nic.mac1609_4 	ReceivedUnicastPackets 	0
scalar IntersectionExampleScenario.node[52].nic.mac1609_4 	ReceivedBroadcasts 	0
scalar IntersectionExampleScenario.node[52].nic.mac1609_4 	SentPackets 	0
scalar IntersectionExampleScenario.node[52].nic.mac1609_4 	SNIRLostPackets 	0
scalar IntersectionExampleScenario.node[52].nic.mac1609_4 	RXTXLostPackets 	0
scalar IntersectionExampleScenario.node[52].nic.mac1609_4 	TotalLostPackets 	0
scalar IntersectionExampleScenario.node[52].nic.mac1609_4 	DroppedPacketsInMac 	0
scalar IntersectionExampleScenario.node[52].nic.mac1609_4 	TooLittleTime 	0
scalar IntersectionExampleScenario.node[52].nic.mac1609_4 	TimesIntoBackoff 	0
scalar IntersectionExampleScenario.node[52].nic.mac1609_4 	SlotsBackoff 	0
scalar IntersectionExampleScenario.node[52].nic.mac1609_4 	NumInternalContention 	0
[...]
scalar IntersectionExampleScenario.node[692].veinsmobility 	totalCO2Emission 	59.573443797185
scalar IntersectionExampleScenario.node[693].appl 	VehicleRemoved 	0
scalar IntersectionExampleScenario.node[693].appl 	ArrivedAtDest 	0
scalar IntersectionExampleScenario.node[693].appl 	IntersectionEnterTime 	1784.75
scalar IntersectionExampleScenario.node[693].appl 	IntersectionExitTime 	-1
scalar IntersectionExampleScenario.node[693].appl 	NumberOfCollisions 	0
scalar IntersectionExampleScenario.node[693].nic.phy80211p 	busyTime 	0
scalar IntersectionExampleScenario.node[693].nic.mac1609_4 	ReceivedUnicastPackets 	0
scalar IntersectionExampleScenario.node[693].nic.mac1609_4 	ReceivedBroadcasts 	0
scalar IntersectionExampleScenario.node[693].nic.mac1609_4 	SentPackets 	0
scalar IntersectionExampleScenario.node[693].nic.mac1609_4 	SNIRLostPackets 	0
scalar IntersectionExampleScenario.node[693].nic.mac1609_4 	RXTXLostPackets 	0
scalar IntersectionExampleScenario.node[693].nic.mac1609_4 	TotalLostPackets 	0
scalar IntersectionExampleScenario.node[693].nic.mac1609_4 	DroppedPacketsInMac 	0
scalar IntersectionExampleScenario.node[693].nic.mac1609_4 	TooLittleTime 	0
scalar IntersectionExampleScenario.node[693].nic.mac1609_4 	TimesIntoBackoff 	0
scalar IntersectionExampleScenario.node[693].nic.mac1609_4 	SlotsBackoff 	0
scalar IntersectionExampleScenario.node[693].nic.mac1609_4 	NumInternalContention 	0
scalar IntersectionExampleScenario.node[693].nic.mac1609_4 	totalBusyTime 	0
scalar IntersectionExampleScenario.node[693].veinsmobility 	startTime 	1784.75
scalar IntersectionExampleScenario.node[693].veinsmobility 	totalTime 	15.25
scalar IntersectionExampleScenario.node[693].veinsmobility 	stopTime 	1800
scalar IntersectionExampleScenario.node[693].veinsmobility 	minSpeed 	5.6500000953674
scalar IntersectionExampleScenario.node[693].veinsmobility 	maxSpeed 	15.722974777222
scalar IntersectionExampleScenario.node[693].veinsmobility 	totalDistance 	205.88671875
scalar IntersectionExampleScenario.node[693].veinsmobility 	totalCO2Emission 	51.599433759825
scalar IntersectionExampleScenario.node[694].appl 	VehicleRemoved 	0
scalar IntersectionExampleScenario.node[694].appl 	ArrivedAtDest 	0
scalar IntersectionExampleScenario.node[694].appl 	IntersectionEnterTime 	1787.75
scalar IntersectionExampleScenario.node[694].appl 	IntersectionExitTime 	-1
scalar IntersectionExampleScenario.node[694].appl 	NumberOfCollisions 	0
scalar IntersectionExampleScenario.node[694].nic.phy80211p 	busyTime 	0
scalar IntersectionExampleScenario.node[694].nic.mac1609_4 	ReceivedUnicastPackets 	0
scalar IntersectionExampleScenario.node[694].nic.mac1609_4 	ReceivedBroadcasts 	0
scalar IntersectionExampleScenario.node[694].nic.mac1609_4 	SentPackets 	0
scalar IntersectionExampleScenario.node[694].nic.mac1609_4 	SNIRLostPackets 	0
scalar IntersectionExampleScenario.node[694].nic.mac1609_4 	RXTXLostPackets 	0
scalar IntersectionExampleScenario.node[694].nic.mac1609_4 	TotalLostPackets 	0
scalar IntersectionExampleScenario.node[694].nic.mac1609_4 	DroppedPacketsInMac 	0
scalar IntersectionExampleScenario.node[694].nic.mac1609_4 	TooLittleTime 	0
scalar IntersectionExampleScenario.node[694].nic.mac1609_4 	TimesIntoBackoff 	0
scalar IntersectionExampleScenario.node[694].nic.mac1609_4 	SlotsBackoff 	0
scalar IntersectionExampleScenario.node[694].nic.mac1609_4 	NumInternalContention 	0
scalar IntersectionExampleScenario.node[694].nic.mac1609_4 	totalBusyTime 	0
scalar IntersectionExampleScenario.node[694].veinsmobility 	startTime 	1787.75
scalar IntersectionExampleScenario.node[694].veinsmobility 	totalTime 	12.25
scalar IntersectionExampleScenario.node[694].veinsmobility 	stopTime 	1800
scalar IntersectionExampleScenario.node[694].veinsmobility 	minSpeed 	5.6500000953674
scalar IntersectionExampleScenario.node[694].veinsmobility 	maxSpeed 	15.659457206726
scalar IntersectionExampleScenario.node[694].veinsmobility 	totalDistance 	165.56262207031
scalar IntersectionExampleScenario.node[694].veinsmobility 	totalCO2Emission 	49.467254284652
scalar IntersectionExampleScenario.node[695].appl 	VehicleRemoved 	0
scalar IntersectionExampleScenario.node[695].appl 	ArrivedAtDest 	0
scalar IntersectionExampleScenario.node[695].appl 	IntersectionEnterTime 	1788.25
scalar IntersectionExampleScenario.node[695].appl 	IntersectionExitTime 	-1
scalar IntersectionExampleScenario.node[695].appl 	NumberOfCollisions 	0
scalar IntersectionExampleScenario.node[695].nic.phy80211p 	busyTime 	0
scalar IntersectionExampleScenario.node[695].nic.mac1609_4 	ReceivedUnicastPackets 	0
scalar IntersectionExampleScenario.node[695].nic.mac1609_4 	ReceivedBroadcasts 	0
scalar IntersectionExampleScenario.node[695].nic.mac1609_4 	SentPackets 	0
scalar IntersectionExampleScenario.node[695].nic.mac1609_4 	SNIRLostPackets 	0
scalar IntersectionExampleScenario.node[695].nic.mac1609_4 	RXTXLostPackets 	0
scalar IntersectionExampleScenario.node[695].nic.mac1609_4 	TotalLostPackets 	0
scalar IntersectionExampleScenario.node[695].nic.mac1609_4 	DroppedPacketsInMac 	0
scalar IntersectionExampleScenario.node[695].nic.mac1609_4 	TooLittleTime 	0
scalar IntersectionExampleScenario.node[695].nic.mac1609_4 	TimesIntoBackoff 	0
scalar IntersectionExampleScenario.node[695].nic.mac1609_4 	SlotsBackoff 	0
scalar IntersectionExampleScenario.node[695].nic.mac1609_4 	NumInternalContention 	0
scalar IntersectionExampleScenario.node[695].nic.mac1609_4 	totalBusyTime 	0
scalar IntersectionExampleScenario.node[695].veinsmobility 	startTime 	1788.25
scalar IntersectionExampleScenario.node[695].veinsmobility 	totalTime 	11.75
scalar IntersectionExampleScenario.node[695].veinsmobility 	stopTime 	1800
scalar IntersectionExampleScenario.node[695].veinsmobility 	minSpeed 	5.6500000953674
scalar IntersectionExampleScenario.node[695].veinsmobility 	maxSpeed 	14.971729278564
scalar IntersectionExampleScenario.node[695].veinsmobility 	totalDistance 	133.11576080322
scalar IntersectionExampleScenario.node[695].veinsmobility 	totalCO2Emission 	46.360972827867
scalar IntersectionExampleScenario.node[696].appl 	VehicleRemoved 	0
scalar IntersectionExampleScenario.node[696].appl 	ArrivedAtDest 	0
scalar IntersectionExampleScenario.node[696].appl 	IntersectionEnterTime 	1788.75
scalar IntersectionExampleScenario.node[696].appl 	IntersectionExitTime 	-1
scalar IntersectionExampleScenario.node[696].appl 	NumberOfCollisions 	0
scalar IntersectionExampleScenario.node[696].nic.phy80211p 	busyTime 	0
scalar IntersectionExampleScenario.node[696].nic.mac1609_4 	ReceivedUnicastPackets 	0
scalar IntersectionExampleScenario.node[696].nic.mac1609_4 	ReceivedBroadcasts 	0
scalar IntersectionExampleScenario.node[696].nic.mac1609_4 	SentPackets 	0
scalar IntersectionExampleScenario.node[696].nic.mac1609_4 	SNIRLostPackets 	0
scalar IntersectionExampleScenario.node[696].nic.mac1609_4 	RXTXLostPackets 	0
scalar IntersectionExampleScenario.node[696].nic.mac1609_4 	TotalLostPackets 	0
scalar IntersectionExampleScenario.node[696].nic.mac1609_4 	DroppedPacketsInMac 	0
scalar IntersectionExampleScenario.node[696].nic.mac1609_4 	TooLittleTime 	0
scalar IntersectionExampleScenario.node[696].nic.mac1609_4 	TimesIntoBackoff 	0
scalar IntersectionExampleScenario.node[696].nic.mac1609_4 	SlotsBackoff 	0
scalar IntersectionExampleScenario.node[696].nic.mac1609_4 	NumInternalContention 	0
scalar IntersectionExampleScenario.node[696].nic.mac1609_4 	totalBusyTime 	0
scalar IntersectionExampleScenario.node[696].veinsmobility 	startTime 	1788.75
scalar IntersectionExampleScenario.node[696].veinsmobility 	totalTime 	11.25
scalar IntersectionExampleScenario.node[696].veinsmobility 	stopTime 	1800
scalar IntersectionExampleScenario.node[696].veinsmobility 	minSpeed 	5.6500000953674
scalar IntersectionExampleScenario.node[696].veinsmobility 	maxSpeed 	14.915244102478
scalar IntersectionExampleScenario.node[696].veinsmobility 	totalDistance 	124.02899169922
scalar IntersectionExampleScenario.node[696].veinsmobility 	totalCO2Emission 	42.776863342009
scalar IntersectionExampleScenario.node[697].appl 	VehicleRemoved 	0
scalar IntersectionExampleScenario.node[697].appl 	ArrivedAtDest 	0
scalar IntersectionExampleScenario.node[697].appl 	IntersectionEnterTime 	1789.5
scalar IntersectionExampleScenario.node[697].appl 	IntersectionExitTime 	-1
scalar IntersectionExampleScenario.node[697].appl 	NumberOfCollisions 	0
scalar IntersectionExampleScenario.node[697].nic.phy80211p 	busyTime 	0
scalar IntersectionExampleScenario.node[697].nic.mac1609_4 	ReceivedUnicastPackets 	0
scalar IntersectionExampleScenario.node[697].nic.mac1609_4 	ReceivedBroadcasts 	0
scalar IntersectionExampleScenario.node[697].nic.mac1609_4 	SentPackets 	0
scalar IntersectionExampleScenario.node[697].nic.mac1609_4 	SNIRLostPackets 	0
scalar IntersectionExampleScenario.node[697].nic.mac1609_4 	RXTXLostPackets 	0
scalar IntersectionExampleScenario.node[697].nic.mac1609_4 	TotalLostPackets 	0
scalar IntersectionExampleScenario.node[697].nic.mac1609_4 	DroppedPacketsInMac 	0
scalar IntersectionExampleScenario.node[697].nic.mac1609_4 	TooLittleTime 	0
scalar IntersectionExampleScenario.node[697].nic.mac1609_4 	TimesIntoBackoff 	0
scalar IntersectionExampleScenario.node[697].nic.mac1609_4 	SlotsBackoff 	0
scalar IntersectionExampleScenario.node[697].nic.mac1609_4 	NumInternalContention 	0
scalar IntersectionExampleScenario.node[697].nic.mac1609_4 	totalBusyTime 	0
scalar IntersectionExampleScenario.node[697].veinsmobility 	startTime 	1789.5
scalar IntersectionExampleScenario.node[697].veinsmobility 	totalTime 	10.5
scalar IntersectionExampleScenario.node[697].veinsmobility 	stopTime 	1800
scalar IntersectionExampleScenario.node[697].veinsmobility 	minSpeed 	5.6500000953674
scalar IntersectionExampleScenario.node[697].veinsmobility 	maxSpeed 	15.344443321228
scalar IntersectionExampleScenario.node[697].veinsmobility 	totalDistance 	132.60315704346
scalar IntersectionExampleScenario.node[697].veinsmobility 	totalCO2Emission 	40.86633603287
scalar IntersectionExampleScenario.node[698].appl 	VehicleRemoved 	0
scalar IntersectionExampleScenario.node[698].appl 	ArrivedAtDest 	0
scalar IntersectionExampleScenario.node[698].appl 	IntersectionEnterTime 	1791.75
scalar IntersectionExampleScenario.node[698].appl 	IntersectionExitTime 	-1
scalar IntersectionExampleScenario.node[698].appl 	NumberOfCollisions 	0
scalar IntersectionExampleScenario.node[698].nic.phy80211p 	busyTime 	0
scalar IntersectionExampleScenario.node[698].nic.mac1609_4 	ReceivedUnicastPackets 	0
scalar IntersectionExampleScenario.node[698].nic.mac1609_4 	ReceivedBroadcasts 	0
scalar IntersectionExampleScenario.node[698].nic.mac1609_4 	SentPackets 	0
scalar IntersectionExampleScenario.node[698].nic.mac1609_4 	SNIRLostPackets 	0
scalar IntersectionExampleScenario.node[698].nic.mac1609_4 	RXTXLostPackets 	0
scalar IntersectionExampleScenario.node[698].nic.mac1609_4 	TotalLostPackets 	0
scalar IntersectionExampleScenario.node[698].nic.mac1609_4 	DroppedPacketsInMac 	0
scalar IntersectionExampleScenario.node[698].nic.mac1609_4 	TooLittleTime 	0
scalar IntersectionExampleScenario.node[698].nic.mac1609_4 	TimesIntoBackoff 	0
scalar IntersectionExampleScenario.node[698].nic.mac1609_4 	SlotsBackoff 	0
scalar IntersectionExampleScenario.node[698].nic.mac1609_4 	NumInternalContention 	0
scalar IntersectionExampleScenario.node[698].nic.mac1609_4 	totalBusyTime 	0
scalar IntersectionExampleScenario.node[698].veinsmobility 	startTime 	1791.75
scalar IntersectionExampleScenario.node[698].veinsmobility 	totalTime 	8.25
scalar IntersectionExampleScenario.node[698].veinsmobility 	stopTime 	1800
scalar IntersectionExampleScenario.node[698].veinsmobility 	minSpeed 	5.6500000953674
scalar IntersectionExampleScenario.node[698].veinsmobility 	maxSpeed 	15.64999961853
scalar IntersectionExampleScenario.node[698].veinsmobility 	totalDistance 	106.43060302734
scalar IntersectionExampleScenario.node[698].veinsmobility 	totalCO2Emission 	42.304456670589
scalar IntersectionExampleScenario.node[699].appl 	VehicleRemoved 	0
scalar IntersectionExampleScenario.node[699].appl 	ArrivedAtDest 	0
scalar IntersectionExampleScenario.node[699].appl 	IntersectionEnterTime 	1793
scalar IntersectionExampleScenario.node[699].appl 	IntersectionExitTime 	-1
scalar IntersectionExampleScenario.node[699].appl 	NumberOfCollisions 	0
scalar IntersectionExampleScenario.node[699].nic.phy80211p 	busyTime 	0
scalar IntersectionExampleScenario.node[699].nic.mac1609_4 	ReceivedUnicastPackets 	0
scalar IntersectionExampleScenario.node[699].nic.mac1609_4 	ReceivedBroadcasts 	0
scalar IntersectionExampleScenario.node[699].nic.mac1609_4 	SentPackets 	0
scalar IntersectionExampleScenario.node[699].nic.mac1609_4 	SNIRLostPackets 	0
scalar IntersectionExampleScenario.node[699].nic.mac1609_4 	RXTXLostPackets 	0
scalar IntersectionExampleScenario.node[699].nic.mac1609_4 	TotalLostPackets 	0
scalar IntersectionExampleScenario.node[699].nic.mac1609_4 	DroppedPacketsInMac 	0
scalar IntersectionExampleScenario.node[699].nic.mac1609_4 	TooLittleTime 	0
scalar IntersectionExampleScenario.node[699].nic.mac1609_4 	TimesIntoBackoff 	0
scalar IntersectionExampleScenario.node[699].nic.mac1609_4 	SlotsBackoff 	0
scalar IntersectionExampleScenario.node[699].nic.mac1609_4 	NumInternalContention 	0
scalar IntersectionExampleScenario.node[699].nic.mac1609_4 	totalBusyTime 	0
scalar IntersectionExampleScenario.node[699].veinsmobility 	startTime 	1793
scalar IntersectionExampleScenario.node[699].veinsmobility 	totalTime 	7
scalar IntersectionExampleScenario.node[699].veinsmobility 	stopTime 	1800
scalar IntersectionExampleScenario.node[699].veinsmobility 	minSpeed 	5.6500000953674
scalar IntersectionExampleScenario.node[699].veinsmobility 	maxSpeed 	15.64999961853
scalar IntersectionExampleScenario.node[699].veinsmobility 	totalDistance 	86.401710510254
scalar IntersectionExampleScenario.node[699].veinsmobility 	totalCO2Emission 	38.57036487684
scalar IntersectionExampleScenario.node[700].appl 	VehicleRemoved 	0
scalar IntersectionExampleScenario.node[700].appl 	ArrivedAtDest 	0
scalar IntersectionExampleScenario.node[700].appl 	IntersectionEnterTime 	1796.25
scalar IntersectionExampleScenario.node[700].appl 	IntersectionExitTime 	-1
scalar IntersectionExampleScenario.node[700].appl 	NumberOfCollisions 	0
scalar IntersectionExampleScenario.node[700].nic.phy80211p 	busyTime 	0
scalar IntersectionExampleScenario.node[700].nic.mac1609_4 	ReceivedUnicastPackets 	0
scalar IntersectionExampleScenario.node[700].nic.mac1609_4 	ReceivedBroadcasts 	0
scalar IntersectionExampleScenario.node[700].nic.mac1609_4 	SentPackets 	0
scalar IntersectionExampleScenario.node[700].nic.mac1609_4 	SNIRLostPackets 	0
scalar IntersectionExampleScenario.node[700].nic.mac1609_4 	RXTXLostPackets 	0
scalar IntersectionExampleScenario.node[700].nic.mac1609_4 	TotalLostPackets 	0
scalar IntersectionExampleScenario.node[700].nic.mac1609_4 	DroppedPacketsInMac 	0
scalar IntersectionExampleScenario.node[700].nic.mac1609_4 	TooLittleTime 	0
scalar IntersectionExampleScenario.node[700].nic.mac1609_4 	TimesIntoBackoff 	0
scalar IntersectionExampleScenario.node[700].nic.mac1609_4 	SlotsBackoff 	0
scalar IntersectionExampleScenario.node[700].nic.mac1609_4 	NumInternalContention 	0
scalar IntersectionExampleScenario.node[700].nic.mac1609_4 	totalBusyTime 	0
scalar IntersectionExampleScenario.node[700].veinsmobility 	startTime 	1796.25
scalar IntersectionExampleScenario.node[700].veinsmobility 	totalTime 	3.75
scalar IntersectionExampleScenario.node[700].veinsmobility 	stopTime 	1800
scalar IntersectionExampleScenario.node[700].veinsmobility 	minSpeed 	5.6500000953674
scalar IntersectionExampleScenario.node[700].veinsmobility 	maxSpeed 	14.39999961853
scalar IntersectionExampleScenario.node[700].veinsmobility 	totalDistance 	36.421859741211
scalar IntersectionExampleScenario.node[700].veinsmobility 	totalCO2Emission 	27.850414058068
scalar IntersectionExampleScenario.node[701].appl 	VehicleRemoved 	0
scalar IntersectionExampleScenario.node[701].appl 	ArrivedAtDest 	0
scalar IntersectionExampleScenario.node[701].appl 	IntersectionEnterTime 	1797
scalar IntersectionExampleScenario.node[701].appl 	IntersectionExitTime 	-1
scalar IntersectionExampleScenario.node[701].appl 	NumberOfCollisions 	0
scalar IntersectionExampleScenario.node[701].nic.phy80211p 	busyTime 	0
scalar IntersectionExampleScenario.node[701].nic.mac1609_4 	ReceivedUnicastPackets 	0
scalar IntersectionExampleScenario.node[701].nic.mac1609_4 	ReceivedBroadcasts 	0
scalar IntersectionExampleScenario.node[701].nic.mac1609_4 	SentPackets 	0
scalar IntersectionExampleScenario.node[701].nic.mac1609_4 	SNIRLostPackets 	0
scalar IntersectionExampleScenario.node[701].nic.mac1609_4 	RXTXLostPackets 	0
scalar IntersectionExampleScenario.node[701].nic.mac1609_4 	TotalLostPackets 	0
scalar IntersectionExampleScenario.node[701].nic.mac1609_4 	DroppedPacketsInMac 	0
scalar IntersectionExampleScenario.node[701].nic.mac1609_4 	TooLittleTime 	0
scalar IntersectionExampleScenario.node[701].nic.mac1609_4 	TimesIntoBackoff 	0
scalar IntersectionExampleScenario.node[701].nic.mac1609_4 	SlotsBackoff 	0
scalar IntersectionExampleScenario.node[701].nic.mac1609_4 	NumInternalContention 	0
scalar IntersectionExampleScenario.node[701].nic.mac1609_4 	totalBusyTime 	0
scalar IntersectionExampleScenario.node[701].veinsmobility 	startTime 	1797
scalar IntersectionExampleScenario.node[701].veinsmobility 	totalTime 	3
scalar IntersectionExampleScenario.node[701].veinsmobility 	stopTime 	1800
scalar IntersectionExampleScenario.node[701].veinsmobility 	minSpeed 	5.6500000953674
scalar IntersectionExampleScenario.node[701].veinsmobility 	maxSpeed 	12.52499961853
scalar IntersectionExampleScenario.node[701].veinsmobility 	totalDistance 	26.325012207031
scalar IntersectionExampleScenario.node[701].veinsmobility 	totalCO2Emission 	20.113115050741
scalar IntersectionExampleScenario.node[702].appl 	VehicleRemoved 	0
scalar IntersectionExampleScenario.node[702].appl 	ArrivedAtDest 	0
scalar IntersectionExampleScenario.node[702].appl 	IntersectionEnterTime 	1799
scalar IntersectionExampleScenario.node[702].appl 	IntersectionExitTime 	-1
scalar IntersectionExampleScenario.node[702].appl 	NumberOfCollisions 	0
scalar IntersectionExampleScenario.node[702].nic.phy80211p 	busyTime 	0
scalar IntersectionExampleScenario.node[702].nic.mac1609_4 	ReceivedUnicastPackets 	0
scalar IntersectionExampleScenario.node[702].nic.mac1609_4 	ReceivedBroadcasts 	0
scalar IntersectionExampleScenario.node[702].nic.mac1609_4 	SentPackets 	0
scalar IntersectionExampleScenario.node[702].nic.mac1609_4 	SNIRLostPackets 	0
scalar IntersectionExampleScenario.node[702].nic.mac1609_4 	RXTXLostPackets 	0
scalar IntersectionExampleScenario.node[702].nic.mac1609_4 	TotalLostPackets 	0
scalar IntersectionExampleScenario.node[702].nic.mac1609_4 	DroppedPacketsInMac 	0
scalar IntersectionExampleScenario.node[702].nic.mac1609_4 	TooLittleTime 	0
scalar IntersectionExampleScenario.node[702].nic.mac1609_4 	TimesIntoBackoff 	0
scalar IntersectionExampleScenario.node[702].nic.mac1609_4 	SlotsBackoff 	0
scalar IntersectionExampleScenario.node[702].nic.mac1609_4 	NumInternalContention 	0
scalar IntersectionExampleScenario.node[702].nic.mac1609_4 	totalBusyTime 	0
scalar IntersectionExampleScenario.node[702].veinsmobility 	startTime 	1799
scalar IntersectionExampleScenario.node[702].veinsmobility 	totalTime 	1
scalar IntersectionExampleScenario.node[702].veinsmobility 	stopTime 	1800
scalar IntersectionExampleScenario.node[702].veinsmobility 	minSpeed 	5.6500000953674
scalar IntersectionExampleScenario.node[702].veinsmobility 	maxSpeed 	7.5250000953674
scalar IntersectionExampleScenario.node[702].veinsmobility 	totalDistance 	6.2750244140625
scalar IntersectionExampleScenario.node[702].veinsmobility 	totalCO2Emission 	4.2232135025359
