version 2
run nodebug-0-20200605-18:17:06-18076
attr configname nodebug
attr datetime 20200605-18:17:06
attr experiment nodebug
attr inifile omnetpp.ini
attr iterationvars ""
attr iterationvars2 $repetition=0
attr measurement ""
attr network "\"org.car2x.veins.modules.application.ExtTraCIScenarioManagerLaunchd.IntersectionExampleScenario\""
attr processid 18076
attr repetition 0
attr replication #0
attr resultdir results
attr runnumber 0
attr seedset 0
param **.coreDebug false
param **.debug false
param *.**.nic.mac1609_4.bitrate 18Mbps
param *.**.nic.mac1609_4.txPower 20mW
param *.**.nic.mac1609_4.useServiceChannel false
param *.**.nic.phy80211p.analogueModels "xmldoc(\"config.xml\")"
param *.**.nic.phy80211p.decider "xmldoc(\"config.xml\")"
param *.**.nic.phy80211p.sensitivity -89dBm
param *.**.nic.phy80211p.thermalNoise -110dBm
param *.**.nic.phy80211p.usePropagationDelay true
param *.**.nic.phy80211p.useThermalNoise true
param *.annotations.draw false
param *.connectionManager.alpha 2.0
param *.connectionManager.carrierFrequency "5.890e9 Hz"
param *.connectionManager.pMax 20mW
param *.connectionManager.sat -89dBm
param *.connectionManager.sendDirect true
param *.manager.autoShutdown true
param *.manager.host "\"localhost\""
param *.manager.launchConfig "xmldoc(\"paramics.launchd.xml\")"
param *.manager.margin 25
param *.manager.moduleDisplayString "\"\""
param *.manager.moduleName "\"node\""
param *.manager.moduleType "\"org.car2x.veins.nodes.Car\""
param *.manager.port 9999
param *.manager.updateInterval 250ms
param *.node[*0].veinsmobility.accidentCount 0
param *.node[*0].veinsmobility.accidentDuration 30s
param *.node[*0].veinsmobility.accidentStart 75s
param *.node[*].appl.LiderSelectZoneRadio 55.0
param *.node[*].appl.ShareDataZoneRadio 110.0
param *.node[*].appl.TiempoSemaforo 30.0
param *.node[*].appl.beaconInterval 1s
param *.node[*].appl.beaconPriority 3
param *.node[*].appl.dataOnSch false
param *.node[*].appl.dataPriority 2
param *.node[*].appl.debug false
param *.node[*].appl.headerLength "256 bit"
param *.node[*].appl.maxOffset 0.005s
param *.node[*].appl.sendBeacons false
param *.node[*].appl.sendData true
param *.node[*].applType "\"Dummy\""
param *.node[*].mobilityType "\"TraCIMobility\""
param *.node[*].mobilityType.debug true
param *.node[*].veinsmobility.x 0
param *.node[*].veinsmobility.y 0
param *.node[*].veinsmobility.z 1.895
param *.node[*].veinsmobilityType "\"org.car2x.veins.modules.mobility.traci.TraCIMobility\""
param *.node[*].veinsmobilityType.debug true
param *.playgroundSizeX 8500m
param *.playgroundSizeY 8500m
param *.playgroundSizeZ 50m
param *.world.use2D false
param *.world.useTorus false

scalar IntersectionExampleScenario.node[0].appl 	VehicleRemoved 	0
scalar IntersectionExampleScenario.node[0].appl 	ArrivedAtDest 	1
scalar IntersectionExampleScenario.node[0].appl 	IntersectionEnterTime 	9
scalar IntersectionExampleScenario.node[0].appl 	IntersectionExitTime 	32.568110397173
scalar IntersectionExampleScenario.node[0].appl 	NumberOfCollisions 	0
scalar IntersectionExampleScenario.node[0].nic.phy80211p 	busyTime 	0
scalar IntersectionExampleScenario.node[0].nic.mac1609_4 	ReceivedUnicastPackets 	0
scalar IntersectionExampleScenario.node[0].nic.mac1609_4 	ReceivedBroadcasts 	0
scalar IntersectionExampleScenario.node[0].nic.mac1609_4 	SentPackets 	0
scalar IntersectionExampleScenario.node[0].nic.mac1609_4 	SNIRLostPackets 	0
scalar IntersectionExampleScenario.node[0].nic.mac1609_4 	RXTXLostPackets 	0
scalar IntersectionExampleScenario.node[0].nic.mac1609_4 	TotalLostPackets 	0
scalar IntersectionExampleScenario.node[0].nic.mac1609_4 	DroppedPacketsInMac 	0
scalar IntersectionExampleScenario.node[0].nic.mac1609_4 	TooLittleTime 	0
scalar IntersectionExampleScenario.node[0].nic.mac1609_4 	TimesIntoBackoff 	0
scalar IntersectionExampleScenario.node[0].nic.mac1609_4 	SlotsBackoff 	0
scalar IntersectionExampleScenario.node[0].nic.mac1609_4 	NumInternalContention 	0
scalar IntersectionExampleScenario.node[0].nic.mac1609_4 	totalBusyTime 	0
scalar IntersectionExampleScenario.node[0].veinsmobility 	startTime 	9
scalar IntersectionExampleScenario.node[0].veinsmobility 	totalTime 	40
scalar IntersectionExampleScenario.node[0].veinsmobility 	stopTime 	49.25
scalar IntersectionExampleScenario.node[0].veinsmobility 	minSpeed 	5.6500000953674
scalar IntersectionExampleScenario.node[0].veinsmobility 	maxSpeed 	15.375
scalar IntersectionExampleScenario.node[0].veinsmobility 	totalDistance 	549.31681621147
scalar IntersectionExampleScenario.node[0].veinsmobility 	totalCO2Emission 	120.7194466891
scalar IntersectionExampleScenario.node[1].appl 	VehicleRemoved 	0
scalar IntersectionExampleScenario.node[1].appl 	ArrivedAtDest 	1
scalar IntersectionExampleScenario.node[1].appl 	IntersectionEnterTime 	11
scalar IntersectionExampleScenario.node[1].appl 	IntersectionExitTime 	44.61147162522
scalar IntersectionExampleScenario.node[1].appl 	NumberOfCollisions 	0
scalar IntersectionExampleScenario.node[1].nic.phy80211p 	busyTime 	0
scalar IntersectionExampleScenario.node[1].nic.mac1609_4 	ReceivedUnicastPackets 	0
scalar IntersectionExampleScenario.node[1].nic.mac1609_4 	ReceivedBroadcasts 	0
scalar IntersectionExampleScenario.node[1].nic.mac1609_4 	SentPackets 	0
scalar IntersectionExampleScenario.node[1].nic.mac1609_4 	SNIRLostPackets 	0
scalar IntersectionExampleScenario.node[1].nic.mac1609_4 	RXTXLostPackets 	0
scalar IntersectionExampleScenario.node[1].nic.mac1609_4 	TotalLostPackets 	0
scalar IntersectionExampleScenario.node[1].nic.mac1609_4 	DroppedPacketsInMac 	0
scalar IntersectionExampleScenario.node[1].nic.mac1609_4 	TooLittleTime 	0
scalar IntersectionExampleScenario.node[1].nic.mac1609_4 	TimesIntoBackoff 	0
scalar IntersectionExampleScenario.node[1].nic.mac1609_4 	SlotsBackoff 	0
scalar IntersectionExampleScenario.node[1].nic.mac1609_4 	NumInternalContention 	0
scalar IntersectionExampleScenario.node[1].nic.mac1609_4 	totalBusyTime 	0
scalar IntersectionExampleScenario.node[1].veinsmobility 	startTime 	11
scalar IntersectionExampleScenario.node[1].veinsmobility 	totalTime 	49.5
scalar IntersectionExampleScenario.node[1].veinsmobility 	stopTime 	60.75
scalar IntersectionExampleScenario.node[1].veinsmobility 	minSpeed 	0
scalar IntersectionExampleScenario.node[1].veinsmobility 	maxSpeed 	16.89999961853
scalar IntersectionExampleScenario.node[1].veinsmobility 	totalDistance 	546.36792661101
scalar IntersectionExampleScenario.node[1].veinsmobility 	totalCO2Emission 	150.80981354115
scalar IntersectionExampleScenario.node[4].appl 	VehicleRemoved 	0
scalar IntersectionExampleScenario.node[4].appl 	ArrivedAtDest 	1
scalar IntersectionExampleScenario.node[4].appl 	IntersectionEnterTime 	28
scalar IntersectionExampleScenario.node[4].appl 	IntersectionExitTime 	51.858751518157
scalar IntersectionExampleScenario.node[4].appl 	NumberOfCollisions 	0
scalar IntersectionExampleScenario.node[4].nic.phy80211p 	busyTime 	0
scalar IntersectionExampleScenario.node[4].nic.mac1609_4 	ReceivedUnicastPackets 	0
scalar IntersectionExampleScenario.node[4].nic.mac1609_4 	ReceivedBroadcasts 	0
scalar IntersectionExampleScenario.node[4].nic.mac1609_4 	SentPackets 	0
scalar IntersectionExampleScenario.node[4].nic.mac1609_4 	SNIRLostPackets 	0
scalar IntersectionExampleScenario.node[4].nic.mac1609_4 	RXTXLostPackets 	0
scalar IntersectionExampleScenario.node[4].nic.mac1609_4 	TotalLostPackets 	0
scalar IntersectionExampleScenario.node[4].nic.mac1609_4 	DroppedPacketsInMac 	0
scalar IntersectionExampleScenario.node[4].nic.mac1609_4 	TooLittleTime 	0
scalar IntersectionExampleScenario.node[4].nic.mac1609_4 	TimesIntoBackoff 	0
scalar IntersectionExampleScenario.node[4].nic.mac1609_4 	SlotsBackoff 	0
scalar IntersectionExampleScenario.node[4].nic.mac1609_4 	NumInternalContention 	0
scalar IntersectionExampleScenario.node[4].nic.mac1609_4 	totalBusyTime 	0
scalar IntersectionExampleScenario.node[4].veinsmobility 	startTime 	28
scalar IntersectionExampleScenario.node[4].veinsmobility 	totalTime 	40.75
scalar IntersectionExampleScenario.node[4].veinsmobility 	stopTime 	69
scalar IntersectionExampleScenario.node[4].veinsmobility 	minSpeed 	5.6500000953674
scalar IntersectionExampleScenario.node[4].veinsmobility 	maxSpeed 	15.25
scalar IntersectionExampleScenario.node[4].veinsmobility 	totalDistance 	543.6433379672
scalar IntersectionExampleScenario.node[4].veinsmobility 	totalCO2Emission 	124.01051538148
scalar IntersectionExampleScenario.node[3].appl 	VehicleRemoved 	0
scalar IntersectionExampleScenario.node[3].appl 	ArrivedAtDest 	1
scalar IntersectionExampleScenario.node[3].appl 	IntersectionEnterTime 	21
scalar IntersectionExampleScenario.node[3].appl 	IntersectionExitTime 	52.510891162121
scalar IntersectionExampleScenario.node[3].appl 	NumberOfCollisions 	0
scalar IntersectionExampleScenario.node[3].nic.phy80211p 	busyTime 	0
scalar IntersectionExampleScenario.node[3].nic.mac1609_4 	ReceivedUnicastPackets 	0
scalar IntersectionExampleScenario.node[3].nic.mac1609_4 	ReceivedBroadcasts 	0
scalar IntersectionExampleScenario.node[3].nic.mac1609_4 	SentPackets 	0
scalar IntersectionExampleScenario.node[3].nic.mac1609_4 	SNIRLostPackets 	0
scalar IntersectionExampleScenario.node[3].nic.mac1609_4 	RXTXLostPackets 	0
scalar IntersectionExampleScenario.node[3].nic.mac1609_4 	TotalLostPackets 	0
scalar IntersectionExampleScenario.node[3].nic.mac1609_4 	DroppedPacketsInMac 	0
scalar IntersectionExampleScenario.node[3].nic.mac1609_4 	TooLittleTime 	0
scalar IntersectionExampleScenario.node[3].nic.mac1609_4 	TimesIntoBackoff 	0
scalar IntersectionExampleScenario.node[3].nic.mac1609_4 	SlotsBackoff 	0
scalar IntersectionExampleScenario.node[3].nic.mac1609_4 	NumInternalContention 	0
scalar IntersectionExampleScenario.node[3].nic.mac1609_4 	totalBusyTime 	0
scalar IntersectionExampleScenario.node[3].veinsmobility 	startTime 	21
scalar IntersectionExampleScenario.node[3].veinsmobility 	totalTime 	48.5
scalar IntersectionExampleScenario.node[3].veinsmobility 	stopTime 	69.75
scalar IntersectionExampleScenario.node[3].veinsmobility 	minSpeed 	0
scalar IntersectionExampleScenario.node[3].veinsmobility 	maxSpeed 	15.25
scalar IntersectionExampleScenario.node[3].veinsmobility 	totalDistance 	543.92479611785
scalar IntersectionExampleScenario.node[3].veinsmobility 	totalCO2Emission 	137.59935192622
scalar IntersectionExampleScenario.node[2].appl 	VehicleRemoved 	0
scalar IntersectionExampleScenario.node[2].appl 	ArrivedAtDest 	1
scalar IntersectionExampleScenario.node[2].appl 	IntersectionEnterTime 	14.25
scalar IntersectionExampleScenario.node[2].appl 	IntersectionExitTime 	61.316111865191
scalar IntersectionExampleScenario.node[2].appl 	NumberOfCollisions 	0
scalar IntersectionExampleScenario.node[2].nic.phy80211p 	busyTime 	0
scalar IntersectionExampleScenario.node[2].nic.mac1609_4 	ReceivedUnicastPackets 	0
scalar IntersectionExampleScenario.node[2].nic.mac1609_4 	ReceivedBroadcasts 	0
scalar IntersectionExampleScenario.node[2].nic.mac1609_4 	SentPackets 	0
scalar IntersectionExampleScenario.node[2].nic.mac1609_4 	SNIRLostPackets 	0
scalar IntersectionExampleScenario.node[2].nic.mac1609_4 	RXTXLostPackets 	0
scalar IntersectionExampleScenario.node[2].nic.mac1609_4 	TotalLostPackets 	0
scalar IntersectionExampleScenario.node[2].nic.mac1609_4 	DroppedPacketsInMac 	0
scalar IntersectionExampleScenario.node[2].nic.mac1609_4 	TooLittleTime 	0
scalar IntersectionExampleScenario.node[2].nic.mac1609_4 	TimesIntoBackoff 	0
scalar IntersectionExampleScenario.node[2].nic.mac1609_4 	SlotsBackoff 	0
scalar IntersectionExampleScenario.node[2].nic.mac1609_4 	NumInternalContention 	0
scalar IntersectionExampleScenario.node[2].nic.mac1609_4 	totalBusyTime 	0
scalar IntersectionExampleScenario.node[2].veinsmobility 	startTime 	14.25
scalar IntersectionExampleScenario.node[2].veinsmobility 	totalTime 	63.25
scalar IntersectionExampleScenario.node[2].veinsmobility 	stopTime 	77.75
scalar IntersectionExampleScenario.node[2].veinsmobility 	minSpeed 	0
scalar IntersectionExampleScenario.node[2].veinsmobility 	maxSpeed 	15.375
scalar IntersectionExampleScenario.node[2].veinsmobility 	totalDistance 	551.64493560791
scalar IntersectionExampleScenario.node[2].veinsmobility 	totalCO2Emission 	152.75143353381
scalar IntersectionExampleScenario.node[5].appl 	VehicleRemoved 	0
scalar IntersectionExampleScenario.node[5].appl 	ArrivedAtDest 	1
scalar IntersectionExampleScenario.node[5].appl 	IntersectionEnterTime 	30.25
scalar IntersectionExampleScenario.node[5].appl 	IntersectionExitTime 	62.347566146957
scalar IntersectionExampleScenario.node[5].appl 	NumberOfCollisions 	0
scalar IntersectionExampleScenario.node[5].nic.phy80211p 	busyTime 	0
scalar IntersectionExampleScenario.node[5].nic.mac1609_4 	ReceivedUnicastPackets 	0
scalar IntersectionExampleScenario.node[5].nic.mac1609_4 	ReceivedBroadcasts 	0
scalar IntersectionExampleScenario.node[5].nic.mac1609_4 	SentPackets 	0
scalar IntersectionExampleScenario.node[5].nic.mac1609_4 	SNIRLostPackets 	0
scalar IntersectionExampleScenario.node[5].nic.mac1609_4 	RXTXLostPackets 	0
scalar IntersectionExampleScenario.node[5].nic.mac1609_4 	TotalLostPackets 	0
scalar IntersectionExampleScenario.node[5].nic.mac1609_4 	DroppedPacketsInMac 	0
scalar IntersectionExampleScenario.node[5].nic.mac1609_4 	TooLittleTime 	0
scalar IntersectionExampleScenario.node[5].nic.mac1609_4 	TimesIntoBackoff 	0
scalar IntersectionExampleScenario.node[5].nic.mac1609_4 	SlotsBackoff 	0
scalar IntersectionExampleScenario.node[5].nic.mac1609_4 	NumInternalContention 	0
scalar IntersectionExampleScenario.node[5].nic.mac1609_4 	totalBusyTime 	0
scalar IntersectionExampleScenario.node[5].veinsmobility 	startTime 	30.25
scalar IntersectionExampleScenario.node[5].veinsmobility 	totalTime 	48.75
scalar IntersectionExampleScenario.node[5].veinsmobility 	stopTime 	79.25
scalar IntersectionExampleScenario.node[5].veinsmobility 	minSpeed 	1.621835231781
scalar IntersectionExampleScenario.node[5].veinsmobility 	maxSpeed 	15.64999961853
scalar IntersectionExampleScenario.node[5].veinsmobility 	totalDistance 	544.76782815862
scalar IntersectionExampleScenario.node[5].veinsmobility 	totalCO2Emission 	136.82424142007
scalar IntersectionExampleScenario.node[7].appl 	VehicleRemoved 	0
scalar IntersectionExampleScenario.node[7].appl 	ArrivedAtDest 	1
scalar IntersectionExampleScenario.node[7].appl 	IntersectionEnterTime 	43
scalar IntersectionExampleScenario.node[7].appl 	IntersectionExitTime 	66.596779210813
scalar IntersectionExampleScenario.node[7].appl 	NumberOfCollisions 	0
scalar IntersectionExampleScenario.node[7].nic.phy80211p 	busyTime 	0
scalar IntersectionExampleScenario.node[7].nic.mac1609_4 	ReceivedUnicastPackets 	0
scalar IntersectionExampleScenario.node[7].nic.mac1609_4 	ReceivedBroadcasts 	0
scalar IntersectionExampleScenario.node[7].nic.mac1609_4 	SentPackets 	0
scalar IntersectionExampleScenario.node[7].nic.mac1609_4 	SNIRLostPackets 	0
scalar IntersectionExampleScenario.node[7].nic.mac1609_4 	RXTXLostPackets 	0
scalar IntersectionExampleScenario.node[7].nic.mac1609_4 	TotalLostPackets 	0
scalar IntersectionExampleScenario.node[7].nic.mac1609_4 	DroppedPacketsInMac 	0
scalar IntersectionExampleScenario.node[7].nic.mac1609_4 	TooLittleTime 	0
scalar IntersectionExampleScenario.node[7].nic.mac1609_4 	TimesIntoBackoff 	0
scalar IntersectionExampleScenario.node[7].nic.mac1609_4 	SlotsBackoff 	0
scalar IntersectionExampleScenario.node[7].nic.mac1609_4 	NumInternalContention 	0
scalar IntersectionExampleScenario.node[7].nic.mac1609_4 	totalBusyTime 	0
scalar IntersectionExampleScenario.node[7].veinsmobility 	startTime 	43
scalar IntersectionExampleScenario.node[7].veinsmobility 	totalTime 	40.25
scalar IntersectionExampleScenario.node[7].veinsmobility 	stopTime 	83.5
scalar IntersectionExampleScenario.node[7].veinsmobility 	minSpeed 	5.6500000953674
scalar IntersectionExampleScenario.node[7].veinsmobility 	maxSpeed 	15.138296127319
scalar IntersectionExampleScenario.node[7].veinsmobility 	totalDistance 	553.746925354
scalar IntersectionExampleScenario.node[7].veinsmobility 	totalCO2Emission 	118.07316773742
scalar IntersectionExampleScenario.node[6].appl 	VehicleRemoved 	0
scalar IntersectionExampleScenario.node[6].appl 	ArrivedAtDest 	1
scalar IntersectionExampleScenario.node[6].appl 	IntersectionEnterTime 	33
scalar IntersectionExampleScenario.node[6].appl 	IntersectionExitTime 	67.618083614827
scalar IntersectionExampleScenario.node[6].appl 	NumberOfCollisions 	0
scalar IntersectionExampleScenario.node[6].nic.phy80211p 	busyTime 	0
scalar IntersectionExampleScenario.node[6].nic.mac1609_4 	ReceivedUnicastPackets 	0
scalar IntersectionExampleScenario.node[6].nic.mac1609_4 	ReceivedBroadcasts 	0
scalar IntersectionExampleScenario.node[6].nic.mac1609_4 	SentPackets 	0
scalar IntersectionExampleScenario.node[6].nic.mac1609_4 	SNIRLostPackets 	0
scalar IntersectionExampleScenario.node[6].nic.mac1609_4 	RXTXLostPackets 	0
scalar IntersectionExampleScenario.node[6].nic.mac1609_4 	TotalLostPackets 	0
scalar IntersectionExampleScenario.node[6].nic.mac1609_4 	DroppedPacketsInMac 	0
scalar IntersectionExampleScenario.node[6].nic.mac1609_4 	TooLittleTime 	0
scalar IntersectionExampleScenario.node[6].nic.mac1609_4 	TimesIntoBackoff 	0
scalar IntersectionExampleScenario.node[6].nic.mac1609_4 	SlotsBackoff 	0
scalar IntersectionExampleScenario.node[6].nic.mac1609_4 	NumInternalContention 	0
scalar IntersectionExampleScenario.node[6].nic.mac1609_4 	totalBusyTime 	0
scalar IntersectionExampleScenario.node[6].veinsmobility 	startTime 	33
scalar IntersectionExampleScenario.node[6].veinsmobility 	totalTime 	51.5
scalar IntersectionExampleScenario.node[6].veinsmobility 	stopTime 	84.75
scalar IntersectionExampleScenario.node[6].veinsmobility 	minSpeed 	0
scalar IntersectionExampleScenario.node[6].veinsmobility 	maxSpeed 	15.25
scalar IntersectionExampleScenario.node[6].veinsmobility 	totalDistance 	545.54154874236
scalar IntersectionExampleScenario.node[6].veinsmobility 	totalCO2Emission 	141.77398834017
scalar IntersectionExampleScenario.node[12].appl 	VehicleRemoved 	0
scalar IntersectionExampleScenario.node[12].appl 	ArrivedAtDest 	1
scalar IntersectionExampleScenario.node[12].appl 	IntersectionEnterTime 	50.5
scalar IntersectionExampleScenario.node[12].appl 	IntersectionExitTime 	73.504803178192
scalar IntersectionExampleScenario.node[12].appl 	NumberOfCollisions 	0
scalar IntersectionExampleScenario.node[12].nic.phy80211p 	busyTime 	0
scalar IntersectionExampleScenario.node[12].nic.mac1609_4 	ReceivedUnicastPackets 	0
scalar IntersectionExampleScenario.node[12].nic.mac1609_4 	ReceivedBroadcasts 	0
scalar IntersectionExampleScenario.node[12].nic.mac1609_4 	SentPackets 	0
scalar IntersectionExampleScenario.node[12].nic.mac1609_4 	SNIRLostPackets 	0
scalar IntersectionExampleScenario.node[12].nic.mac1609_4 	RXTXLostPackets 	0
scalar IntersectionExampleScenario.node[12].nic.mac1609_4 	TotalLostPackets 	0
scalar IntersectionExampleScenario.node[12].nic.mac1609_4 	DroppedPacketsInMac 	0
scalar IntersectionExampleScenario.node[12].nic.mac1609_4 	TooLittleTime 	0
scalar IntersectionExampleScenario.node[12].nic.mac1609_4 	TimesIntoBackoff 	0
scalar IntersectionExampleScenario.node[12].nic.mac1609_4 	SlotsBackoff 	0
scalar IntersectionExampleScenario.node[12].nic.mac1609_4 	NumInternalContention 	0
scalar IntersectionExampleScenario.node[12].nic.mac1609_4 	totalBusyTime 	0
scalar IntersectionExampleScenario.node[12].veinsmobility 	startTime 	50.5
scalar IntersectionExampleScenario.node[12].veinsmobility 	totalTime 	39.25
scalar IntersectionExampleScenario.node[12].veinsmobility 	stopTime 	90
scalar IntersectionExampleScenario.node[12].veinsmobility 	minSpeed 	5.6500000953674
scalar IntersectionExampleScenario.node[12].veinsmobility 	maxSpeed 	15.64999961853
scalar IntersectionExampleScenario.node[12].veinsmobility 	totalDistance 	549.96044854719
scalar IntersectionExampleScenario.node[12].veinsmobility 	totalCO2Emission 	124.60613101463
scalar IntersectionExampleScenario.node[11].appl 	VehicleRemoved 	0
scalar IntersectionExampleScenario.node[11].appl 	ArrivedAtDest 	1
scalar IntersectionExampleScenario.node[11].appl 	IntersectionEnterTime 	50.25
scalar IntersectionExampleScenario.node[11].appl 	IntersectionExitTime 	77.294769021275
scalar IntersectionExampleScenario.node[11].appl 	NumberOfCollisions 	0
scalar IntersectionExampleScenario.node[11].nic.phy80211p 	busyTime 	0
scalar IntersectionExampleScenario.node[11].nic.mac1609_4 	ReceivedUnicastPackets 	0
scalar IntersectionExampleScenario.node[11].nic.mac1609_4 	ReceivedBroadcasts 	0
scalar IntersectionExampleScenario.node[11].nic.mac1609_4 	SentPackets 	0
scalar IntersectionExampleScenario.node[11].nic.mac1609_4 	SNIRLostPackets 	0
scalar IntersectionExampleScenario.node[11].nic.mac1609_4 	RXTXLostPackets 	0
scalar IntersectionExampleScenario.node[11].nic.mac1609_4 	TotalLostPackets 	0
scalar IntersectionExampleScenario.node[11].nic.mac1609_4 	DroppedPacketsInMac 	0
scalar IntersectionExampleScenario.node[11].nic.mac1609_4 	TooLittleTime 	0
scalar IntersectionExampleScenario.node[11].nic.mac1609_4 	TimesIntoBackoff 	0
scalar IntersectionExampleScenario.node[11].nic.mac1609_4 	SlotsBackoff 	0
scalar IntersectionExampleScenario.node[11].nic.mac1609_4 	NumInternalContention 	0
scalar IntersectionExampleScenario.node[11].nic.mac1609_4 	totalBusyTime 	0
scalar IntersectionExampleScenario.node[11].veinsmobility 	startTime 	50.25
scalar IntersectionExampleScenario.node[11].veinsmobility 	totalTime 	42.5
scalar IntersectionExampleScenario.node[11].veinsmobility 	stopTime 	93
scalar IntersectionExampleScenario.node[11].veinsmobility 	minSpeed 	0
scalar IntersectionExampleScenario.node[11].veinsmobility 	maxSpeed 	16.27499961853
scalar IntersectionExampleScenario.node[11].veinsmobility 	totalDistance 	551.43734741211
scalar IntersectionExampleScenario.node[11].veinsmobility 	totalCO2Emission 	139.25139344961
scalar IntersectionExampleScenario.node[15].appl 	VehicleRemoved 	0
scalar IntersectionExampleScenario.node[15].appl 	ArrivedAtDest 	1
scalar IntersectionExampleScenario.node[15].appl 	IntersectionEnterTime 	54
scalar IntersectionExampleScenario.node[15].appl 	IntersectionExitTime 	79.039650218096
scalar IntersectionExampleScenario.node[15].appl 	NumberOfCollisions 	0
scalar IntersectionExampleScenario.node[15].nic.phy80211p 	busyTime 	0
scalar IntersectionExampleScenario.node[15].nic.mac1609_4 	ReceivedUnicastPackets 	0
scalar IntersectionExampleScenario.node[15].nic.mac1609_4 	ReceivedBroadcasts 	0
scalar IntersectionExampleScenario.node[15].nic.mac1609_4 	SentPackets 	0
scalar IntersectionExampleScenario.node[15].nic.mac1609_4 	SNIRLostPackets 	0
scalar IntersectionExampleScenario.node[15].nic.mac1609_4 	RXTXLostPackets 	0
scalar IntersectionExampleScenario.node[15].nic.mac1609_4 	TotalLostPackets 	0
scalar IntersectionExampleScenario.node[15].nic.mac1609_4 	DroppedPacketsInMac 	0
scalar IntersectionExampleScenario.node[15].nic.mac1609_4 	TooLittleTime 	0
scalar IntersectionExampleScenario.node[15].nic.mac1609_4 	TimesIntoBackoff 	0
scalar IntersectionExampleScenario.node[15].nic.mac1609_4 	SlotsBackoff 	0
scalar IntersectionExampleScenario.node[15].nic.mac1609_4 	NumInternalContention 	0
scalar IntersectionExampleScenario.node[15].nic.mac1609_4 	totalBusyTime 	0
scalar IntersectionExampleScenario.node[15].veinsmobility 	startTime 	54
scalar IntersectionExampleScenario.node[15].veinsmobility 	totalTime 	41.5
scalar IntersectionExampleScenario.node[15].veinsmobility 	stopTime 	95.75
scalar IntersectionExampleScenario.node[15].veinsmobility 	minSpeed 	5.6500000953674
scalar IntersectionExampleScenario.node[15].veinsmobility 	maxSpeed 	15.375
scalar IntersectionExampleScenario.node[15].veinsmobility 	totalDistance 	557.39058060012
scalar IntersectionExampleScenario.node[15].veinsmobility 	totalCO2Emission 	128.8990301191
scalar IntersectionExampleScenario.node[17].appl 	VehicleRemoved 	0
scalar IntersectionExampleScenario.node[17].appl 	ArrivedAtDest 	1
scalar IntersectionExampleScenario.node[17].appl 	IntersectionEnterTime 	57.75
scalar IntersectionExampleScenario.node[17].appl 	IntersectionExitTime 	85.359774183569
scalar IntersectionExampleScenario.node[17].appl 	NumberOfCollisions 	0
scalar IntersectionExampleScenario.node[17].nic.phy80211p 	busyTime 	0
scalar IntersectionExampleScenario.node[17].nic.mac1609_4 	ReceivedUnicastPackets 	0
scalar IntersectionExampleScenario.node[17].nic.mac1609_4 	ReceivedBroadcasts 	0
scalar IntersectionExampleScenario.node[17].nic.mac1609_4 	SentPackets 	0
scalar IntersectionExampleScenario.node[17].nic.mac1609_4 	SNIRLostPackets 	0
scalar IntersectionExampleScenario.node[17].nic.mac1609_4 	RXTXLostPackets 	0
scalar IntersectionExampleScenario.node[17].nic.mac1609_4 	TotalLostPackets 	0
scalar IntersectionExampleScenario.node[17].nic.mac1609_4 	DroppedPacketsInMac 	0
scalar IntersectionExampleScenario.node[17].nic.mac1609_4 	TooLittleTime 	0
scalar IntersectionExampleScenario.node[17].nic.mac1609_4 	TimesIntoBackoff 	0
scalar IntersectionExampleScenario.node[17].nic.mac1609_4 	SlotsBackoff 	0
scalar IntersectionExampleScenario.node[17].nic.mac1609_4 	NumInternalContention 	0
scalar IntersectionExampleScenario.node[17].nic.mac1609_4 	totalBusyTime 	0
scalar IntersectionExampleScenario.node[17].veinsmobility 	startTime 	57.75
scalar IntersectionExampleScenario.node[17].veinsmobility 	totalTime 	44.25
scalar IntersectionExampleScenario.node[17].veinsmobility 	stopTime 	102.25
scalar IntersectionExampleScenario.node[17].veinsmobility 	minSpeed 	0
scalar IntersectionExampleScenario.node[17].veinsmobility 	maxSpeed 	15.02499961853
scalar IntersectionExampleScenario.node[17].veinsmobility 	totalDistance 	554.82191467285
scalar IntersectionExampleScenario.node[17].veinsmobility 	totalCO2Emission 	132.29456928349
scalar IntersectionExampleScenario.node[10].appl 	VehicleRemoved 	0
scalar IntersectionExampleScenario.node[10].appl 	ArrivedAtDest 	1
scalar IntersectionExampleScenario.node[10].appl 	IntersectionEnterTime 	48.25
scalar IntersectionExampleScenario.node[10].appl 	IntersectionExitTime 	92.512410043943
scalar IntersectionExampleScenario.node[10].appl 	NumberOfCollisions 	0
scalar IntersectionExampleScenario.node[10].nic.phy80211p 	busyTime 	0
scalar IntersectionExampleScenario.node[10].nic.mac1609_4 	ReceivedUnicastPackets 	0
scalar IntersectionExampleScenario.node[10].nic.mac1609_4 	ReceivedBroadcasts 	0
scalar IntersectionExampleScenario.node[10].nic.mac1609_4 	SentPackets 	0
scalar IntersectionExampleScenario.node[10].nic.mac1609_4 	SNIRLostPackets 	0
scalar IntersectionExampleScenario.node[10].nic.mac1609_4 	RXTXLostPackets 	0
scalar IntersectionExampleScenario.node[10].nic.mac1609_4 	TotalLostPackets 	0
scalar IntersectionExampleScenario.node[10].nic.mac1609_4 	DroppedPacketsInMac 	0
scalar IntersectionExampleScenario.node[10].nic.mac1609_4 	TooLittleTime 	0
scalar IntersectionExampleScenario.node[10].nic.mac1609_4 	TimesIntoBackoff 	0
scalar IntersectionExampleScenario.node[10].nic.mac1609_4 	SlotsBackoff 	0
scalar IntersectionExampleScenario.node[10].nic.mac1609_4 	NumInternalContention 	0
scalar IntersectionExampleScenario.node[10].nic.mac1609_4 	totalBusyTime 	0
scalar IntersectionExampleScenario.node[10].veinsmobility 	startTime 	48.25
scalar IntersectionExampleScenario.node[10].veinsmobility 	totalTime 	61
scalar IntersectionExampleScenario.node[10].veinsmobility 	stopTime 	109.5
scalar IntersectionExampleScenario.node[10].veinsmobility 	minSpeed 	0
scalar IntersectionExampleScenario.node[10].veinsmobility 	maxSpeed 	15.25
scalar IntersectionExampleScenario.node[10].veinsmobility 	totalDistance 	515.11699582488
scalar IntersectionExampleScenario.node[10].veinsmobility 	totalCO2Emission 	150.94729245144
scalar IntersectionExampleScenario.node[8].appl 	VehicleRemoved 	0
scalar IntersectionExampleScenario.node[8].appl 	ArrivedAtDest 	1
scalar IntersectionExampleScenario.node[8].appl 	IntersectionEnterTime 	45.25
scalar IntersectionExampleScenario.node[8].appl 	IntersectionExitTime 	94.327204437606
scalar IntersectionExampleScenario.node[8].appl 	NumberOfCollisions 	0
scalar IntersectionExampleScenario.node[8].nic.phy80211p 	busyTime 	0
scalar IntersectionExampleScenario.node[8].nic.mac1609_4 	ReceivedUnicastPackets 	0
scalar IntersectionExampleScenario.node[8].nic.mac1609_4 	ReceivedBroadcasts 	0
scalar IntersectionExampleScenario.node[8].nic.mac1609_4 	SentPackets 	0
scalar IntersectionExampleScenario.node[8].nic.mac1609_4 	SNIRLostPackets 	0
scalar IntersectionExampleScenario.node[8].nic.mac1609_4 	RXTXLostPackets 	0
scalar IntersectionExampleScenario.node[8].nic.mac1609_4 	TotalLostPackets 	0
scalar IntersectionExampleScenario.node[8].nic.mac1609_4 	DroppedPacketsInMac 	0
scalar IntersectionExampleScenario.node[8].nic.mac1609_4 	TooLittleTime 	0
scalar IntersectionExampleScenario.node[8].nic.mac1609_4 	TimesIntoBackoff 	0
scalar IntersectionExampleScenario.node[8].nic.mac1609_4 	SlotsBackoff 	0
scalar IntersectionExampleScenario.node[8].nic.mac1609_4 	NumInternalContention 	0
scalar IntersectionExampleScenario.node[8].nic.mac1609_4 	totalBusyTime 	0
scalar IntersectionExampleScenario.node[8].veinsmobility 	startTime 	45.25
scalar IntersectionExampleScenario.node[8].veinsmobility 	totalTime 	66.5
scalar IntersectionExampleScenario.node[8].veinsmobility 	stopTime 	112
scalar IntersectionExampleScenario.node[8].veinsmobility 	minSpeed 	0
scalar IntersectionExampleScenario.node[8].veinsmobility 	maxSpeed 	14.75
scalar IntersectionExampleScenario.node[8].veinsmobility 	totalDistance 	569.37768769263
scalar IntersectionExampleScenario.node[8].veinsmobility 	totalCO2Emission 	164.94918746655
scalar IntersectionExampleScenario.node[9].appl 	VehicleRemoved 	0
scalar IntersectionExampleScenario.node[9].appl 	ArrivedAtDest 	1
scalar IntersectionExampleScenario.node[9].appl 	IntersectionEnterTime 	46.75
scalar IntersectionExampleScenario.node[9].appl 	IntersectionExitTime 	96.835227537231
scalar IntersectionExampleScenario.node[9].appl 	NumberOfCollisions 	0
scalar IntersectionExampleScenario.node[9].nic.phy80211p 	busyTime 	0
scalar IntersectionExampleScenario.node[9].nic.mac1609_4 	ReceivedUnicastPackets 	0
scalar IntersectionExampleScenario.node[9].nic.mac1609_4 	ReceivedBroadcasts 	0
scalar IntersectionExampleScenario.node[9].nic.mac1609_4 	SentPackets 	0
scalar IntersectionExampleScenario.node[9].nic.mac1609_4 	SNIRLostPackets 	0
scalar IntersectionExampleScenario.node[9].nic.mac1609_4 	RXTXLostPackets 	0
scalar IntersectionExampleScenario.node[9].nic.mac1609_4 	TotalLostPackets 	0
scalar IntersectionExampleScenario.node[9].nic.mac1609_4 	DroppedPacketsInMac 	0
scalar IntersectionExampleScenario.node[9].nic.mac1609_4 	TooLittleTime 	0
scalar IntersectionExampleScenario.node[9].nic.mac1609_4 	TimesIntoBackoff 	0
scalar IntersectionExampleScenario.node[9].nic.mac1609_4 	SlotsBackoff 	0
scalar IntersectionExampleScenario.node[9].nic.mac1609_4 	NumInternalContention 	0
scalar IntersectionExampleScenario.node[9].nic.mac1609_4 	totalBusyTime 	0
scalar IntersectionExampleScenario.node[9].veinsmobility 	startTime 	46.75
scalar IntersectionExampleScenario.node[9].veinsmobility 	totalTime 	65.25
scalar IntersectionExampleScenario.node[9].veinsmobility 	stopTime 	112.25
scalar IntersectionExampleScenario.node[9].veinsmobility 	minSpeed 	0
scalar IntersectionExampleScenario.node[9].veinsmobility 	maxSpeed 	16.125
scalar IntersectionExampleScenario.node[9].veinsmobility 	totalDistance 	579.49829864502
scalar IntersectionExampleScenario.node[9].veinsmobility 	totalCO2Emission 	170.41045676942
scalar IntersectionExampleScenario.node[16].appl 	VehicleRemoved 	0
scalar IntersectionExampleScenario.node[16].appl 	ArrivedAtDest 	1
scalar IntersectionExampleScenario.node[16].appl 	IntersectionEnterTime 	57
scalar IntersectionExampleScenario.node[16].appl 	IntersectionExitTime 	99.501696455234
scalar IntersectionExampleScenario.node[16].appl 	NumberOfCollisions 	0
scalar IntersectionExampleScenario.node[16].nic.phy80211p 	busyTime 	0
scalar IntersectionExampleScenario.node[16].nic.mac1609_4 	ReceivedUnicastPackets 	0
scalar IntersectionExampleScenario.node[16].nic.mac1609_4 	ReceivedBroadcasts 	0
scalar IntersectionExampleScenario.node[16].nic.mac1609_4 	SentPackets 	0
scalar IntersectionExampleScenario.node[16].nic.mac1609_4 	SNIRLostPackets 	0
scalar IntersectionExampleScenario.node[16].nic.mac1609_4 	RXTXLostPackets 	0
scalar IntersectionExampleScenario.node[16].nic.mac1609_4 	TotalLostPackets 	0
scalar IntersectionExampleScenario.node[16].nic.mac1609_4 	DroppedPacketsInMac 	0
scalar IntersectionExampleScenario.node[16].nic.mac1609_4 	TooLittleTime 	0
scalar IntersectionExampleScenario.node[16].nic.mac1609_4 	TimesIntoBackoff 	0
scalar IntersectionExampleScenario.node[16].nic.mac1609_4 	SlotsBackoff 	0
scalar IntersectionExampleScenario.node[16].nic.mac1609_4 	NumInternalContention 	0
scalar IntersectionExampleScenario.node[16].nic.mac1609_4 	totalBusyTime 	0
scalar IntersectionExampleScenario.node[16].veinsmobility 	startTime 	57
scalar IntersectionExampleScenario.node[16].veinsmobility 	totalTime 	59.5
scalar IntersectionExampleScenario.node[16].veinsmobility 	stopTime 	116.75
scalar IntersectionExampleScenario.node[16].veinsmobility 	minSpeed 	0
scalar IntersectionExampleScenario.node[16].veinsmobility 	maxSpeed 	15.25
scalar IntersectionExampleScenario.node[16].veinsmobility 	totalDistance 	545.00266934783
scalar IntersectionExampleScenario.node[16].veinsmobility 	totalCO2Emission 	153.68446449534
scalar IntersectionExampleScenario.node[18].appl 	VehicleRemoved 	0
scalar IntersectionExampleScenario.node[18].appl 	ArrivedAtDest 	1
scalar IntersectionExampleScenario.node[18].appl 	IntersectionEnterTime 	58.75
scalar IntersectionExampleScenario.node[18].appl 	IntersectionExitTime 	101.25249845904
scalar IntersectionExampleScenario.node[18].appl 	NumberOfCollisions 	0
scalar IntersectionExampleScenario.node[18].nic.phy80211p 	busyTime 	0
scalar IntersectionExampleScenario.node[18].nic.mac1609_4 	ReceivedUnicastPackets 	0
scalar IntersectionExampleScenario.node[18].nic.mac1609_4 	ReceivedBroadcasts 	0
scalar IntersectionExampleScenario.node[18].nic.mac1609_4 	SentPackets 	0
scalar IntersectionExampleScenario.node[18].nic.mac1609_4 	SNIRLostPackets 	0
scalar IntersectionExampleScenario.node[18].nic.mac1609_4 	RXTXLostPackets 	0
scalar IntersectionExampleScenario.node[18].nic.mac1609_4 	TotalLostPackets 	0
scalar IntersectionExampleScenario.node[18].nic.mac1609_4 	DroppedPacketsInMac 	0
scalar IntersectionExampleScenario.node[18].nic.mac1609_4 	TooLittleTime 	0
scalar IntersectionExampleScenario.node[18].nic.mac1609_4 	TimesIntoBackoff 	0
scalar IntersectionExampleScenario.node[18].nic.mac1609_4 	SlotsBackoff 	0
scalar IntersectionExampleScenario.node[18].nic.mac1609_4 	NumInternalContention 	0
scalar IntersectionExampleScenario.node[18].nic.mac1609_4 	totalBusyTime 	0
scalar IntersectionExampleScenario.node[18].veinsmobility 	startTime 	58.75
scalar IntersectionExampleScenario.node[18].veinsmobility 	totalTime 	58.25
scalar IntersectionExampleScenario.node[18].veinsmobility 	stopTime 	117.25
scalar IntersectionExampleScenario.node[18].veinsmobility 	minSpeed 	0
scalar IntersectionExampleScenario.node[18].veinsmobility 	maxSpeed 	16.125
scalar IntersectionExampleScenario.node[18].veinsmobility 	totalDistance 	572.56105804443
scalar IntersectionExampleScenario.node[18].veinsmobility 	totalCO2Emission 	154.83878800977
scalar IntersectionExampleScenario.node[19].appl 	VehicleRemoved 	0
scalar IntersectionExampleScenario.node[19].appl 	ArrivedAtDest 	1
scalar IntersectionExampleScenario.node[19].appl 	IntersectionEnterTime 	60
scalar IntersectionExampleScenario.node[19].appl 	IntersectionExitTime 	103.56011169203
scalar IntersectionExampleScenario.node[19].appl 	NumberOfCollisions 	0
scalar IntersectionExampleScenario.node[19].nic.phy80211p 	busyTime 	0
scalar IntersectionExampleScenario.node[19].nic.mac1609_4 	ReceivedUnicastPackets 	0
scalar IntersectionExampleScenario.node[19].nic.mac1609_4 	ReceivedBroadcasts 	0
scalar IntersectionExampleScenario.node[19].nic.mac1609_4 	SentPackets 	0
scalar IntersectionExampleScenario.node[19].nic.mac1609_4 	SNIRLostPackets 	0
scalar IntersectionExampleScenario.node[19].nic.mac1609_4 	RXTXLostPackets 	0
scalar IntersectionExampleScenario.node[19].nic.mac1609_4 	TotalLostPackets 	0
scalar IntersectionExampleScenario.node[19].nic.mac1609_4 	DroppedPacketsInMac 	0
scalar IntersectionExampleScenario.node[19].nic.mac1609_4 	TooLittleTime 	0
scalar IntersectionExampleScenario.node[19].nic.mac1609_4 	TimesIntoBackoff 	0
scalar IntersectionExampleScenario.node[19].nic.mac1609_4 	SlotsBackoff 	0
scalar IntersectionExampleScenario.node[19].nic.mac1609_4 	NumInternalContention 	0
scalar IntersectionExampleScenario.node[19].nic.mac1609_4 	totalBusyTime 	0
scalar IntersectionExampleScenario.node[19].veinsmobility 	startTime 	60
scalar IntersectionExampleScenario.node[19].veinsmobility 	totalTime 	60
scalar IntersectionExampleScenario.node[19].veinsmobility 	stopTime 	120.25
scalar IntersectionExampleScenario.node[19].veinsmobility 	minSpeed 	0
scalar IntersectionExampleScenario.node[19].veinsmobility 	maxSpeed 	15.375
scalar IntersectionExampleScenario.node[19].veinsmobility 	totalDistance 	580.74676872818
scalar IntersectionExampleScenario.node[19].veinsmobility 	totalCO2Emission 	152.20768675022
scalar IntersectionExampleScenario.node[24].appl 	VehicleRemoved 	0
scalar IntersectionExampleScenario.node[24].appl 	ArrivedAtDest 	1
scalar IntersectionExampleScenario.node[24].appl 	IntersectionEnterTime 	74
scalar IntersectionExampleScenario.node[24].appl 	IntersectionExitTime 	106.10361750354
scalar IntersectionExampleScenario.node[24].appl 	NumberOfCollisions 	0
scalar IntersectionExampleScenario.node[24].nic.phy80211p 	busyTime 	0
scalar IntersectionExampleScenario.node[24].nic.mac1609_4 	ReceivedUnicastPackets 	0
scalar IntersectionExampleScenario.node[24].nic.mac1609_4 	ReceivedBroadcasts 	0
scalar IntersectionExampleScenario.node[24].nic.mac1609_4 	SentPackets 	0
scalar IntersectionExampleScenario.node[24].nic.mac1609_4 	SNIRLostPackets 	0
scalar IntersectionExampleScenario.node[24].nic.mac1609_4 	RXTXLostPackets 	0
scalar IntersectionExampleScenario.node[24].nic.mac1609_4 	TotalLostPackets 	0
scalar IntersectionExampleScenario.node[24].nic.mac1609_4 	DroppedPacketsInMac 	0
scalar IntersectionExampleScenario.node[24].nic.mac1609_4 	TooLittleTime 	0
scalar IntersectionExampleScenario.node[24].nic.mac1609_4 	TimesIntoBackoff 	0
scalar IntersectionExampleScenario.node[24].nic.mac1609_4 	SlotsBackoff 	0
scalar IntersectionExampleScenario.node[24].nic.mac1609_4 	NumInternalContention 	0
scalar IntersectionExampleScenario.node[24].nic.mac1609_4 	totalBusyTime 	0
scalar IntersectionExampleScenario.node[24].veinsmobility 	startTime 	74
scalar IntersectionExampleScenario.node[24].veinsmobility 	totalTime 	48.5
scalar IntersectionExampleScenario.node[24].veinsmobility 	stopTime 	122.75
scalar IntersectionExampleScenario.node[24].veinsmobility 	minSpeed 	1.5792505741119
scalar IntersectionExampleScenario.node[24].veinsmobility 	maxSpeed 	14.875
scalar IntersectionExampleScenario.node[24].veinsmobility 	totalDistance 	524.19426727295
scalar IntersectionExampleScenario.node[24].veinsmobility 	totalCO2Emission 	131.0687503077
scalar IntersectionExampleScenario.node[20].appl 	VehicleRemoved 	0
scalar IntersectionExampleScenario.node[20].appl 	ArrivedAtDest 	1
scalar IntersectionExampleScenario.node[20].appl 	IntersectionEnterTime 	62.75
scalar IntersectionExampleScenario.node[20].appl 	IntersectionExitTime 	109.25801843763
scalar IntersectionExampleScenario.node[20].appl 	NumberOfCollisions 	0
scalar IntersectionExampleScenario.node[20].nic.phy80211p 	busyTime 	0
scalar IntersectionExampleScenario.node[20].nic.mac1609_4 	ReceivedUnicastPackets 	0
scalar IntersectionExampleScenario.node[20].nic.mac1609_4 	ReceivedBroadcasts 	0
scalar IntersectionExampleScenario.node[20].nic.mac1609_4 	SentPackets 	0
scalar IntersectionExampleScenario.node[20].nic.mac1609_4 	SNIRLostPackets 	0
scalar IntersectionExampleScenario.node[20].nic.mac1609_4 	RXTXLostPackets 	0
scalar IntersectionExampleScenario.node[20].nic.mac1609_4 	TotalLostPackets 	0
scalar IntersectionExampleScenario.node[20].nic.mac1609_4 	DroppedPacketsInMac 	0
scalar IntersectionExampleScenario.node[20].nic.mac1609_4 	TooLittleTime 	0
scalar IntersectionExampleScenario.node[20].nic.mac1609_4 	TimesIntoBackoff 	0
scalar IntersectionExampleScenario.node[20].nic.mac1609_4 	SlotsBackoff 	0
scalar IntersectionExampleScenario.node[20].nic.mac1609_4 	NumInternalContention 	0
scalar IntersectionExampleScenario.node[20].nic.mac1609_4 	totalBusyTime 	0
scalar IntersectionExampleScenario.node[20].veinsmobility 	startTime 	62.75
scalar IntersectionExampleScenario.node[20].veinsmobility 	totalTime 	61.75
scalar IntersectionExampleScenario.node[20].veinsmobility 	stopTime 	124.75
scalar IntersectionExampleScenario.node[20].veinsmobility 	minSpeed 	0
scalar IntersectionExampleScenario.node[20].veinsmobility 	maxSpeed 	16.89999961853
scalar IntersectionExampleScenario.node[20].veinsmobility 	totalDistance 	549.30716814151
scalar IntersectionExampleScenario.node[20].veinsmobility 	totalCO2Emission 	170.61654240094
scalar IntersectionExampleScenario.node[27].appl 	VehicleRemoved 	0
scalar IntersectionExampleScenario.node[27].appl 	ArrivedAtDest 	1
scalar IntersectionExampleScenario.node[27].appl 	IntersectionEnterTime 	78
scalar IntersectionExampleScenario.node[27].appl 	IntersectionExitTime 	110.30589067232
scalar IntersectionExampleScenario.node[27].appl 	NumberOfCollisions 	0
scalar IntersectionExampleScenario.node[27].nic.phy80211p 	busyTime 	0
scalar IntersectionExampleScenario.node[27].nic.mac1609_4 	ReceivedUnicastPackets 	0
scalar IntersectionExampleScenario.node[27].nic.mac1609_4 	ReceivedBroadcasts 	0
scalar IntersectionExampleScenario.node[27].nic.mac1609_4 	SentPackets 	0
scalar IntersectionExampleScenario.node[27].nic.mac1609_4 	SNIRLostPackets 	0
scalar IntersectionExampleScenario.node[27].nic.mac1609_4 	RXTXLostPackets 	0
scalar IntersectionExampleScenario.node[27].nic.mac1609_4 	TotalLostPackets 	0
scalar IntersectionExampleScenario.node[27].nic.mac1609_4 	DroppedPacketsInMac 	0
scalar IntersectionExampleScenario.node[27].nic.mac1609_4 	TooLittleTime 	0
scalar IntersectionExampleScenario.node[27].nic.mac1609_4 	TimesIntoBackoff 	0
scalar IntersectionExampleScenario.node[27].nic.mac1609_4 	SlotsBackoff 	0
scalar IntersectionExampleScenario.node[27].nic.mac1609_4 	NumInternalContention 	0
scalar IntersectionExampleScenario.node[27].nic.mac1609_4 	totalBusyTime 	0
scalar IntersectionExampleScenario.node[27].veinsmobility 	startTime 	78
scalar IntersectionExampleScenario.node[27].veinsmobility 	totalTime 	48.25
scalar IntersectionExampleScenario.node[27].veinsmobility 	stopTime 	126.5
scalar IntersectionExampleScenario.node[27].veinsmobility 	minSpeed 	1.4516685009003
scalar IntersectionExampleScenario.node[27].veinsmobility 	maxSpeed 	15.64999961853
scalar IntersectionExampleScenario.node[27].veinsmobility 	totalDistance 	553.69441223145
scalar IntersectionExampleScenario.node[27].veinsmobility 	totalCO2Emission 	138.09535590317
scalar IntersectionExampleScenario.node[13].appl 	VehicleRemoved 	0
scalar IntersectionExampleScenario.node[13].appl 	ArrivedAtDest 	1
scalar IntersectionExampleScenario.node[13].appl 	IntersectionEnterTime 	51
scalar IntersectionExampleScenario.node[13].appl 	IntersectionExitTime 	125.32938235963
scalar IntersectionExampleScenario.node[13].appl 	NumberOfCollisions 	0
scalar IntersectionExampleScenario.node[13].nic.phy80211p 	busyTime 	0
scalar IntersectionExampleScenario.node[13].nic.mac1609_4 	ReceivedUnicastPackets 	0
scalar IntersectionExampleScenario.node[13].nic.mac1609_4 	ReceivedBroadcasts 	0
scalar IntersectionExampleScenario.node[13].nic.mac1609_4 	SentPackets 	0
scalar IntersectionExampleScenario.node[13].nic.mac1609_4 	SNIRLostPackets 	0
scalar IntersectionExampleScenario.node[13].nic.mac1609_4 	RXTXLostPackets 	0
scalar IntersectionExampleScenario.node[13].nic.mac1609_4 	TotalLostPackets 	0
scalar IntersectionExampleScenario.node[13].nic.mac1609_4 	DroppedPacketsInMac 	0
scalar IntersectionExampleScenario.node[13].nic.mac1609_4 	TooLittleTime 	0
scalar IntersectionExampleScenario.node[13].nic.mac1609_4 	TimesIntoBackoff 	0
scalar IntersectionExampleScenario.node[13].nic.mac1609_4 	SlotsBackoff 	0
scalar IntersectionExampleScenario.node[13].nic.mac1609_4 	NumInternalContention 	0
scalar IntersectionExampleScenario.node[13].nic.mac1609_4 	totalBusyTime 	0
scalar IntersectionExampleScenario.node[13].veinsmobility 	startTime 	51
scalar IntersectionExampleScenario.node[13].veinsmobility 	totalTime 	89.75
scalar IntersectionExampleScenario.node[13].veinsmobility 	stopTime 	141
scalar IntersectionExampleScenario.node[13].veinsmobility 	minSpeed 	0
scalar IntersectionExampleScenario.node[13].veinsmobility 	maxSpeed 	16.059312820435
scalar IntersectionExampleScenario.node[13].veinsmobility 	totalDistance 	573.12785448184
scalar IntersectionExampleScenario.node[13].veinsmobility 	totalCO2Emission 	201.03217810516
scalar IntersectionExampleScenario.node[14].appl 	VehicleRemoved 	0
scalar IntersectionExampleScenario.node[14].appl 	ArrivedAtDest 	1
scalar IntersectionExampleScenario.node[14].appl 	IntersectionEnterTime 	52
scalar IntersectionExampleScenario.node[14].appl 	IntersectionExitTime 	126.30933718814
scalar IntersectionExampleScenario.node[14].appl 	NumberOfCollisions 	0
scalar IntersectionExampleScenario.node[14].nic.phy80211p 	busyTime 	0
scalar IntersectionExampleScenario.node[14].nic.mac1609_4 	ReceivedUnicastPackets 	0
scalar IntersectionExampleScenario.node[14].nic.mac1609_4 	ReceivedBroadcasts 	0
scalar IntersectionExampleScenario.node[14].nic.mac1609_4 	SentPackets 	0
scalar IntersectionExampleScenario.node[14].nic.mac1609_4 	SNIRLostPackets 	0
scalar IntersectionExampleScenario.node[14].nic.mac1609_4 	RXTXLostPackets 	0
scalar IntersectionExampleScenario.node[14].nic.mac1609_4 	TotalLostPackets 	0
scalar IntersectionExampleScenario.node[14].nic.mac1609_4 	DroppedPacketsInMac 	0
scalar IntersectionExampleScenario.node[14].nic.mac1609_4 	TooLittleTime 	0
scalar IntersectionExampleScenario.node[14].nic.mac1609_4 	TimesIntoBackoff 	0
scalar IntersectionExampleScenario.node[14].nic.mac1609_4 	SlotsBackoff 	0
scalar IntersectionExampleScenario.node[14].nic.mac1609_4 	NumInternalContention 	0
scalar IntersectionExampleScenario.node[14].nic.mac1609_4 	totalBusyTime 	0
scalar IntersectionExampleScenario.node[14].veinsmobility 	startTime 	52
scalar IntersectionExampleScenario.node[14].veinsmobility 	totalTime 	90.25
scalar IntersectionExampleScenario.node[14].veinsmobility 	stopTime 	142.5
scalar IntersectionExampleScenario.node[14].veinsmobility 	minSpeed 	0
scalar IntersectionExampleScenario.node[14].veinsmobility 	maxSpeed 	15.5
scalar IntersectionExampleScenario.node[14].veinsmobility 	totalDistance 	586.07781982422
scalar IntersectionExampleScenario.node[14].veinsmobility 	totalCO2Emission 	194.12174059569
scalar IntersectionExampleScenario.node[21].appl 	VehicleRemoved 	0
scalar IntersectionExampleScenario.node[21].appl 	ArrivedAtDest 	1
scalar IntersectionExampleScenario.node[21].appl 	IntersectionEnterTime 	63.25
scalar IntersectionExampleScenario.node[21].appl 	IntersectionExitTime 	128.56540600662
scalar IntersectionExampleScenario.node[21].appl 	NumberOfCollisions 	0
scalar IntersectionExampleScenario.node[21].nic.phy80211p 	busyTime 	0
scalar IntersectionExampleScenario.node[21].nic.mac1609_4 	ReceivedUnicastPackets 	0
scalar IntersectionExampleScenario.node[21].nic.mac1609_4 	ReceivedBroadcasts 	0
scalar IntersectionExampleScenario.node[21].nic.mac1609_4 	SentPackets 	0
scalar IntersectionExampleScenario.node[21].nic.mac1609_4 	SNIRLostPackets 	0
scalar IntersectionExampleScenario.node[21].nic.mac1609_4 	RXTXLostPackets 	0
scalar IntersectionExampleScenario.node[21].nic.mac1609_4 	TotalLostPackets 	0
scalar IntersectionExampleScenario.node[21].nic.mac1609_4 	DroppedPacketsInMac 	0
scalar IntersectionExampleScenario.node[21].nic.mac1609_4 	TooLittleTime 	0
scalar IntersectionExampleScenario.node[21].nic.mac1609_4 	TimesIntoBackoff 	0
scalar IntersectionExampleScenario.node[21].nic.mac1609_4 	SlotsBackoff 	0
scalar IntersectionExampleScenario.node[21].nic.mac1609_4 	NumInternalContention 	0
scalar IntersectionExampleScenario.node[21].nic.mac1609_4 	totalBusyTime 	0
scalar IntersectionExampleScenario.node[21].veinsmobility 	startTime 	63.25
scalar IntersectionExampleScenario.node[21].veinsmobility 	totalTime 	81.25
scalar IntersectionExampleScenario.node[21].veinsmobility 	stopTime 	144.75
scalar IntersectionExampleScenario.node[21].veinsmobility 	minSpeed 	0
scalar IntersectionExampleScenario.node[21].veinsmobility 	maxSpeed 	16.5
scalar IntersectionExampleScenario.node[21].veinsmobility 	totalDistance 	543.85845327304
scalar IntersectionExampleScenario.node[21].veinsmobility 	totalCO2Emission 	176.00924797261
scalar IntersectionExampleScenario.node[25].appl 	VehicleRemoved 	0
scalar IntersectionExampleScenario.node[25].appl 	ArrivedAtDest 	1
scalar IntersectionExampleScenario.node[25].appl 	IntersectionEnterTime 	75.25
scalar IntersectionExampleScenario.node[25].appl 	IntersectionExitTime 	130.84189925256
scalar IntersectionExampleScenario.node[25].appl 	NumberOfCollisions 	0
scalar IntersectionExampleScenario.node[25].nic.phy80211p 	busyTime 	0
scalar IntersectionExampleScenario.node[25].nic.mac1609_4 	ReceivedUnicastPackets 	0
scalar IntersectionExampleScenario.node[25].nic.mac1609_4 	ReceivedBroadcasts 	0
scalar IntersectionExampleScenario.node[25].nic.mac1609_4 	SentPackets 	0
scalar IntersectionExampleScenario.node[25].nic.mac1609_4 	SNIRLostPackets 	0
scalar IntersectionExampleScenario.node[25].nic.mac1609_4 	RXTXLostPackets 	0
scalar IntersectionExampleScenario.node[25].nic.mac1609_4 	TotalLostPackets 	0
scalar IntersectionExampleScenario.node[25].nic.mac1609_4 	DroppedPacketsInMac 	0
scalar IntersectionExampleScenario.node[25].nic.mac1609_4 	TooLittleTime 	0
scalar IntersectionExampleScenario.node[25].nic.mac1609_4 	TimesIntoBackoff 	0
scalar IntersectionExampleScenario.node[25].nic.mac1609_4 	SlotsBackoff 	0
scalar IntersectionExampleScenario.node[25].nic.mac1609_4 	NumInternalContention 	0
scalar IntersectionExampleScenario.node[25].nic.mac1609_4 	totalBusyTime 	0
scalar IntersectionExampleScenario.node[25].veinsmobility 	startTime 	75.25
scalar IntersectionExampleScenario.node[25].veinsmobility 	totalTime 	71.25
scalar IntersectionExampleScenario.node[25].veinsmobility 	stopTime 	146.75
scalar IntersectionExampleScenario.node[25].veinsmobility 	minSpeed 	0
scalar IntersectionExampleScenario.node[25].veinsmobility 	maxSpeed 	16.5
scalar IntersectionExampleScenario.node[25].veinsmobility 	totalDistance 	542.52447867014
scalar IntersectionExampleScenario.node[25].veinsmobility 	totalCO2Emission 	175.02608053511
scalar IntersectionExampleScenario.node[22].appl 	VehicleRemoved 	0
scalar IntersectionExampleScenario.node[22].appl 	ArrivedAtDest 	1
scalar IntersectionExampleScenario.node[22].appl 	IntersectionEnterTime 	73
scalar IntersectionExampleScenario.node[22].appl 	IntersectionExitTime 	132.78982111937
scalar IntersectionExampleScenario.node[22].appl 	NumberOfCollisions 	0
scalar IntersectionExampleScenario.node[22].nic.phy80211p 	busyTime 	0
scalar IntersectionExampleScenario.node[22].nic.mac1609_4 	ReceivedUnicastPackets 	0
scalar IntersectionExampleScenario.node[22].nic.mac1609_4 	ReceivedBroadcasts 	0
scalar IntersectionExampleScenario.node[22].nic.mac1609_4 	SentPackets 	0
scalar IntersectionExampleScenario.node[22].nic.mac1609_4 	SNIRLostPackets 	0
scalar IntersectionExampleScenario.node[22].nic.mac1609_4 	RXTXLostPackets 	0
scalar IntersectionExampleScenario.node[22].nic.mac1609_4 	TotalLostPackets 	0
scalar IntersectionExampleScenario.node[22].nic.mac1609_4 	DroppedPacketsInMac 	0
scalar IntersectionExampleScenario.node[22].nic.mac1609_4 	TooLittleTime 	0
scalar IntersectionExampleScenario.node[22].nic.mac1609_4 	TimesIntoBackoff 	0
scalar IntersectionExampleScenario.node[22].nic.mac1609_4 	SlotsBackoff 	0
scalar IntersectionExampleScenario.node[22].nic.mac1609_4 	NumInternalContention 	0
scalar IntersectionExampleScenario.node[22].nic.mac1609_4 	totalBusyTime 	0
scalar IntersectionExampleScenario.node[22].veinsmobility 	startTime 	73
scalar IntersectionExampleScenario.node[22].veinsmobility 	totalTime 	77
scalar IntersectionExampleScenario.node[22].veinsmobility 	stopTime 	150.25
scalar IntersectionExampleScenario.node[22].veinsmobility 	minSpeed 	0
scalar IntersectionExampleScenario.node[22].veinsmobility 	maxSpeed 	14.703770637512
scalar IntersectionExampleScenario.node[22].veinsmobility 	totalDistance 	553.6619644165
scalar IntersectionExampleScenario.node[22].veinsmobility 	totalCO2Emission 	174.71997994091
scalar IntersectionExampleScenario.node[23].appl 	VehicleRemoved 	0
scalar IntersectionExampleScenario.node[23].appl 	ArrivedAtDest 	1
scalar IntersectionExampleScenario.node[23].appl 	IntersectionEnterTime 	73.25
scalar IntersectionExampleScenario.node[23].appl 	IntersectionExitTime 	134.78617576137
scalar IntersectionExampleScenario.node[23].appl 	NumberOfCollisions 	0
scalar IntersectionExampleScenario.node[23].nic.phy80211p 	busyTime 	0
scalar IntersectionExampleScenario.node[23].nic.mac1609_4 	ReceivedUnicastPackets 	0
scalar IntersectionExampleScenario.node[23].nic.mac1609_4 	ReceivedBroadcasts 	0
scalar IntersectionExampleScenario.node[23].nic.mac1609_4 	SentPackets 	0
scalar IntersectionExampleScenario.node[23].nic.mac1609_4 	SNIRLostPackets 	0
scalar IntersectionExampleScenario.node[23].nic.mac1609_4 	RXTXLostPackets 	0
scalar IntersectionExampleScenario.node[23].nic.mac1609_4 	TotalLostPackets 	0
scalar IntersectionExampleScenario.node[23].nic.mac1609_4 	DroppedPacketsInMac 	0
scalar IntersectionExampleScenario.node[23].nic.mac1609_4 	TooLittleTime 	0
scalar IntersectionExampleScenario.node[23].nic.mac1609_4 	TimesIntoBackoff 	0
scalar IntersectionExampleScenario.node[23].nic.mac1609_4 	SlotsBackoff 	0
scalar IntersectionExampleScenario.node[23].nic.mac1609_4 	NumInternalContention 	0
scalar IntersectionExampleScenario.node[23].nic.mac1609_4 	totalBusyTime 	0
scalar IntersectionExampleScenario.node[23].veinsmobility 	startTime 	73.25
scalar IntersectionExampleScenario.node[23].veinsmobility 	totalTime 	78.25
scalar IntersectionExampleScenario.node[23].veinsmobility 	stopTime 	151.75
scalar IntersectionExampleScenario.node[23].veinsmobility 	minSpeed 	0
scalar IntersectionExampleScenario.node[23].veinsmobility 	maxSpeed 	15.348763465881
scalar IntersectionExampleScenario.node[23].veinsmobility 	totalDistance 	578.77681732178
scalar IntersectionExampleScenario.node[23].veinsmobility 	totalCO2Emission 	177.71243774236
scalar IntersectionExampleScenario.node[29].appl 	VehicleRemoved 	0
scalar IntersectionExampleScenario.node[29].appl 	ArrivedAtDest 	1
scalar IntersectionExampleScenario.node[29].appl 	IntersectionEnterTime 	85.5
scalar IntersectionExampleScenario.node[29].appl 	IntersectionExitTime 	136.36021691994
scalar IntersectionExampleScenario.node[29].appl 	NumberOfCollisions 	0
scalar IntersectionExampleScenario.node[29].nic.phy80211p 	busyTime 	0
scalar IntersectionExampleScenario.node[29].nic.mac1609_4 	ReceivedUnicastPackets 	0
scalar IntersectionExampleScenario.node[29].nic.mac1609_4 	ReceivedBroadcasts 	0
scalar IntersectionExampleScenario.node[29].nic.mac1609_4 	SentPackets 	0
scalar IntersectionExampleScenario.node[29].nic.mac1609_4 	SNIRLostPackets 	0
scalar IntersectionExampleScenario.node[29].nic.mac1609_4 	RXTXLostPackets 	0
scalar IntersectionExampleScenario.node[29].nic.mac1609_4 	TotalLostPackets 	0
scalar IntersectionExampleScenario.node[29].nic.mac1609_4 	DroppedPacketsInMac 	0
scalar IntersectionExampleScenario.node[29].nic.mac1609_4 	TooLittleTime 	0
scalar IntersectionExampleScenario.node[29].nic.mac1609_4 	TimesIntoBackoff 	0
scalar IntersectionExampleScenario.node[29].nic.mac1609_4 	SlotsBackoff 	0
scalar IntersectionExampleScenario.node[29].nic.mac1609_4 	NumInternalContention 	0
scalar IntersectionExampleScenario.node[29].nic.mac1609_4 	totalBusyTime 	0
scalar IntersectionExampleScenario.node[29].veinsmobility 	startTime 	85.5
scalar IntersectionExampleScenario.node[29].veinsmobility 	totalTime 	68
scalar IntersectionExampleScenario.node[29].veinsmobility 	stopTime 	153.75
scalar IntersectionExampleScenario.node[29].veinsmobility 	minSpeed 	0
scalar IntersectionExampleScenario.node[29].veinsmobility 	maxSpeed 	15.02499961853
scalar IntersectionExampleScenario.node[29].veinsmobility 	totalDistance 	543.6610619958
scalar IntersectionExampleScenario.node[29].veinsmobility 	totalCO2Emission 	155.8505366696
scalar IntersectionExampleScenario.node[30].appl 	VehicleRemoved 	0
scalar IntersectionExampleScenario.node[30].appl 	ArrivedAtDest 	1
scalar IntersectionExampleScenario.node[30].appl 	IntersectionEnterTime 	90
scalar IntersectionExampleScenario.node[30].appl 	IntersectionExitTime 	138.81665078146
scalar IntersectionExampleScenario.node[30].appl 	NumberOfCollisions 	0
scalar IntersectionExampleScenario.node[30].nic.phy80211p 	busyTime 	0
scalar IntersectionExampleScenario.node[30].nic.mac1609_4 	ReceivedUnicastPackets 	0
scalar IntersectionExampleScenario.node[30].nic.mac1609_4 	ReceivedBroadcasts 	0
scalar IntersectionExampleScenario.node[30].nic.mac1609_4 	SentPackets 	0
scalar IntersectionExampleScenario.node[30].nic.mac1609_4 	SNIRLostPackets 	0
scalar IntersectionExampleScenario.node[30].nic.mac1609_4 	RXTXLostPackets 	0
scalar IntersectionExampleScenario.node[30].nic.mac1609_4 	TotalLostPackets 	0
scalar IntersectionExampleScenario.node[30].nic.mac1609_4 	DroppedPacketsInMac 	0
scalar IntersectionExampleScenario.node[30].nic.mac1609_4 	TooLittleTime 	0
scalar IntersectionExampleScenario.node[30].nic.mac1609_4 	TimesIntoBackoff 	0
scalar IntersectionExampleScenario.node[30].nic.mac1609_4 	SlotsBackoff 	0
scalar IntersectionExampleScenario.node[30].nic.mac1609_4 	NumInternalContention 	0
scalar IntersectionExampleScenario.node[30].nic.mac1609_4 	totalBusyTime 	0
scalar IntersectionExampleScenario.node[30].veinsmobility 	startTime 	90
scalar IntersectionExampleScenario.node[30].veinsmobility 	totalTime 	64.5
scalar IntersectionExampleScenario.node[30].veinsmobility 	stopTime 	154.75
scalar IntersectionExampleScenario.node[30].veinsmobility 	minSpeed 	0
scalar IntersectionExampleScenario.node[30].veinsmobility 	maxSpeed 	15.589399337769
scalar IntersectionExampleScenario.node[30].veinsmobility 	totalDistance 	554.32376861572
scalar IntersectionExampleScenario.node[30].veinsmobility 	totalCO2Emission 	157.17078463525
scalar IntersectionExampleScenario.node[34].appl 	VehicleRemoved 	0
scalar IntersectionExampleScenario.node[34].appl 	ArrivedAtDest 	1
scalar IntersectionExampleScenario.node[34].appl 	IntersectionEnterTime 	110.75
scalar IntersectionExampleScenario.node[34].appl 	IntersectionExitTime 	141.37112022075
scalar IntersectionExampleScenario.node[34].appl 	NumberOfCollisions 	0
scalar IntersectionExampleScenario.node[34].nic.phy80211p 	busyTime 	0
scalar IntersectionExampleScenario.node[34].nic.mac1609_4 	ReceivedUnicastPackets 	0
scalar IntersectionExampleScenario.node[34].nic.mac1609_4 	ReceivedBroadcasts 	0
scalar IntersectionExampleScenario.node[34].nic.mac1609_4 	SentPackets 	0
scalar IntersectionExampleScenario.node[34].nic.mac1609_4 	SNIRLostPackets 	0
scalar IntersectionExampleScenario.node[34].nic.mac1609_4 	RXTXLostPackets 	0
scalar IntersectionExampleScenario.node[34].nic.mac1609_4 	TotalLostPackets 	0
scalar IntersectionExampleScenario.node[34].nic.mac1609_4 	DroppedPacketsInMac 	0
scalar IntersectionExampleScenario.node[34].nic.mac1609_4 	TooLittleTime 	0
scalar IntersectionExampleScenario.node[34].nic.mac1609_4 	TimesIntoBackoff 	0
scalar IntersectionExampleScenario.node[34].nic.mac1609_4 	SlotsBackoff 	0
scalar IntersectionExampleScenario.node[34].nic.mac1609_4 	NumInternalContention 	0
scalar IntersectionExampleScenario.node[34].nic.mac1609_4 	totalBusyTime 	0
scalar IntersectionExampleScenario.node[34].veinsmobility 	startTime 	110.75
scalar IntersectionExampleScenario.node[34].veinsmobility 	totalTime 	46.5
scalar IntersectionExampleScenario.node[34].veinsmobility 	stopTime 	157.5
scalar IntersectionExampleScenario.node[34].veinsmobility 	minSpeed 	0
scalar IntersectionExampleScenario.node[34].veinsmobility 	maxSpeed 	15.64999961853
scalar IntersectionExampleScenario.node[34].veinsmobility 	totalDistance 	552.10211181641
scalar IntersectionExampleScenario.node[34].veinsmobility 	totalCO2Emission 	138.97360289119
scalar IntersectionExampleScenario.node[35].appl 	VehicleRemoved 	0
scalar IntersectionExampleScenario.node[35].appl 	ArrivedAtDest 	1
scalar IntersectionExampleScenario.node[35].appl 	IntersectionEnterTime 	117
scalar IntersectionExampleScenario.node[35].appl 	IntersectionExitTime 	143.01215749083
scalar IntersectionExampleScenario.node[35].appl 	NumberOfCollisions 	0
scalar IntersectionExampleScenario.node[35].nic.phy80211p 	busyTime 	0
scalar IntersectionExampleScenario.node[35].nic.mac1609_4 	ReceivedUnicastPackets 	0
scalar IntersectionExampleScenario.node[35].nic.mac1609_4 	ReceivedBroadcasts 	0
scalar IntersectionExampleScenario.node[35].nic.mac1609_4 	SentPackets 	0
scalar IntersectionExampleScenario.node[35].nic.mac1609_4 	SNIRLostPackets 	0
scalar IntersectionExampleScenario.node[35].nic.mac1609_4 	RXTXLostPackets 	0
scalar IntersectionExampleScenario.node[35].nic.mac1609_4 	TotalLostPackets 	0
scalar IntersectionExampleScenario.node[35].nic.mac1609_4 	DroppedPacketsInMac 	0
scalar IntersectionExampleScenario.node[35].nic.mac1609_4 	TooLittleTime 	0
scalar IntersectionExampleScenario.node[35].nic.mac1609_4 	TimesIntoBackoff 	0
scalar IntersectionExampleScenario.node[35].nic.mac1609_4 	SlotsBackoff 	0
scalar IntersectionExampleScenario.node[35].nic.mac1609_4 	NumInternalContention 	0
scalar IntersectionExampleScenario.node[35].nic.mac1609_4 	totalBusyTime 	0
scalar IntersectionExampleScenario.node[35].veinsmobility 	startTime 	117
scalar IntersectionExampleScenario.node[35].veinsmobility 	totalTime 	42
scalar IntersectionExampleScenario.node[35].veinsmobility 	stopTime 	159.25
scalar IntersectionExampleScenario.node[35].veinsmobility 	minSpeed 	4.8602547645569
scalar IntersectionExampleScenario.node[35].veinsmobility 	maxSpeed 	16.5
scalar IntersectionExampleScenario.node[35].veinsmobility 	totalDistance 	543.59508603702
scalar IntersectionExampleScenario.node[35].veinsmobility 	totalCO2Emission 	138.77421134298
scalar IntersectionExampleScenario.node[38].appl 	VehicleRemoved 	0
scalar IntersectionExampleScenario.node[38].appl 	ArrivedAtDest 	1
scalar IntersectionExampleScenario.node[38].appl 	IntersectionEnterTime 	122.75
scalar IntersectionExampleScenario.node[38].appl 	IntersectionExitTime 	147.02085593974
scalar IntersectionExampleScenario.node[38].appl 	NumberOfCollisions 	0
scalar IntersectionExampleScenario.node[38].nic.phy80211p 	busyTime 	0
scalar IntersectionExampleScenario.node[38].nic.mac1609_4 	ReceivedUnicastPackets 	0
scalar IntersectionExampleScenario.node[38].nic.mac1609_4 	ReceivedBroadcasts 	0
scalar IntersectionExampleScenario.node[38].nic.mac1609_4 	SentPackets 	0
scalar IntersectionExampleScenario.node[38].nic.mac1609_4 	SNIRLostPackets 	0
scalar IntersectionExampleScenario.node[38].nic.mac1609_4 	RXTXLostPackets 	0
scalar IntersectionExampleScenario.node[38].nic.mac1609_4 	TotalLostPackets 	0
scalar IntersectionExampleScenario.node[38].nic.mac1609_4 	DroppedPacketsInMac 	0
scalar IntersectionExampleScenario.node[38].nic.mac1609_4 	TooLittleTime 	0
scalar IntersectionExampleScenario.node[38].nic.mac1609_4 	TimesIntoBackoff 	0
scalar IntersectionExampleScenario.node[38].nic.mac1609_4 	SlotsBackoff 	0
scalar IntersectionExampleScenario.node[38].nic.mac1609_4 	NumInternalContention 	0
scalar IntersectionExampleScenario.node[38].nic.mac1609_4 	totalBusyTime 	0
scalar IntersectionExampleScenario.node[38].veinsmobility 	startTime 	122.75
scalar IntersectionExampleScenario.node[38].veinsmobility 	totalTime 	41.25
scalar IntersectionExampleScenario.node[38].veinsmobility 	stopTime 	164.25
scalar IntersectionExampleScenario.node[38].veinsmobility 	minSpeed 	5.6500000953674
scalar IntersectionExampleScenario.node[38].veinsmobility 	maxSpeed 	15.02499961853
scalar IntersectionExampleScenario.node[38].veinsmobility 	totalDistance 	551.4923559324
scalar IntersectionExampleScenario.node[38].veinsmobility 	totalCO2Emission 	127.02522323727
scalar IntersectionExampleScenario.node[36].appl 	VehicleRemoved 	0
scalar IntersectionExampleScenario.node[36].appl 	ArrivedAtDest 	1
scalar IntersectionExampleScenario.node[36].appl 	IntersectionEnterTime 	120
scalar IntersectionExampleScenario.node[36].appl 	IntersectionExitTime 	149.30599077171
scalar IntersectionExampleScenario.node[36].appl 	NumberOfCollisions 	0
scalar IntersectionExampleScenario.node[36].nic.phy80211p 	busyTime 	0
scalar IntersectionExampleScenario.node[36].nic.mac1609_4 	ReceivedUnicastPackets 	0
scalar IntersectionExampleScenario.node[36].nic.mac1609_4 	ReceivedBroadcasts 	0
scalar IntersectionExampleScenario.node[36].nic.mac1609_4 	SentPackets 	0
scalar IntersectionExampleScenario.node[36].nic.mac1609_4 	SNIRLostPackets 	0
scalar IntersectionExampleScenario.node[36].nic.mac1609_4 	RXTXLostPackets 	0
scalar IntersectionExampleScenario.node[36].nic.mac1609_4 	TotalLostPackets 	0
scalar IntersectionExampleScenario.node[36].nic.mac1609_4 	DroppedPacketsInMac 	0
scalar IntersectionExampleScenario.node[36].nic.mac1609_4 	TooLittleTime 	0
scalar IntersectionExampleScenario.node[36].nic.mac1609_4 	TimesIntoBackoff 	0
scalar IntersectionExampleScenario.node[36].nic.mac1609_4 	SlotsBackoff 	0
scalar IntersectionExampleScenario.node[36].nic.mac1609_4 	NumInternalContention 	0
scalar IntersectionExampleScenario.node[36].nic.mac1609_4 	totalBusyTime 	0
scalar IntersectionExampleScenario.node[36].veinsmobility 	startTime 	120
scalar IntersectionExampleScenario.node[36].veinsmobility 	totalTime 	45
scalar IntersectionExampleScenario.node[36].veinsmobility 	stopTime 	165.25
scalar IntersectionExampleScenario.node[36].veinsmobility 	minSpeed 	0
scalar IntersectionExampleScenario.node[36].veinsmobility 	maxSpeed 	16
scalar IntersectionExampleScenario.node[36].veinsmobility 	totalDistance 	553.70686340332
scalar IntersectionExampleScenario.node[36].veinsmobility 	totalCO2Emission 	140.3347587032
scalar IntersectionExampleScenario.node[26].appl 	VehicleRemoved 	0
scalar IntersectionExampleScenario.node[26].appl 	ArrivedAtDest 	1
scalar IntersectionExampleScenario.node[26].appl 	IntersectionEnterTime 	76.5
scalar IntersectionExampleScenario.node[26].appl 	IntersectionExitTime 	157.32400524081
scalar IntersectionExampleScenario.node[26].appl 	NumberOfCollisions 	0
scalar IntersectionExampleScenario.node[26].nic.phy80211p 	busyTime 	0
scalar IntersectionExampleScenario.node[26].nic.mac1609_4 	ReceivedUnicastPackets 	0
scalar IntersectionExampleScenario.node[26].nic.mac1609_4 	ReceivedBroadcasts 	0
scalar IntersectionExampleScenario.node[26].nic.mac1609_4 	SentPackets 	0
scalar IntersectionExampleScenario.node[26].nic.mac1609_4 	SNIRLostPackets 	0
scalar IntersectionExampleScenario.node[26].nic.mac1609_4 	RXTXLostPackets 	0
scalar IntersectionExampleScenario.node[26].nic.mac1609_4 	TotalLostPackets 	0
scalar IntersectionExampleScenario.node[26].nic.mac1609_4 	DroppedPacketsInMac 	0
scalar IntersectionExampleScenario.node[26].nic.mac1609_4 	TooLittleTime 	0
scalar IntersectionExampleScenario.node[26].nic.mac1609_4 	TimesIntoBackoff 	0
scalar IntersectionExampleScenario.node[26].nic.mac1609_4 	SlotsBackoff 	0
scalar IntersectionExampleScenario.node[26].nic.mac1609_4 	NumInternalContention 	0
scalar IntersectionExampleScenario.node[26].nic.mac1609_4 	totalBusyTime 	0
scalar IntersectionExampleScenario.node[26].veinsmobility 	startTime 	76.5
scalar IntersectionExampleScenario.node[26].veinsmobility 	totalTime 	96.75
scalar IntersectionExampleScenario.node[26].veinsmobility 	stopTime 	173.5
scalar IntersectionExampleScenario.node[26].veinsmobility 	minSpeed 	0
scalar IntersectionExampleScenario.node[26].veinsmobility 	maxSpeed 	15.64999961853
scalar IntersectionExampleScenario.node[26].veinsmobility 	totalDistance 	574.89151763916
scalar IntersectionExampleScenario.node[26].veinsmobility 	totalCO2Emission 	199.18131118334
scalar IntersectionExampleScenario.node[28].appl 	VehicleRemoved 	0
scalar IntersectionExampleScenario.node[28].appl 	ArrivedAtDest 	1
scalar IntersectionExampleScenario.node[28].appl 	IntersectionEnterTime 	82.5
scalar IntersectionExampleScenario.node[28].appl 	IntersectionExitTime 	158.35172472746
scalar IntersectionExampleScenario.node[28].appl 	NumberOfCollisions 	0
scalar IntersectionExampleScenario.node[28].nic.phy80211p 	busyTime 	0
scalar IntersectionExampleScenario.node[28].nic.mac1609_4 	ReceivedUnicastPackets 	0
scalar IntersectionExampleScenario.node[28].nic.mac1609_4 	ReceivedBroadcasts 	0
scalar IntersectionExampleScenario.node[28].nic.mac1609_4 	SentPackets 	0
scalar IntersectionExampleScenario.node[28].nic.mac1609_4 	SNIRLostPackets 	0
scalar IntersectionExampleScenario.node[28].nic.mac1609_4 	RXTXLostPackets 	0
scalar IntersectionExampleScenario.node[28].nic.mac1609_4 	TotalLostPackets 	0
scalar IntersectionExampleScenario.node[28].nic.mac1609_4 	DroppedPacketsInMac 	0
scalar IntersectionExampleScenario.node[28].nic.mac1609_4 	TooLittleTime 	0
scalar IntersectionExampleScenario.node[28].nic.mac1609_4 	TimesIntoBackoff 	0
scalar IntersectionExampleScenario.node[28].nic.mac1609_4 	SlotsBackoff 	0
scalar IntersectionExampleScenario.node[28].nic.mac1609_4 	NumInternalContention 	0
scalar IntersectionExampleScenario.node[28].nic.mac1609_4 	totalBusyTime 	0
scalar IntersectionExampleScenario.node[28].veinsmobility 	startTime 	82.5
scalar IntersectionExampleScenario.node[28].veinsmobility 	totalTime 	93
scalar IntersectionExampleScenario.node[28].veinsmobility 	stopTime 	175.75
scalar IntersectionExampleScenario.node[28].veinsmobility 	minSpeed 	0
scalar IntersectionExampleScenario.node[28].veinsmobility 	maxSpeed 	14.75
scalar IntersectionExampleScenario.node[28].veinsmobility 	totalDistance 	549.52934581601
scalar IntersectionExampleScenario.node[28].veinsmobility 	totalCO2Emission 	182.22082130433
scalar IntersectionExampleScenario.node[31].appl 	VehicleRemoved 	0
scalar IntersectionExampleScenario.node[31].appl 	ArrivedAtDest 	1
scalar IntersectionExampleScenario.node[31].appl 	IntersectionEnterTime 	93.25
scalar IntersectionExampleScenario.node[31].appl 	IntersectionExitTime 	160.30935844019
scalar IntersectionExampleScenario.node[31].appl 	NumberOfCollisions 	0
scalar IntersectionExampleScenario.node[31].nic.phy80211p 	busyTime 	0
scalar IntersectionExampleScenario.node[31].nic.mac1609_4 	ReceivedUnicastPackets 	0
scalar IntersectionExampleScenario.node[31].nic.mac1609_4 	ReceivedBroadcasts 	0
scalar IntersectionExampleScenario.node[31].nic.mac1609_4 	SentPackets 	0
scalar IntersectionExampleScenario.node[31].nic.mac1609_4 	SNIRLostPackets 	0
scalar IntersectionExampleScenario.node[31].nic.mac1609_4 	RXTXLostPackets 	0
scalar IntersectionExampleScenario.node[31].nic.mac1609_4 	TotalLostPackets 	0
scalar IntersectionExampleScenario.node[31].nic.mac1609_4 	DroppedPacketsInMac 	0
scalar IntersectionExampleScenario.node[31].nic.mac1609_4 	TooLittleTime 	0
scalar IntersectionExampleScenario.node[31].nic.mac1609_4 	TimesIntoBackoff 	0
scalar IntersectionExampleScenario.node[31].nic.mac1609_4 	SlotsBackoff 	0
scalar IntersectionExampleScenario.node[31].nic.mac1609_4 	NumInternalContention 	0
scalar IntersectionExampleScenario.node[31].nic.mac1609_4 	totalBusyTime 	0
scalar IntersectionExampleScenario.node[31].veinsmobility 	startTime 	93.25
scalar IntersectionExampleScenario.node[31].veinsmobility 	totalTime 	83
scalar IntersectionExampleScenario.node[31].veinsmobility 	stopTime 	176.5
scalar IntersectionExampleScenario.node[31].veinsmobility 	minSpeed 	0
scalar IntersectionExampleScenario.node[31].veinsmobility 	maxSpeed 	15.64999961853
scalar IntersectionExampleScenario.node[31].veinsmobility 	totalDistance 	553.65384674072
scalar IntersectionExampleScenario.node[31].veinsmobility 	totalCO2Emission 	175.11778869623
scalar IntersectionExampleScenario.node[32].appl 	VehicleRemoved 	0
scalar IntersectionExampleScenario.node[32].appl 	ArrivedAtDest 	1
scalar IntersectionExampleScenario.node[32].appl 	IntersectionEnterTime 	102
scalar IntersectionExampleScenario.node[32].appl 	IntersectionExitTime 	163.54793277825
scalar IntersectionExampleScenario.node[32].appl 	NumberOfCollisions 	0
scalar IntersectionExampleScenario.node[32].nic.phy80211p 	busyTime 	0
scalar IntersectionExampleScenario.node[32].nic.mac1609_4 	ReceivedUnicastPackets 	0
scalar IntersectionExampleScenario.node[32].nic.mac1609_4 	ReceivedBroadcasts 	0
scalar IntersectionExampleScenario.node[32].nic.mac1609_4 	SentPackets 	0
scalar IntersectionExampleScenario.node[32].nic.mac1609_4 	SNIRLostPackets 	0
scalar IntersectionExampleScenario.node[32].nic.mac1609_4 	RXTXLostPackets 	0
scalar IntersectionExampleScenario.node[32].nic.mac1609_4 	TotalLostPackets 	0
scalar IntersectionExampleScenario.node[32].nic.mac1609_4 	DroppedPacketsInMac 	0
scalar IntersectionExampleScenario.node[32].nic.mac1609_4 	TooLittleTime 	0
scalar IntersectionExampleScenario.node[32].nic.mac1609_4 	TimesIntoBackoff 	0
scalar IntersectionExampleScenario.node[32].nic.mac1609_4 	SlotsBackoff 	0
scalar IntersectionExampleScenario.node[32].nic.mac1609_4 	NumInternalContention 	0
scalar IntersectionExampleScenario.node[32].nic.mac1609_4 	totalBusyTime 	0
scalar IntersectionExampleScenario.node[32].veinsmobility 	startTime 	102
scalar IntersectionExampleScenario.node[32].veinsmobility 	totalTime 	78.5
scalar IntersectionExampleScenario.node[32].veinsmobility 	stopTime 	180.75
scalar IntersectionExampleScenario.node[32].veinsmobility 	minSpeed 	0
scalar IntersectionExampleScenario.node[32].veinsmobility 	maxSpeed 	15.25
scalar IntersectionExampleScenario.node[32].veinsmobility 	totalDistance 	545.00266934783
scalar IntersectionExampleScenario.node[32].veinsmobility 	totalCO2Emission 	172.64418526198
scalar IntersectionExampleScenario.node[33].appl 	VehicleRemoved 	0
scalar IntersectionExampleScenario.node[33].appl 	ArrivedAtDest 	1
scalar IntersectionExampleScenario.node[33].appl 	IntersectionEnterTime 	102.75
scalar IntersectionExampleScenario.node[33].appl 	IntersectionExitTime 	166.01154673583
scalar IntersectionExampleScenario.node[33].appl 	NumberOfCollisions 	0
scalar IntersectionExampleScenario.node[33].nic.phy80211p 	busyTime 	0
scalar IntersectionExampleScenario.node[33].nic.mac1609_4 	ReceivedUnicastPackets 	0
scalar IntersectionExampleScenario.node[33].nic.mac1609_4 	ReceivedBroadcasts 	0
scalar IntersectionExampleScenario.node[33].nic.mac1609_4 	SentPackets 	0
scalar IntersectionExampleScenario.node[33].nic.mac1609_4 	SNIRLostPackets 	0
scalar IntersectionExampleScenario.node[33].nic.mac1609_4 	RXTXLostPackets 	0
scalar IntersectionExampleScenario.node[33].nic.mac1609_4 	TotalLostPackets 	0
scalar IntersectionExampleScenario.node[33].nic.mac1609_4 	DroppedPacketsInMac 	0
scalar IntersectionExampleScenario.node[33].nic.mac1609_4 	TooLittleTime 	0
scalar IntersectionExampleScenario.node[33].nic.mac1609_4 	TimesIntoBackoff 	0
scalar IntersectionExampleScenario.node[33].nic.mac1609_4 	SlotsBackoff 	0
scalar IntersectionExampleScenario.node[33].nic.mac1609_4 	NumInternalContention 	0
scalar IntersectionExampleScenario.node[33].nic.mac1609_4 	totalBusyTime 	0
scalar IntersectionExampleScenario.node[33].veinsmobility 	startTime 	102.75
scalar IntersectionExampleScenario.node[33].veinsmobility 	totalTime 	80
scalar IntersectionExampleScenario.node[33].veinsmobility 	stopTime 	183
scalar IntersectionExampleScenario.node[33].veinsmobility 	minSpeed 	0
scalar IntersectionExampleScenario.node[33].veinsmobility 	maxSpeed 	15.559853553772
scalar IntersectionExampleScenario.node[33].veinsmobility 	totalDistance 	569.70132371453
scalar IntersectionExampleScenario.node[33].veinsmobility 	totalCO2Emission 	178.46100103252
scalar IntersectionExampleScenario.node[37].appl 	VehicleRemoved 	0
scalar IntersectionExampleScenario.node[37].appl 	ArrivedAtDest 	1
scalar IntersectionExampleScenario.node[37].appl 	IntersectionEnterTime 	122
scalar IntersectionExampleScenario.node[37].appl 	IntersectionExitTime 	168.60514251623
scalar IntersectionExampleScenario.node[37].appl 	NumberOfCollisions 	0
scalar IntersectionExampleScenario.node[37].nic.phy80211p 	busyTime 	0
scalar IntersectionExampleScenario.node[37].nic.mac1609_4 	ReceivedUnicastPackets 	0
scalar IntersectionExampleScenario.node[37].nic.mac1609_4 	ReceivedBroadcasts 	0
scalar IntersectionExampleScenario.node[37].nic.mac1609_4 	SentPackets 	0
scalar IntersectionExampleScenario.node[37].nic.mac1609_4 	SNIRLostPackets 	0
scalar IntersectionExampleScenario.node[37].nic.mac1609_4 	RXTXLostPackets 	0
scalar IntersectionExampleScenario.node[37].nic.mac1609_4 	TotalLostPackets 	0
scalar IntersectionExampleScenario.node[37].nic.mac1609_4 	DroppedPacketsInMac 	0
scalar IntersectionExampleScenario.node[37].nic.mac1609_4 	TooLittleTime 	0
scalar IntersectionExampleScenario.node[37].nic.mac1609_4 	TimesIntoBackoff 	0
scalar IntersectionExampleScenario.node[37].nic.mac1609_4 	SlotsBackoff 	0
scalar IntersectionExampleScenario.node[37].nic.mac1609_4 	NumInternalContention 	0
scalar IntersectionExampleScenario.node[37].nic.mac1609_4 	totalBusyTime 	0
scalar IntersectionExampleScenario.node[37].veinsmobility 	startTime 	122
scalar IntersectionExampleScenario.node[37].veinsmobility 	totalTime 	64.25
scalar IntersectionExampleScenario.node[37].veinsmobility 	stopTime 	186.5
scalar IntersectionExampleScenario.node[37].veinsmobility 	minSpeed 	0
scalar IntersectionExampleScenario.node[37].veinsmobility 	maxSpeed 	14.625
scalar IntersectionExampleScenario.node[37].veinsmobility 	totalDistance 	546.65145006529
scalar IntersectionExampleScenario.node[37].veinsmobility 	totalCO2Emission 	152.19055661685
scalar IntersectionExampleScenario.node[40].appl 	VehicleRemoved 	0
scalar IntersectionExampleScenario.node[40].appl 	ArrivedAtDest 	1
scalar IntersectionExampleScenario.node[40].appl 	IntersectionEnterTime 	133.75
scalar IntersectionExampleScenario.node[40].appl 	IntersectionExitTime 	170.80669283503
scalar IntersectionExampleScenario.node[40].appl 	NumberOfCollisions 	0
scalar IntersectionExampleScenario.node[40].nic.phy80211p 	busyTime 	0
scalar IntersectionExampleScenario.node[40].nic.mac1609_4 	ReceivedUnicastPackets 	0
scalar IntersectionExampleScenario.node[40].nic.mac1609_4 	ReceivedBroadcasts 	0
scalar IntersectionExampleScenario.node[40].nic.mac1609_4 	SentPackets 	0
scalar IntersectionExampleScenario.node[40].nic.mac1609_4 	SNIRLostPackets 	0
scalar IntersectionExampleScenario.node[40].nic.mac1609_4 	RXTXLostPackets 	0
scalar IntersectionExampleScenario.node[40].nic.mac1609_4 	TotalLostPackets 	0
scalar IntersectionExampleScenario.node[40].nic.mac1609_4 	DroppedPacketsInMac 	0
scalar IntersectionExampleScenario.node[40].nic.mac1609_4 	TooLittleTime 	0
scalar IntersectionExampleScenario.node[40].nic.mac1609_4 	TimesIntoBackoff 	0
scalar IntersectionExampleScenario.node[40].nic.mac1609_4 	SlotsBackoff 	0
scalar IntersectionExampleScenario.node[40].nic.mac1609_4 	NumInternalContention 	0
scalar IntersectionExampleScenario.node[40].nic.mac1609_4 	totalBusyTime 	0
[...]
scalar IntersectionExampleScenario.node[624].veinsmobility 	totalDistance 	253.15997314453
scalar IntersectionExampleScenario.node[624].veinsmobility 	totalCO2Emission 	60.995310848518
scalar IntersectionExampleScenario.node[625].appl 	VehicleRemoved 	0
scalar IntersectionExampleScenario.node[625].appl 	ArrivedAtDest 	0
scalar IntersectionExampleScenario.node[625].appl 	IntersectionEnterTime 	1783.25
scalar IntersectionExampleScenario.node[625].appl 	IntersectionExitTime 	-1
scalar IntersectionExampleScenario.node[625].appl 	NumberOfCollisions 	0
scalar IntersectionExampleScenario.node[625].nic.phy80211p 	busyTime 	0
scalar IntersectionExampleScenario.node[625].nic.mac1609_4 	ReceivedUnicastPackets 	0
scalar IntersectionExampleScenario.node[625].nic.mac1609_4 	ReceivedBroadcasts 	0
scalar IntersectionExampleScenario.node[625].nic.mac1609_4 	SentPackets 	0
scalar IntersectionExampleScenario.node[625].nic.mac1609_4 	SNIRLostPackets 	0
scalar IntersectionExampleScenario.node[625].nic.mac1609_4 	RXTXLostPackets 	0
scalar IntersectionExampleScenario.node[625].nic.mac1609_4 	TotalLostPackets 	0
scalar IntersectionExampleScenario.node[625].nic.mac1609_4 	DroppedPacketsInMac 	0
scalar IntersectionExampleScenario.node[625].nic.mac1609_4 	TooLittleTime 	0
scalar IntersectionExampleScenario.node[625].nic.mac1609_4 	TimesIntoBackoff 	0
scalar IntersectionExampleScenario.node[625].nic.mac1609_4 	SlotsBackoff 	0
scalar IntersectionExampleScenario.node[625].nic.mac1609_4 	NumInternalContention 	0
scalar IntersectionExampleScenario.node[625].nic.mac1609_4 	totalBusyTime 	0
scalar IntersectionExampleScenario.node[625].veinsmobility 	startTime 	1783.25
scalar IntersectionExampleScenario.node[625].veinsmobility 	totalTime 	16.75
scalar IntersectionExampleScenario.node[625].veinsmobility 	stopTime 	1800
scalar IntersectionExampleScenario.node[625].veinsmobility 	minSpeed 	5.6500000953674
scalar IntersectionExampleScenario.node[625].veinsmobility 	maxSpeed 	15.011979103088
scalar IntersectionExampleScenario.node[625].veinsmobility 	totalDistance 	199.36510467529
scalar IntersectionExampleScenario.node[625].veinsmobility 	totalCO2Emission 	59.453420532137
scalar IntersectionExampleScenario.node[626].appl 	VehicleRemoved 	0
scalar IntersectionExampleScenario.node[626].appl 	ArrivedAtDest 	0
scalar IntersectionExampleScenario.node[626].appl 	IntersectionEnterTime 	1785
scalar IntersectionExampleScenario.node[626].appl 	IntersectionExitTime 	-1
scalar IntersectionExampleScenario.node[626].appl 	NumberOfCollisions 	0
scalar IntersectionExampleScenario.node[626].nic.phy80211p 	busyTime 	0
scalar IntersectionExampleScenario.node[626].nic.mac1609_4 	ReceivedUnicastPackets 	0
scalar IntersectionExampleScenario.node[626].nic.mac1609_4 	ReceivedBroadcasts 	0
scalar IntersectionExampleScenario.node[626].nic.mac1609_4 	SentPackets 	0
scalar IntersectionExampleScenario.node[626].nic.mac1609_4 	SNIRLostPackets 	0
scalar IntersectionExampleScenario.node[626].nic.mac1609_4 	RXTXLostPackets 	0
scalar IntersectionExampleScenario.node[626].nic.mac1609_4 	TotalLostPackets 	0
scalar IntersectionExampleScenario.node[626].nic.mac1609_4 	DroppedPacketsInMac 	0
scalar IntersectionExampleScenario.node[626].nic.mac1609_4 	TooLittleTime 	0
scalar IntersectionExampleScenario.node[626].nic.mac1609_4 	TimesIntoBackoff 	0
scalar IntersectionExampleScenario.node[626].nic.mac1609_4 	SlotsBackoff 	0
scalar IntersectionExampleScenario.node[626].nic.mac1609_4 	NumInternalContention 	0
scalar IntersectionExampleScenario.node[626].nic.mac1609_4 	totalBusyTime 	0
scalar IntersectionExampleScenario.node[626].veinsmobility 	startTime 	1785
scalar IntersectionExampleScenario.node[626].veinsmobility 	totalTime 	15
scalar IntersectionExampleScenario.node[626].veinsmobility 	stopTime 	1800
scalar IntersectionExampleScenario.node[626].veinsmobility 	minSpeed 	5.6500000953674
scalar IntersectionExampleScenario.node[626].veinsmobility 	maxSpeed 	15.64999961853
scalar IntersectionExampleScenario.node[626].veinsmobility 	totalDistance 	202.34481048584
scalar IntersectionExampleScenario.node[626].veinsmobility 	totalCO2Emission 	51.571862305884
scalar IntersectionExampleScenario.node[627].appl 	VehicleRemoved 	0
scalar IntersectionExampleScenario.node[627].appl 	ArrivedAtDest 	0
scalar IntersectionExampleScenario.node[627].appl 	IntersectionEnterTime 	1786
scalar IntersectionExampleScenario.node[627].appl 	IntersectionExitTime 	-1
scalar IntersectionExampleScenario.node[627].appl 	NumberOfCollisions 	0
scalar IntersectionExampleScenario.node[627].nic.phy80211p 	busyTime 	0
scalar IntersectionExampleScenario.node[627].nic.mac1609_4 	ReceivedUnicastPackets 	0
scalar IntersectionExampleScenario.node[627].nic.mac1609_4 	ReceivedBroadcasts 	0
scalar IntersectionExampleScenario.node[627].nic.mac1609_4 	SentPackets 	0
scalar IntersectionExampleScenario.node[627].nic.mac1609_4 	SNIRLostPackets 	0
scalar IntersectionExampleScenario.node[627].nic.mac1609_4 	RXTXLostPackets 	0
scalar IntersectionExampleScenario.node[627].nic.mac1609_4 	TotalLostPackets 	0
scalar IntersectionExampleScenario.node[627].nic.mac1609_4 	DroppedPacketsInMac 	0
scalar IntersectionExampleScenario.node[627].nic.mac1609_4 	TooLittleTime 	0
scalar IntersectionExampleScenario.node[627].nic.mac1609_4 	TimesIntoBackoff 	0
scalar IntersectionExampleScenario.node[627].nic.mac1609_4 	SlotsBackoff 	0
scalar IntersectionExampleScenario.node[627].nic.mac1609_4 	NumInternalContention 	0
scalar IntersectionExampleScenario.node[627].nic.mac1609_4 	totalBusyTime 	0
scalar IntersectionExampleScenario.node[627].veinsmobility 	startTime 	1786
scalar IntersectionExampleScenario.node[627].veinsmobility 	totalTime 	14
scalar IntersectionExampleScenario.node[627].veinsmobility 	stopTime 	1800
scalar IntersectionExampleScenario.node[627].veinsmobility 	minSpeed 	4.9137849807739
scalar IntersectionExampleScenario.node[627].veinsmobility 	maxSpeed 	15.442893028259
scalar IntersectionExampleScenario.node[627].veinsmobility 	totalDistance 	157.81864929199
scalar IntersectionExampleScenario.node[627].veinsmobility 	totalCO2Emission 	56.049645919345
scalar IntersectionExampleScenario.node[628].appl 	VehicleRemoved 	0
scalar IntersectionExampleScenario.node[628].appl 	ArrivedAtDest 	0
scalar IntersectionExampleScenario.node[628].appl 	IntersectionEnterTime 	1787.25
scalar IntersectionExampleScenario.node[628].appl 	IntersectionExitTime 	-1
scalar IntersectionExampleScenario.node[628].appl 	NumberOfCollisions 	0
scalar IntersectionExampleScenario.node[628].nic.phy80211p 	busyTime 	0
scalar IntersectionExampleScenario.node[628].nic.mac1609_4 	ReceivedUnicastPackets 	0
scalar IntersectionExampleScenario.node[628].nic.mac1609_4 	ReceivedBroadcasts 	0
scalar IntersectionExampleScenario.node[628].nic.mac1609_4 	SentPackets 	0
scalar IntersectionExampleScenario.node[628].nic.mac1609_4 	SNIRLostPackets 	0
scalar IntersectionExampleScenario.node[628].nic.mac1609_4 	RXTXLostPackets 	0
scalar IntersectionExampleScenario.node[628].nic.mac1609_4 	TotalLostPackets 	0
scalar IntersectionExampleScenario.node[628].nic.mac1609_4 	DroppedPacketsInMac 	0
scalar IntersectionExampleScenario.node[628].nic.mac1609_4 	TooLittleTime 	0
scalar IntersectionExampleScenario.node[628].nic.mac1609_4 	TimesIntoBackoff 	0
scalar IntersectionExampleScenario.node[628].nic.mac1609_4 	SlotsBackoff 	0
scalar IntersectionExampleScenario.node[628].nic.mac1609_4 	NumInternalContention 	0
scalar IntersectionExampleScenario.node[628].nic.mac1609_4 	totalBusyTime 	0
scalar IntersectionExampleScenario.node[628].veinsmobility 	startTime 	1787.25
scalar IntersectionExampleScenario.node[628].veinsmobility 	totalTime 	12.75
scalar IntersectionExampleScenario.node[628].veinsmobility 	stopTime 	1800
scalar IntersectionExampleScenario.node[628].veinsmobility 	minSpeed 	5.4434027671814
scalar IntersectionExampleScenario.node[628].veinsmobility 	maxSpeed 	15.472400665283
scalar IntersectionExampleScenario.node[628].veinsmobility 	totalDistance 	139.3745803833
scalar IntersectionExampleScenario.node[628].veinsmobility 	totalCO2Emission 	47.661533125357
scalar IntersectionExampleScenario.node[629].appl 	VehicleRemoved 	0
scalar IntersectionExampleScenario.node[629].appl 	ArrivedAtDest 	0
scalar IntersectionExampleScenario.node[629].appl 	IntersectionEnterTime 	1787.5
scalar IntersectionExampleScenario.node[629].appl 	IntersectionExitTime 	-1
scalar IntersectionExampleScenario.node[629].appl 	NumberOfCollisions 	0
scalar IntersectionExampleScenario.node[629].nic.phy80211p 	busyTime 	0
scalar IntersectionExampleScenario.node[629].nic.mac1609_4 	ReceivedUnicastPackets 	0
scalar IntersectionExampleScenario.node[629].nic.mac1609_4 	ReceivedBroadcasts 	0
scalar IntersectionExampleScenario.node[629].nic.mac1609_4 	SentPackets 	0
scalar IntersectionExampleScenario.node[629].nic.mac1609_4 	SNIRLostPackets 	0
scalar IntersectionExampleScenario.node[629].nic.mac1609_4 	RXTXLostPackets 	0
scalar IntersectionExampleScenario.node[629].nic.mac1609_4 	TotalLostPackets 	0
scalar IntersectionExampleScenario.node[629].nic.mac1609_4 	DroppedPacketsInMac 	0
scalar IntersectionExampleScenario.node[629].nic.mac1609_4 	TooLittleTime 	0
scalar IntersectionExampleScenario.node[629].nic.mac1609_4 	TimesIntoBackoff 	0
scalar IntersectionExampleScenario.node[629].nic.mac1609_4 	SlotsBackoff 	0
scalar IntersectionExampleScenario.node[629].nic.mac1609_4 	NumInternalContention 	0
scalar IntersectionExampleScenario.node[629].nic.mac1609_4 	totalBusyTime 	0
scalar IntersectionExampleScenario.node[629].veinsmobility 	startTime 	1787.5
scalar IntersectionExampleScenario.node[629].veinsmobility 	totalTime 	12.5
scalar IntersectionExampleScenario.node[629].veinsmobility 	stopTime 	1800
scalar IntersectionExampleScenario.node[629].veinsmobility 	minSpeed 	5.4312658309937
scalar IntersectionExampleScenario.node[629].veinsmobility 	maxSpeed 	15.856202125549
scalar IntersectionExampleScenario.node[629].veinsmobility 	totalDistance 	164.35806274414
scalar IntersectionExampleScenario.node[629].veinsmobility 	totalCO2Emission 	51.747004188564
scalar IntersectionExampleScenario.node[630].appl 	VehicleRemoved 	0
scalar IntersectionExampleScenario.node[630].appl 	ArrivedAtDest 	0
scalar IntersectionExampleScenario.node[630].appl 	IntersectionEnterTime 	1791
scalar IntersectionExampleScenario.node[630].appl 	IntersectionExitTime 	-1
scalar IntersectionExampleScenario.node[630].appl 	NumberOfCollisions 	0
scalar IntersectionExampleScenario.node[630].nic.phy80211p 	busyTime 	0
scalar IntersectionExampleScenario.node[630].nic.mac1609_4 	ReceivedUnicastPackets 	0
scalar IntersectionExampleScenario.node[630].nic.mac1609_4 	ReceivedBroadcasts 	0
scalar IntersectionExampleScenario.node[630].nic.mac1609_4 	SentPackets 	0
scalar IntersectionExampleScenario.node[630].nic.mac1609_4 	SNIRLostPackets 	0
scalar IntersectionExampleScenario.node[630].nic.mac1609_4 	RXTXLostPackets 	0
scalar IntersectionExampleScenario.node[630].nic.mac1609_4 	TotalLostPackets 	0
scalar IntersectionExampleScenario.node[630].nic.mac1609_4 	DroppedPacketsInMac 	0
scalar IntersectionExampleScenario.node[630].nic.mac1609_4 	TooLittleTime 	0
scalar IntersectionExampleScenario.node[630].nic.mac1609_4 	TimesIntoBackoff 	0
scalar IntersectionExampleScenario.node[630].nic.mac1609_4 	SlotsBackoff 	0
scalar IntersectionExampleScenario.node[630].nic.mac1609_4 	NumInternalContention 	0
scalar IntersectionExampleScenario.node[630].nic.mac1609_4 	totalBusyTime 	0
scalar IntersectionExampleScenario.node[630].veinsmobility 	startTime 	1791
scalar IntersectionExampleScenario.node[630].veinsmobility 	totalTime 	9
scalar IntersectionExampleScenario.node[630].veinsmobility 	stopTime 	1800
scalar IntersectionExampleScenario.node[630].veinsmobility 	minSpeed 	5.6500000953674
scalar IntersectionExampleScenario.node[630].veinsmobility 	maxSpeed 	16.27499961853
scalar IntersectionExampleScenario.node[630].veinsmobility 	totalDistance 	120.38079833984
scalar IntersectionExampleScenario.node[630].veinsmobility 	totalCO2Emission 	45.899058066611
scalar IntersectionExampleScenario.node[631].appl 	VehicleRemoved 	0
scalar IntersectionExampleScenario.node[631].appl 	ArrivedAtDest 	0
scalar IntersectionExampleScenario.node[631].appl 	IntersectionEnterTime 	1792
scalar IntersectionExampleScenario.node[631].appl 	IntersectionExitTime 	-1
scalar IntersectionExampleScenario.node[631].appl 	NumberOfCollisions 	0
scalar IntersectionExampleScenario.node[631].nic.phy80211p 	busyTime 	0
scalar IntersectionExampleScenario.node[631].nic.mac1609_4 	ReceivedUnicastPackets 	0
scalar IntersectionExampleScenario.node[631].nic.mac1609_4 	ReceivedBroadcasts 	0
scalar IntersectionExampleScenario.node[631].nic.mac1609_4 	SentPackets 	0
scalar IntersectionExampleScenario.node[631].nic.mac1609_4 	SNIRLostPackets 	0
scalar IntersectionExampleScenario.node[631].nic.mac1609_4 	RXTXLostPackets 	0
scalar IntersectionExampleScenario.node[631].nic.mac1609_4 	TotalLostPackets 	0
scalar IntersectionExampleScenario.node[631].nic.mac1609_4 	DroppedPacketsInMac 	0
scalar IntersectionExampleScenario.node[631].nic.mac1609_4 	TooLittleTime 	0
scalar IntersectionExampleScenario.node[631].nic.mac1609_4 	TimesIntoBackoff 	0
scalar IntersectionExampleScenario.node[631].nic.mac1609_4 	SlotsBackoff 	0
scalar IntersectionExampleScenario.node[631].nic.mac1609_4 	NumInternalContention 	0
scalar IntersectionExampleScenario.node[631].nic.mac1609_4 	totalBusyTime 	0
scalar IntersectionExampleScenario.node[631].veinsmobility 	startTime 	1792
scalar IntersectionExampleScenario.node[631].veinsmobility 	totalTime 	8
scalar IntersectionExampleScenario.node[631].veinsmobility 	stopTime 	1800
scalar IntersectionExampleScenario.node[631].veinsmobility 	minSpeed 	5.6500000953674
scalar IntersectionExampleScenario.node[631].veinsmobility 	maxSpeed 	15.02499961853
scalar IntersectionExampleScenario.node[631].veinsmobility 	totalDistance 	98.44189453125
scalar IntersectionExampleScenario.node[631].veinsmobility 	totalCO2Emission 	37.358660350037
scalar IntersectionExampleScenario.node[632].appl 	VehicleRemoved 	0
scalar IntersectionExampleScenario.node[632].appl 	ArrivedAtDest 	0
scalar IntersectionExampleScenario.node[632].appl 	IntersectionEnterTime 	1794.5
scalar IntersectionExampleScenario.node[632].appl 	IntersectionExitTime 	-1
scalar IntersectionExampleScenario.node[632].appl 	NumberOfCollisions 	0
scalar IntersectionExampleScenario.node[632].nic.phy80211p 	busyTime 	0
scalar IntersectionExampleScenario.node[632].nic.mac1609_4 	ReceivedUnicastPackets 	0
scalar IntersectionExampleScenario.node[632].nic.mac1609_4 	ReceivedBroadcasts 	0
scalar IntersectionExampleScenario.node[632].nic.mac1609_4 	SentPackets 	0
scalar IntersectionExampleScenario.node[632].nic.mac1609_4 	SNIRLostPackets 	0
scalar IntersectionExampleScenario.node[632].nic.mac1609_4 	RXTXLostPackets 	0
scalar IntersectionExampleScenario.node[632].nic.mac1609_4 	TotalLostPackets 	0
scalar IntersectionExampleScenario.node[632].nic.mac1609_4 	DroppedPacketsInMac 	0
scalar IntersectionExampleScenario.node[632].nic.mac1609_4 	TooLittleTime 	0
scalar IntersectionExampleScenario.node[632].nic.mac1609_4 	TimesIntoBackoff 	0
scalar IntersectionExampleScenario.node[632].nic.mac1609_4 	SlotsBackoff 	0
scalar IntersectionExampleScenario.node[632].nic.mac1609_4 	NumInternalContention 	0
scalar IntersectionExampleScenario.node[632].nic.mac1609_4 	totalBusyTime 	0
scalar IntersectionExampleScenario.node[632].veinsmobility 	startTime 	1794.5
scalar IntersectionExampleScenario.node[632].veinsmobility 	totalTime 	5.5
scalar IntersectionExampleScenario.node[632].veinsmobility 	stopTime 	1800
scalar IntersectionExampleScenario.node[632].veinsmobility 	minSpeed 	5.6500000953674
scalar IntersectionExampleScenario.node[632].veinsmobility 	maxSpeed 	15.02499961853
scalar IntersectionExampleScenario.node[632].veinsmobility 	totalDistance 	62.565071105957
scalar IntersectionExampleScenario.node[632].veinsmobility 	totalCO2Emission 	33.606926495272
scalar IntersectionExampleScenario.node[633].appl 	VehicleRemoved 	0
scalar IntersectionExampleScenario.node[633].appl 	ArrivedAtDest 	0
scalar IntersectionExampleScenario.node[633].appl 	IntersectionEnterTime 	1796.25
scalar IntersectionExampleScenario.node[633].appl 	IntersectionExitTime 	-1
scalar IntersectionExampleScenario.node[633].appl 	NumberOfCollisions 	0
scalar IntersectionExampleScenario.node[633].nic.phy80211p 	busyTime 	0
scalar IntersectionExampleScenario.node[633].nic.mac1609_4 	ReceivedUnicastPackets 	0
scalar IntersectionExampleScenario.node[633].nic.mac1609_4 	ReceivedBroadcasts 	0
scalar IntersectionExampleScenario.node[633].nic.mac1609_4 	SentPackets 	0
scalar IntersectionExampleScenario.node[633].nic.mac1609_4 	SNIRLostPackets 	0
scalar IntersectionExampleScenario.node[633].nic.mac1609_4 	RXTXLostPackets 	0
scalar IntersectionExampleScenario.node[633].nic.mac1609_4 	TotalLostPackets 	0
scalar IntersectionExampleScenario.node[633].nic.mac1609_4 	DroppedPacketsInMac 	0
scalar IntersectionExampleScenario.node[633].nic.mac1609_4 	TooLittleTime 	0
scalar IntersectionExampleScenario.node[633].nic.mac1609_4 	TimesIntoBackoff 	0
scalar IntersectionExampleScenario.node[633].nic.mac1609_4 	SlotsBackoff 	0
scalar IntersectionExampleScenario.node[633].nic.mac1609_4 	NumInternalContention 	0
scalar IntersectionExampleScenario.node[633].nic.mac1609_4 	totalBusyTime 	0
scalar IntersectionExampleScenario.node[633].veinsmobility 	startTime 	1796.25
scalar IntersectionExampleScenario.node[633].veinsmobility 	totalTime 	3.75
scalar IntersectionExampleScenario.node[633].veinsmobility 	stopTime 	1800
scalar IntersectionExampleScenario.node[633].veinsmobility 	minSpeed 	5.6500000953674
scalar IntersectionExampleScenario.node[633].veinsmobility 	maxSpeed 	14.39999961853
scalar IntersectionExampleScenario.node[633].veinsmobility 	totalDistance 	36.421875
scalar IntersectionExampleScenario.node[633].veinsmobility 	totalCO2Emission 	27.850414058068
scalar IntersectionExampleScenario.node[634].appl 	VehicleRemoved 	0
scalar IntersectionExampleScenario.node[634].appl 	ArrivedAtDest 	0
scalar IntersectionExampleScenario.node[634].appl 	IntersectionEnterTime 	1799
scalar IntersectionExampleScenario.node[634].appl 	IntersectionExitTime 	-1
scalar IntersectionExampleScenario.node[634].appl 	NumberOfCollisions 	0
scalar IntersectionExampleScenario.node[634].nic.phy80211p 	busyTime 	0
scalar IntersectionExampleScenario.node[634].nic.mac1609_4 	ReceivedUnicastPackets 	0
scalar IntersectionExampleScenario.node[634].nic.mac1609_4 	ReceivedBroadcasts 	0
scalar IntersectionExampleScenario.node[634].nic.mac1609_4 	SentPackets 	0
scalar IntersectionExampleScenario.node[634].nic.mac1609_4 	SNIRLostPackets 	0
scalar IntersectionExampleScenario.node[634].nic.mac1609_4 	RXTXLostPackets 	0
scalar IntersectionExampleScenario.node[634].nic.mac1609_4 	TotalLostPackets 	0
scalar IntersectionExampleScenario.node[634].nic.mac1609_4 	DroppedPacketsInMac 	0
scalar IntersectionExampleScenario.node[634].nic.mac1609_4 	TooLittleTime 	0
scalar IntersectionExampleScenario.node[634].nic.mac1609_4 	TimesIntoBackoff 	0
scalar IntersectionExampleScenario.node[634].nic.mac1609_4 	SlotsBackoff 	0
scalar IntersectionExampleScenario.node[634].nic.mac1609_4 	NumInternalContention 	0
scalar IntersectionExampleScenario.node[634].nic.mac1609_4 	totalBusyTime 	0
scalar IntersectionExampleScenario.node[634].veinsmobility 	startTime 	1799
scalar IntersectionExampleScenario.node[634].veinsmobility 	totalTime 	1
scalar IntersectionExampleScenario.node[634].veinsmobility 	stopTime 	1800
scalar IntersectionExampleScenario.node[634].veinsmobility 	minSpeed 	5.6500000953674
scalar IntersectionExampleScenario.node[634].veinsmobility 	maxSpeed 	7.5250000953674
scalar IntersectionExampleScenario.node[634].veinsmobility 	totalDistance 	6.2749633789062
scalar IntersectionExampleScenario.node[634].veinsmobility 	totalCO2Emission 	4.2232135025359
