file 24780749 1591399143                                        
version 2
run nodebug-31-20200605-19:14:45-18076
attr configname nodebug
attr datetime 20200605-19:14:45
attr experiment nodebug
attr inifile omnetpp.ini
attr iterationvars ""
attr iterationvars2 $repetition=31
attr measurement ""
attr network "\"org.car2x.veins.modules.application.ExtTraCIScenarioManagerLaunchd.IntersectionExampleScenario\""
attr processid 18076
attr repetition 31
attr replication #31
attr resultdir results
attr runnumber 31
attr seedset 31
param **.coreDebug false
param **.debug false
param *.**.nic.mac1609_4.bitrate 18Mbps
param *.**.nic.mac1609_4.txPower 20mW
param *.**.nic.mac1609_4.useServiceChannel false
param *.**.nic.phy80211p.analogueModels "xmldoc(\"config.xml\")"
param *.**.nic.phy80211p.decider "xmldoc(\"config.xml\")"
param *.**.nic.phy80211p.sensitivity -89dBm
param *.**.nic.phy80211p.thermalNoise -110dBm
param *.**.nic.phy80211p.usePropagationDelay true
param *.**.nic.phy80211p.useThermalNoise true
param *.annotations.draw false
param *.connectionManager.alpha 2.0
param *.connectionManager.carrierFrequency "5.890e9 Hz"
param *.connectionManager.pMax 20mW
param *.connectionManager.sat -89dBm
param *.connectionManager.sendDirect true
param *.manager.autoShutdown true
param *.manager.host "\"localhost\""
param *.manager.launchConfig "xmldoc(\"paramics.launchd.xml\")"
param *.manager.margin 25
param *.manager.moduleDisplayString "\"\""
param *.manager.moduleName "\"node\""
param *.manager.moduleType "\"org.car2x.veins.nodes.Car\""
param *.manager.port 9999
param *.manager.updateInterval 250ms
param *.node[*0].veinsmobility.accidentCount 0
param *.node[*0].veinsmobility.accidentDuration 30s
param *.node[*0].veinsmobility.accidentStart 75s
param *.node[*].appl.LiderSelectZoneRadio 55.0
param *.node[*].appl.ShareDataZoneRadio 110.0
param *.node[*].appl.TiempoSemaforo 30.0
param *.node[*].appl.beaconInterval 1s
param *.node[*].appl.beaconPriority 3
param *.node[*].appl.dataOnSch false
param *.node[*].appl.dataPriority 2
param *.node[*].appl.debug false
param *.node[*].appl.headerLength "256 bit"
param *.node[*].appl.maxOffset 0.005s
param *.node[*].appl.sendBeacons false
param *.node[*].appl.sendData true
param *.node[*].applType "\"Dummy\""
param *.node[*].mobilityType "\"TraCIMobility\""
param *.node[*].mobilityType.debug true
param *.node[*].veinsmobility.x 0
param *.node[*].veinsmobility.y 0
param *.node[*].veinsmobility.z 1.895
param *.node[*].veinsmobilityType "\"org.car2x.veins.modules.mobility.traci.TraCIMobility\""
param *.node[*].veinsmobilityType.debug true
param *.playgroundSizeX 8500m
param *.playgroundSizeY 8500m
param *.playgroundSizeZ 50m
param *.world.use2D false
param *.world.useTorus false

vector 50385  IntersectionExampleScenario.manager  vehiclesinsim  ETV
attr type  int
vector 50386  IntersectionExampleScenario.manager  realtime  ETV
attr type  int
attr unit  s
vector 50389  IntersectionExampleScenario.node[0].veinsmobility  posx  ETV
vector 50390  IntersectionExampleScenario.node[0].veinsmobility  posy  ETV
vector 50391  IntersectionExampleScenario.node[0].veinsmobility  speed  ETV
vector 50392  IntersectionExampleScenario.node[0].veinsmobility  acceleration  ETV
vector 50393  IntersectionExampleScenario.node[0].veinsmobility  co2emission  ETV
vector 50396  IntersectionExampleScenario.node[1].veinsmobility  posx  ETV
vector 50397  IntersectionExampleScenario.node[1].veinsmobility  posy  ETV
vector 50398  IntersectionExampleScenario.node[1].veinsmobility  speed  ETV
vector 50399  IntersectionExampleScenario.node[1].veinsmobility  acceleration  ETV
vector 50400  IntersectionExampleScenario.node[1].veinsmobility  co2emission  ETV
vector 50403  IntersectionExampleScenario.node[2].veinsmobility  posx  ETV
vector 50404  IntersectionExampleScenario.node[2].veinsmobility  posy  ETV
vector 50405  IntersectionExampleScenario.node[2].veinsmobility  speed  ETV
vector 50406  IntersectionExampleScenario.node[2].veinsmobility  acceleration  ETV
vector 50407  IntersectionExampleScenario.node[2].veinsmobility  co2emission  ETV
vector 50410  IntersectionExampleScenario.node[3].veinsmobility  posx  ETV
vector 50411  IntersectionExampleScenario.node[3].veinsmobility  posy  ETV
vector 50412  IntersectionExampleScenario.node[3].veinsmobility  speed  ETV
vector 50413  IntersectionExampleScenario.node[3].veinsmobility  acceleration  ETV
vector 50414  IntersectionExampleScenario.node[3].veinsmobility  co2emission  ETV
vector 50417  IntersectionExampleScenario.node[4].veinsmobility  posx  ETV
vector 50418  IntersectionExampleScenario.node[4].veinsmobility  posy  ETV
vector 50419  IntersectionExampleScenario.node[4].veinsmobility  speed  ETV
vector 50420  IntersectionExampleScenario.node[4].veinsmobility  acceleration  ETV
vector 50421  IntersectionExampleScenario.node[4].veinsmobility  co2emission  ETV
vector 50424  IntersectionExampleScenario.node[5].veinsmobility  posx  ETV
vector 50425  IntersectionExampleScenario.node[5].veinsmobility  posy  ETV
vector 50426  IntersectionExampleScenario.node[5].veinsmobility  speed  ETV
vector 50427  IntersectionExampleScenario.node[5].veinsmobility  acceleration  ETV
vector 50428  IntersectionExampleScenario.node[5].veinsmobility  co2emission  ETV
vector 50431  IntersectionExampleScenario.node[6].veinsmobility  posx  ETV
vector 50432  IntersectionExampleScenario.node[6].veinsmobility  posy  ETV
vector 50433  IntersectionExampleScenario.node[6].veinsmobility  speed  ETV
vector 50438  IntersectionExampleScenario.node[7].veinsmobility  posx  ETV
vector 50439  IntersectionExampleScenario.node[7].veinsmobility  posy  ETV
vector 50434  IntersectionExampleScenario.node[6].veinsmobility  acceleration  ETV
vector 50435  IntersectionExampleScenario.node[6].veinsmobility  co2emission  ETV
vector 50440  IntersectionExampleScenario.node[7].veinsmobility  speed  ETV
vector 50441  IntersectionExampleScenario.node[7].veinsmobility  acceleration  ETV
vector 50442  IntersectionExampleScenario.node[7].veinsmobility  co2emission  ETV
vector 50445  IntersectionExampleScenario.node[8].veinsmobility  posx  ETV
vector 50446  IntersectionExampleScenario.node[8].veinsmobility  posy  ETV
vector 50447  IntersectionExampleScenario.node[8].veinsmobility  speed  ETV
vector 50448  IntersectionExampleScenario.node[8].veinsmobility  acceleration  ETV
vector 50449  IntersectionExampleScenario.node[8].veinsmobility  co2emission  ETV
vector 50452  IntersectionExampleScenario.node[9].veinsmobility  posx  ETV
vector 50453  IntersectionExampleScenario.node[9].veinsmobility  posy  ETV
vector 50454  IntersectionExampleScenario.node[9].veinsmobility  speed  ETV
vector 50455  IntersectionExampleScenario.node[9].veinsmobility  acceleration  ETV
vector 50456  IntersectionExampleScenario.node[9].veinsmobility  co2emission  ETV
vector 50459  IntersectionExampleScenario.node[10].veinsmobility  posx  ETV
vector 50460  IntersectionExampleScenario.node[10].veinsmobility  posy  ETV
vector 50461  IntersectionExampleScenario.node[10].veinsmobility  speed  ETV
vector 50462  IntersectionExampleScenario.node[10].veinsmobility  acceleration  ETV
vector 50463  IntersectionExampleScenario.node[10].veinsmobility  co2emission  ETV
vector 50466  IntersectionExampleScenario.node[11].veinsmobility  posx  ETV
vector 50467  IntersectionExampleScenario.node[11].veinsmobility  posy  ETV
vector 50468  IntersectionExampleScenario.node[11].veinsmobility  speed  ETV
vector 50469  IntersectionExampleScenario.node[11].veinsmobility  acceleration  ETV
vector 50470  IntersectionExampleScenario.node[11].veinsmobility  co2emission  ETV
vector 50473  IntersectionExampleScenario.node[12].veinsmobility  posx  ETV
vector 50474  IntersectionExampleScenario.node[12].veinsmobility  posy  ETV
vector 50475  IntersectionExampleScenario.node[12].veinsmobility  speed  ETV
vector 50476  IntersectionExampleScenario.node[12].veinsmobility  acceleration  ETV
vector 50477  IntersectionExampleScenario.node[12].veinsmobility  co2emission  ETV
vector 50480  IntersectionExampleScenario.node[13].veinsmobility  posx  ETV
vector 50481  IntersectionExampleScenario.node[13].veinsmobility  posy  ETV
vector 50482  IntersectionExampleScenario.node[13].veinsmobility  speed  ETV
vector 50483  IntersectionExampleScenario.node[13].veinsmobility  acceleration  ETV
vector 50484  IntersectionExampleScenario.node[13].veinsmobility  co2emission  ETV
vector 50487  IntersectionExampleScenario.node[14].veinsmobility  posx  ETV
vector 50488  IntersectionExampleScenario.node[14].veinsmobility  posy  ETV
vector 50489  IntersectionExampleScenario.node[14].veinsmobility  speed  ETV
vector 50490  IntersectionExampleScenario.node[14].veinsmobility  acceleration  ETV
vector 50491  IntersectionExampleScenario.node[14].veinsmobility  co2emission  ETV
50400	8901 5566 57 2856 6 52 185 0.973 11.90022389248 568.70640992329 3090.2356676542
50399	14467 5161 57 2856 6 52 185 -7.2641291618347 4 39.699392318726 488.74806203163
50398	19628 5461 52 2856 5.75 52 186 0 16 2217.2994669676 32035.832177997
50397	25089 6042 47 2856 5.5 52 187 486.85000610352 486.85000610352 91040.951141357 44323287.61884
50396	31131 6031 47 2856 5.5 52 187 235.46020507812 785.82187652588 96777.402992249 54204056.118817
vector 50494  IntersectionExampleScenario.node[15].veinsmobility  posx  ETV
vector 50495  IntersectionExampleScenario.node[15].veinsmobility  posy  ETV
vector 50496  IntersectionExampleScenario.node[15].veinsmobility  speed  ETV
vector 50497  IntersectionExampleScenario.node[15].veinsmobility  acceleration  ETV
vector 50498  IntersectionExampleScenario.node[15].veinsmobility  co2emission  ETV
50407	37563 5283 176 3124 11.75 55 174 0.973 11.648172402475 539.24942607004 2987.6787459714
50406	42846 5223 176 3124 11.75 55 174 -3.6408653259277 2.5 37.662351608276 337.45865261568
50405	48069 5386 169 3124 11.5 55 175 4.8707685470581 15.64999961853 2190.6649494171 29536.620813388
50404	53455 5713 162 3124 11.25 55 176 486.85000610352 734.42428588867 94038.570053101 51224741.34621
50403	59168 5714 162 3124 11.25 55 176 486.66864013672 785.82187652588 100169.83667755 58786547.280162
vector 50501  IntersectionExampleScenario.node[16].veinsmobility  posx  ETV
vector 50502  IntersectionExampleScenario.node[16].veinsmobility  posy  ETV
vector 50503  IntersectionExampleScenario.node[16].veinsmobility  speed  ETV
vector 50504  IntersectionExampleScenario.node[16].veinsmobility  acceleration  ETV
vector 50505  IntersectionExampleScenario.node[16].veinsmobility  co2emission  ETV
vector 50508  IntersectionExampleScenario.node[17].veinsmobility  posx  ETV
vector 50509  IntersectionExampleScenario.node[17].veinsmobility  posy  ETV
vector 50510  IntersectionExampleScenario.node[17].veinsmobility  speed  ETV
50393	65515 6593 17 3667 3 60.75 232 0.973 12.099024792222 621.60065659288 3235.5162318793
50392	72108 5869 17 3667 3 60.75 232 -9.4888124465942 4 40.887662887573 530.06786918582
50391	77977 6232 14 3667 2.75 60.75 233 0 16.27499961853 2180.4144983292 31701.827443572
50390	84209 7538 11 3667 2.5 60.75 234 184.17810058594 483.36395263672 98655.942993164 43585298.98649
50389	91747 7485 11 3667 2.5 60.75 234 486.85000610352 733.3787689209 121818.57356262 64442943.405765
vector 50511  IntersectionExampleScenario.node[17].veinsmobility  acceleration  ETV
vector 50512  IntersectionExampleScenario.node[17].veinsmobility  co2emission  ETV
vector 50515  IntersectionExampleScenario.node[18].veinsmobility  posx  ETV
vector 50516  IntersectionExampleScenario.node[18].veinsmobility  posy  ETV
vector 50517  IntersectionExampleScenario.node[18].veinsmobility  speed  ETV
vector 50518  IntersectionExampleScenario.node[18].veinsmobility  acceleration  ETV
vector 50519  IntersectionExampleScenario.node[18].veinsmobility  co2emission  ETV
vector 50522  IntersectionExampleScenario.node[19].veinsmobility  posx  ETV
vector 50523  IntersectionExampleScenario.node[19].veinsmobility  posy  ETV
vector 50524  IntersectionExampleScenario.node[19].veinsmobility  speed  ETV
50414	100034 5761 285 3955 15.5 63.5 193 0.97223939240464 11.810082123732 549.30714314609 2939.9438832292
50413	105795 6040 285 3955 15.5 63.5 193 -2.1208915710449 2.5 38.680875778198 296.27048988145
50412	111835 6054 276 3955 15.25 63.5 194 1.8739143610001 15.875 2181.1991232634 28888.182914318
50411	117889 6342 267 3955 15 63.5 195 184.17810058594 483.25744628906 79178.788391113 33967123.857561
50410	124231 6367 267 3955 15 63.5 195 486.85000610352 732.15811157227 103015.50292969 55403287.577487
vector 50525  IntersectionExampleScenario.node[19].veinsmobility  acceleration  ETV
vector 50526  IntersectionExampleScenario.node[19].veinsmobility  co2emission  ETV
50428	130767 5309 607 4193 23 65.75 172 0.973 11.200708441096 535.92862870276 2995.5345200496
50427	136076 5049 607 4193 23 65.75 172 -4.0963973999023 2.5 36.134572982788 303.57878952555
50426	141125 5461 594 4193 22.75 65.75 173 5.6500000953674 15.02499961853 2218.9005146027 29541.347745476
50425	146586 5679 581 4193 22.5 65.75 174 184.17810058594 734.01956176758 77762.585662842 39046252.496396
50424	152265 5712 581 4193 22.5 65.75 174 486.85000610352 486.85000610352 84711.901062012 41241989.549081
vector 50529  IntersectionExampleScenario.node[20].veinsmobility  posx  ETV
vector 50530  IntersectionExampleScenario.node[20].veinsmobility  posy  ETV
vector 50536  IntersectionExampleScenario.node[21].veinsmobility  posx  ETV
vector 50537  IntersectionExampleScenario.node[21].veinsmobility  posy  ETV
vector 50531  IntersectionExampleScenario.node[20].veinsmobility  speed  ETV
vector 50532  IntersectionExampleScenario.node[20].veinsmobility  acceleration  ETV
vector 50533  IntersectionExampleScenario.node[20].veinsmobility  co2emission  ETV
vector 50538  IntersectionExampleScenario.node[21].veinsmobility  speed  ETV
vector 50543  IntersectionExampleScenario.node[22].veinsmobility  posx  ETV
vector 50544  IntersectionExampleScenario.node[22].veinsmobility  posy  ETV
vector 50539  IntersectionExampleScenario.node[21].veinsmobility  acceleration  ETV
vector 50540  IntersectionExampleScenario.node[21].veinsmobility  co2emission  ETV
vector 50545  IntersectionExampleScenario.node[22].veinsmobility  speed  ETV
vector 50546  IntersectionExampleScenario.node[22].veinsmobility  acceleration  ETV
vector 50547  IntersectionExampleScenario.node[22].veinsmobility  co2emission  ETV
vector 50550  IntersectionExampleScenario.node[23].veinsmobility  posx  ETV
vector 50551  IntersectionExampleScenario.node[23].veinsmobility  posy  ETV
vector 50552  IntersectionExampleScenario.node[23].veinsmobility  speed  ETV
vector 50553  IntersectionExampleScenario.node[23].veinsmobility  acceleration  ETV
vector 50554  IntersectionExampleScenario.node[23].veinsmobility  co2emission  ETV
vector 50557  IntersectionExampleScenario.node[24].veinsmobility  posx  ETV
vector 50558  IntersectionExampleScenario.node[24].veinsmobility  posy  ETV
vector 50559  IntersectionExampleScenario.node[24].veinsmobility  speed  ETV
vector 50560  IntersectionExampleScenario.node[24].veinsmobility  acceleration  ETV
vector 50561  IntersectionExampleScenario.node[24].veinsmobility  co2emission  ETV
50421	159982 6978 361 5527 17.5 77.5 241 0.973 11.36141391502 598.70098256408 2815.0174977943
50420	166960 6264 361 5527 17.5 77.5 241 -8.4870567321777 4 37.15309715271 476.36065124764
50419	173224 6608 350 5527 17.25 77.5 242 0 15.25 2176.7448656559 30094.704683899
50418	179832 7954 339 5527 17 77.5 243 486.63604736328 785.82187652588 133264.00978851 75134197.909022
50417	187786 7900 339 5527 17 77.5 243 236.84155273438 483.14999389648 109068.11019897 50033806.315129
vector 50564  IntersectionExampleScenario.node[25].veinsmobility  posx  ETV
vector 50565  IntersectionExampleScenario.node[25].veinsmobility  posy  ETV
vector 50566  IntersectionExampleScenario.node[25].veinsmobility  speed  ETV
vector 50567  IntersectionExampleScenario.node[25].veinsmobility  acceleration  ETV
vector 50568  IntersectionExampleScenario.node[25].veinsmobility  co2emission  ETV
50435	196087 6154 936 5854 29.25 80.25 205 0.973 11.36141391502 551.51523223589 2722.7429253524
50434	202241 6399 936 5854 29.25 80.25 205 -2.1596946716309 2.5 37.32285118103 294.68762262806
50433	208640 6526 921 5854 29 80.25 206 0.77070152759552 15.25 2192.3178007603 28509.937866878
50432	215166 6811 906 5854 28.75 80.25 207 486.69274902344 785.82187652588 116154.28276825 67049483.43047
50431	221977 6823 906 5854 28.75 80.25 207 235.03173828125 483.14999389648 91568.072418213 41553650.392837
vector 50571  IntersectionExampleScenario.node[26].veinsmobility  posx  ETV
vector 50572  IntersectionExampleScenario.node[26].veinsmobility  posy  ETV
50449	228954 6005 1127 5885 32 80.5 195 0.973 11.990504229548 588.41602653316 3063.9537552605
50448	234959 6074 1127 5885 32 80.5 195 -4.5 2.5000009536743 40.887662887573 386.29099775472
50447	241033 6262 1108 5885 31.75 80.5 196 3.0183601379395 16.125 2276.3467912674 31098.481446939
50446	247295 6482 1089 5885 31.5 80.5 197 236.25408935547 800.04531860352 104611.80416107 59927370.38633
50445	253777 6501 1089 5885 31.5 80.5 197 483.14999389648 483.14999389648 95180.548797607 45986481.570628
vector 50573  IntersectionExampleScenario.node[26].veinsmobility  speed  ETV
vector 50578  IntersectionExampleScenario.node[27].veinsmobility  posx  ETV
vector 50579  IntersectionExampleScenario.node[27].veinsmobility  posy  ETV
vector 50574  IntersectionExampleScenario.node[26].veinsmobility  acceleration  ETV
vector 50575  IntersectionExampleScenario.node[26].veinsmobility  co2emission  ETV
vector 50580  IntersectionExampleScenario.node[27].veinsmobility  speed  ETV
vector 50581  IntersectionExampleScenario.node[27].veinsmobility  acceleration  ETV
vector 50582  IntersectionExampleScenario.node[27].veinsmobility  co2emission  ETV
vector 50585  IntersectionExampleScenario.node[28].veinsmobility  posx  ETV
vector 50586  IntersectionExampleScenario.node[28].veinsmobility  posy  ETV
vector 50587  IntersectionExampleScenario.node[28].veinsmobility  speed  ETV
vector 50588  IntersectionExampleScenario.node[28].veinsmobility  acceleration  ETV
vector 50589  IntersectionExampleScenario.node[28].veinsmobility  co2emission  ETV
vector 50592  IntersectionExampleScenario.node[29].veinsmobility  posx  ETV
vector 50593  IntersectionExampleScenario.node[29].veinsmobility  posy  ETV
vector 50599  IntersectionExampleScenario.node[30].veinsmobility  posx  ETV
vector 50600  IntersectionExampleScenario.node[30].veinsmobility  posy  ETV
vector 50606  IntersectionExampleScenario.node[31].veinsmobility  posx  ETV
vector 50607  IntersectionExampleScenario.node[31].veinsmobility  posy  ETV
vector 50594  IntersectionExampleScenario.node[29].veinsmobility  speed  ETV
vector 50601  IntersectionExampleScenario.node[30].veinsmobility  speed  ETV
50442	261945 6626 970 6553 29.75 85.25 223 0.973 11.00486315618 563.61122442426 2559.3121990145
50441	268571 6001 970 6553 29.75 85.25 223 -7.1268091201782 4 34.437047958374 445.46673179032
50440	274572 6435 953 6553 29.5 85.25 224 0 14.75 2203.0807497501 29464.737582101
50439	281007 7414 936 6553 29.25 85.25 225 236.12127685547 486.85000610352 100542.859375 46074364.83581
50438	288421 7412 936 6553 29.25 85.25 225 483.14999389648 785.82187652588 124376.85244751 70819348.34707
50456	295833 6254 1359 6553 35 85.25 202 0.973 11.54047740176 567.09889399477 2759.2003552299
50455	302087 6323 1359 6553 35 85.25 202 -4.292537689209 2.5000009536743 38.511121749878 385.05726241104
50454	308410 6541 1338 6553 34.75 85.25 203 0 15.5 2215.3463508487 30800.838577691
50453	314951 6732 1317 6553 34.5 85.25 204 486.85000610352 486.85000610352 99317.401245117 48352677.40237
50452	321683 6710 1317 6553 34.5 85.25 204 236.58862304688 785.82187652588 105806.4414444 59038870.613575
vector 50595  IntersectionExampleScenario.node[29].veinsmobility  acceleration  ETV
vector 50596  IntersectionExampleScenario.node[29].veinsmobility  co2emission  ETV
vector 50602  IntersectionExampleScenario.node[30].veinsmobility  acceleration  ETV
vector 50603  IntersectionExampleScenario.node[30].veinsmobility  co2emission  ETV
vector 50608  IntersectionExampleScenario.node[31].veinsmobility  speed  ETV
vector 50609  IntersectionExampleScenario.node[31].veinsmobility  acceleration  ETV
vector 50610  IntersectionExampleScenario.node[31].veinsmobility  co2emission  ETV
50484	328978 5541 2097 6991 43.5 88 179 0.973 11.200708441096 512.59684635034 2493.6235978281
50483	334519 5572 2097 6991 43.5 88 179 -2.0214385986328 2.5000019073486 36.134572982788 239.97358091773
50482	340091 5773 2072 6991 43.25 88 180 4.6946606636047 15.02499961853 2218.7543120384 29189.522744701
50481	345864 5971 2047 6991 43 88 181 486.85000610352 486.85000610352 88119.851104736 42901150.048182
50480	351835 5941 2047 6991 43 88 181 236.24993896484 785.82187652588 94509.792182922 53624520.877563
vector 50613  IntersectionExampleScenario.node[32].veinsmobility  posx  ETV
vector 50614  IntersectionExampleScenario.node[32].veinsmobility  posy  ETV
vector 50615  IntersectionExampleScenario.node[32].veinsmobility  speed  ETV
vector 50616  IntersectionExampleScenario.node[32].veinsmobility  acceleration  ETV
vector 50617  IntersectionExampleScenario.node[32].veinsmobility  co2emission  ETV
vector 50620  IntersectionExampleScenario.node[33].veinsmobility  posx  ETV
vector 50621  IntersectionExampleScenario.node[33].veinsmobility  posy  ETV
vector 50622  IntersectionExampleScenario.node[33].veinsmobility  speed  ETV
vector 50623  IntersectionExampleScenario.node[33].veinsmobility  acceleration  ETV
vector 50624  IntersectionExampleScenario.node[33].veinsmobility  co2emission  ETV
vector 50627  IntersectionExampleScenario.node[34].veinsmobility  posx  ETV
vector 50628  IntersectionExampleScenario.node[34].veinsmobility  posy  ETV
vector 50629  IntersectionExampleScenario.node[34].veinsmobility  speed  ETV
vector 50634  IntersectionExampleScenario.node[35].veinsmobility  posx  ETV
vector 50635  IntersectionExampleScenario.node[35].veinsmobility  posy  ETV
vector 50630  IntersectionExampleScenario.node[34].veinsmobility  acceleration  ETV
vector 50631  IntersectionExampleScenario.node[34].veinsmobility  co2emission  ETV
vector 50636  IntersectionExampleScenario.node[35].veinsmobility  speed  ETV
vector 50637  IntersectionExampleScenario.node[35].veinsmobility  acceleration  ETV
vector 50638  IntersectionExampleScenario.node[35].veinsmobility  co2emission  ETV
vector 50641  IntersectionExampleScenario.node[36].veinsmobility  posx  ETV
vector 50642  IntersectionExampleScenario.node[36].veinsmobility  posy  ETV
vector 50643  IntersectionExampleScenario.node[36].veinsmobility  speed  ETV
vector 50644  IntersectionExampleScenario.node[36].veinsmobility  acceleration  ETV
vector 50645  IntersectionExampleScenario.node[36].veinsmobility  co2emission  ETV
vector 50648  IntersectionExampleScenario.node[37].veinsmobility  posx  ETV
vector 50649  IntersectionExampleScenario.node[37].veinsmobility  posy  ETV
vector 50650  IntersectionExampleScenario.node[37].veinsmobility  speed  ETV
vector 50651  IntersectionExampleScenario.node[37].veinsmobility  acceleration  ETV
vector 50652  IntersectionExampleScenario.node[37].veinsmobility  co2emission  ETV
vector 50655  IntersectionExampleScenario.node[38].veinsmobility  posx  ETV
vector 50656  IntersectionExampleScenario.node[38].veinsmobility  posy  ETV
vector 50657  IntersectionExampleScenario.node[38].veinsmobility  speed  ETV
vector 50658  IntersectionExampleScenario.node[38].veinsmobility  acceleration  ETV
vector 50659  IntersectionExampleScenario.node[38].veinsmobility  co2emission  ETV
vector 50662  IntersectionExampleScenario.node[39].veinsmobility  posx  ETV
vector 50663  IntersectionExampleScenario.node[39].veinsmobility  posy  ETV
vector 50669  IntersectionExampleScenario.node[40].veinsmobility  posx  ETV
vector 50670  IntersectionExampleScenario.node[40].veinsmobility  posy  ETV
vector 50664  IntersectionExampleScenario.node[39].veinsmobility  speed  ETV
vector 50676  IntersectionExampleScenario.node[41].veinsmobility  posx  ETV
vector 50677  IntersectionExampleScenario.node[41].veinsmobility  posy  ETV
vector 50665  IntersectionExampleScenario.node[39].veinsmobility  acceleration  ETV
vector 50666  IntersectionExampleScenario.node[39].veinsmobility  co2emission  ETV
vector 50671  IntersectionExampleScenario.node[40].veinsmobility  speed  ETV
vector 50672  IntersectionExampleScenario.node[40].veinsmobility  acceleration  ETV
vector 50673  IntersectionExampleScenario.node[40].veinsmobility  co2emission  ETV
vector 50678  IntersectionExampleScenario.node[41].veinsmobility  speed  ETV
vector 50679  IntersectionExampleScenario.node[41].veinsmobility  acceleration  ETV
vector 50680  IntersectionExampleScenario.node[41].veinsmobility  co2emission  ETV
vector 50683  IntersectionExampleScenario.node[42].veinsmobility  posx  ETV
vector 50684  IntersectionExampleScenario.node[42].veinsmobility  posy  ETV
vector 50685  IntersectionExampleScenario.node[42].veinsmobility  speed  ETV
50491	362018 6344 2601 9278 49 101.75 212 0.973 12.099024792222 588.56387278044 3194.5902909953
50490	368362 6665 2601 9278 49 101.75 212 -3.7061879634857 2.5000004768372 41.227170944214 357.37479816862
50489	375027 6878 2578 9278 48.75 101.75 213 0 16.27499961853 2220.1331758369 30937.089540021
50488	381905 7071 2555 9278 48.5 101.75 214 483.14999389648 483.14999389648 103394.09869385 49954858.152865
50487	388976 7033 2555 9278 48.5 101.75 214 184.17810058594 734.22232055664 96332.742172241 47408876.701092
50477	396009 7144 1840 9278 40.75 101.75 245 0.973 11.200708441096 592.37045879132 2687.6583468201
50476	403153 6336 1840 9278 40.75 101.75 245 -8.6544361114502 4 35.795072555542 473.04944408425
50475	409489 6783 1817 9278 40.5 101.75 246 0 15.02499961853 2171.2275187969 29467.158472319
50474	416272 8097 1794 9278 40.25 101.75 247 238.08221435547 483.14999389648 110897.28796387 50877906.698396
50473	424369 8142 1794 9278 40.25 101.75 247 184.17810058594 483.36395263672 104179.15213013 46012981.62285
vector 50686  IntersectionExampleScenario.node[42].veinsmobility  acceleration  ETV
vector 50687  IntersectionExampleScenario.node[42].veinsmobility  co2emission  ETV
50519	432680 5408 3846 9959 62.5 105.25 172 0.973 11.200708441096 501.60685246799 2530.1717889694
50518	438088 5237 3846 9959 62.5 105.25 172 -2.0517387390137 2.5 35.964826583862 230.17618741118
50517	443325 5525 3819 9959 62.25 105.25 173 5.6500000953674 15.02499961853 2215.8687901497 29529.583504307
50516	448850 5763 3792 9959 62 105.25 174 483.14999389648 483.14999389648 84068.098937988 40617501.488778
50515	454613 5728 3792 9959 62 105.25 174 184.17810058594 733.20796203613 77917.747833252 39162522.829122
vector 50690  IntersectionExampleScenario.node[43].veinsmobility  posx  ETV
vector 50691  IntersectionExampleScenario.node[43].veinsmobility  posy  ETV
vector 50692  IntersectionExampleScenario.node[43].veinsmobility  speed  ETV
vector 50693  IntersectionExampleScenario.node[43].veinsmobility  acceleration  ETV
vector 50694  IntersectionExampleScenario.node[43].veinsmobility  co2emission  ETV
vector 50697  IntersectionExampleScenario.node[44].veinsmobility  posx  ETV
vector 50698  IntersectionExampleScenario.node[44].veinsmobility  posy  ETV
vector 50704  IntersectionExampleScenario.node[45].veinsmobility  posx  ETV
vector 50705  IntersectionExampleScenario.node[45].veinsmobility  posy  ETV
vector 50699  IntersectionExampleScenario.node[44].veinsmobility  speed  ETV
vector 50700  IntersectionExampleScenario.node[44].veinsmobility  acceleration  ETV
vector 50701  IntersectionExampleScenario.node[44].veinsmobility  co2emission  ETV
vector 50706  IntersectionExampleScenario.node[45].veinsmobility  speed  ETV
vector 50707  IntersectionExampleScenario.node[45].veinsmobility  acceleration  ETV
vector 50708  IntersectionExampleScenario.node[45].veinsmobility  co2emission  ETV
50463	461544 8109 1583 10909 37.75 110 290 0.973 11.200708441096 643.69298900556 2869.925442891
50462	469653 7710 1583 10909 37.75 110 290 -9.4468765258789 4 35.625318527222 548.86562303971
50461	477363 8022 1562 10909 37.5 110 291 0 15.02499961853 2185.2782721519 27452.739095131
50460	485385 9686 1541 10909 37.25 110 292 486.63604736328 785.82187652588 158895.72177887 88603481.202805
50459	495071 9625 1541 10909 37.25 110 292 234.9931640625 483.14999389648 132405.48583984 61213004.268753
50470	504696 8728 1647 11062 38.5 110.75 290 0.973 11.423249024451 689.81719782919 3033.6267709201
50469	513424 8544 1647 11062 38.5 110.75 290 -4.5 2.5 38.341367721558 521.26988260582
50468	521968 8665 1626 11062 38.25 110.75 291 0 15.336415290833 2306.6129319314 29964.78557959
50467	530633 9677 1604 11062 38 110.75 292 483.13436889648 808.82032012939 161282.26357269 91622070.905584
50466	540310 9697 1604 11062 38 110.75 292 483.14999389648 734.93614196777 149610.29873657 77836258.262972
vector 50711  IntersectionExampleScenario.node[46].veinsmobility  posx  ETV
vector 50712  IntersectionExampleScenario.node[46].veinsmobility  posy  ETV
vector 50713  IntersectionExampleScenario.node[46].veinsmobility  speed  ETV
vector 50714  IntersectionExampleScenario.node[46].veinsmobility  acceleration  ETV
vector 50715  IntersectionExampleScenario.node[46].veinsmobility  co2emission  ETV
50498	550408 7313 2986 11626 53.5 113.5 241 0.973 11.648172402475 596.91197659719 2914.8678746487
50497	557721 7629 2986 11626 53.5 113.5 241 -3.9801018238068 2.5000002384186 38.001859664917 339.13992334946
50496	565350 7735 2963 11626 53.25 113.5 242 0 15.64999961853 2211.8914245125 29022.331865689
50495	573085 8087 2940 11626 53 113.5 243 483.12338256836 785.82187652588 134600.04901886 76503850.98747
50494	581172 8098 2940 11626 53 113.5 243 483.14999389648 734.32481384277 125933.8658905 66393026.753632
vector 50718  IntersectionExampleScenario.node[47].veinsmobility  posx  ETV
vector 50719  IntersectionExampleScenario.node[47].veinsmobility  posy  ETV
vector 50720  IntersectionExampleScenario.node[47].veinsmobility  speed  ETV
vector 50721  IntersectionExampleScenario.node[47].veinsmobility  acceleration  ETV
vector 50722  IntersectionExampleScenario.node[47].veinsmobility  co2emission  ETV
vector 50725  IntersectionExampleScenario.node[48].veinsmobility  posx  ETV
vector 50726  IntersectionExampleScenario.node[48].veinsmobility  posy  ETV
50505	589825 6821 3565 12229 59.75 116.5 228 0.973 11.450879080643 586.85708734256 2819.6513746243
50504	596646 6241 3565 12229 59.75 116.5 228 -6.7711477279663 4 36.98334312439 452.58212473492
50503	602887 6566 3540 12229 59.5 116.5 229 0 15.375 2197.6686828136 30446.01081592
50502	609453 7701 3515 12229 59.25 116.5 230 237.87945556641 486.85000610352 103463.61248779 47640505.793295
50501	617154 7695 3515 12229 59.25 116.5 230 483.14999389648 785.82187652588 126554.91336823 71685941.586611
vector 50727  IntersectionExampleScenario.node[48].veinsmobility  speed  ETV
vector 50728  IntersectionExampleScenario.node[48].veinsmobility  acceleration  ETV
vector 50729  IntersectionExampleScenario.node[48].veinsmobility  co2emission  ETV
50540	625096 6184 4378 12538 67.5 118 203 0.973 11.200708441096 538.12431234894 2630.1448654525
50539	631280 6486 4378 12538 67.5 118 203 -2.1101493835449 2.5000009536743 35.795072555542 294.08518142648
50538	637766 6718 4349 12538 67.25 118 204 0.95727372169495 15.02499961853 2218.5759766102 28784.916469755
50537	644484 6887 4320 12538 67 118 205 486.85000610352 486.85000610352 99804.251251221 48589700.330813
50536	651371 6859 4320 12538 67 118 205 235.69122314453 785.82187652588 106531.59372711 59664640.493219
vector 50732  IntersectionExampleScenario.node[49].veinsmobility  posx  ETV
vector 50733  IntersectionExampleScenario.node[49].veinsmobility  posy  ETV
vector 50734  IntersectionExampleScenario.node[49].veinsmobility  speed  ETV
vector 50735  IntersectionExampleScenario.node[49].veinsmobility  acceleration  ETV
vector 50736  IntersectionExampleScenario.node[49].veinsmobility  co2emission  ETV
50582	658631 4940 6021 12900 81.5 119.75 154 0.973 12.553400930962 591.87296961931 3920.9759301151
50581	663571 4698 6021 12900 81.5 119.75 154 -3.3195571899414 2.5 43.943227767944 360.57083390325
50580	668269 4964 5986 12900 81.25 119.75 155 5.6500000953674 16.89999961853 2197.1996526718 32494.291328639
50579	673233 5282 5951 12900 81 119.75 156 239.45654296875 486.85000610352 68316.731170654 30794523.216737
50578	678515 5257 5951 12900 81 119.75 156 483.12109375 785.82187652588 89337.454566956 52866734.952335
vector 50739  IntersectionExampleScenario.node[50].veinsmobility  posx  ETV
vector 50740  IntersectionExampleScenario.node[50].veinsmobility  posy  ETV
vector 50741  IntersectionExampleScenario.node[50].veinsmobility  speed  ETV
vector 50742  IntersectionExampleScenario.node[50].veinsmobility  acceleration  ETV
vector 50743  IntersectionExampleScenario.node[50].veinsmobility  co2emission  ETV
50526	684173 7210 3982 13908 63.75 124.75 245 0.973 12.099024792222 633.44792849179 3276.9638015315
50525	691383 6640 3982 13908 63.75 124.75 245 -7.3357272148132 4 40.038900375366 546.24187922876
50524	698023 6860 3955 13908 63.5 124.75 246 0 16.27499961853 2206.082613349 32215.61715215
50523	704883 8304 3927 13908 63.25 124.75 247 184.17810058594 731.70051574707 112776.92962646 55550042.215745
50522	713187 8331 3927 13908 63.25 124.75 247 486.85000610352 486.85000610352 120251.95150757 58544663.325419
50547	721518 7582 4440 14500 68 127.75 240 0.973 11.200708441096 597.67061711845 2808.7317686821
50546	729100 7926 4440 14500 68 127.75 240 -3.7117624282837 2.5 37.15309715271 347.08307406384
50545	737026 8020 4409 14500 67.75 127.75 241 0 15.458456993103 2236.6955907345 30143.783034363
50544	745046 8137 4378 14500 67.5 127.75 242 179.81719970703 734.34146118164 109419.13067627 53813918.14682
50543	753183 8189 4378 14500 67.5 127.75 242 486.85000610352 486.85000610352 117817.70147705 57359548.683204
vector 50746  IntersectionExampleScenario.node[51].veinsmobility  posx  ETV
vector 50747  IntersectionExampleScenario.node[51].veinsmobility  posy  ETV
vector 50753  IntersectionExampleScenario.node[52].veinsmobility  posx  ETV
vector 50754  IntersectionExampleScenario.node[52].veinsmobility  posy  ETV
vector 50748  IntersectionExampleScenario.node[51].veinsmobility  speed  ETV
vector 50749  IntersectionExampleScenario.node[51].veinsmobility  acceleration  ETV
vector 50750  IntersectionExampleScenario.node[51].veinsmobility  co2emission  ETV
vector 50755  IntersectionExampleScenario.node[52].veinsmobility  speed  ETV
vector 50756  IntersectionExampleScenario.node[52].veinsmobility  acceleration  ETV
vector 50757  IntersectionExampleScenario.node[52].veinsmobility  co2emission  ETV
50554	762174 7349 4782 14851 71 129.5 235 0.973 11.90022389248 615.10750068215 3017.247062788
50553	769523 7655 4782 14851 71 129.5 235 -4.5 2.5000004768372 39.699392318726 386.91726020647
50552	777178 7734 4753 14851 70.75 129.5 236 0 16 2263.6235329583 30082.123783232
50551	784912 8003 4724 14851 70.5 129.5 237 169.22265625 486.87301635742 96967.937835693 41838393.868705
50550	792915 8036 4724 14851 70.5 129.5 237 237.64495849609 486.85000610352 107205.21221924 49568711.281615
vector 50760  IntersectionExampleScenario.node[53].veinsmobility  posx  ETV
vector 50761  IntersectionExampleScenario.node[53].veinsmobility  posy  ETV
vector 50762  IntersectionExampleScenario.node[53].veinsmobility  speed  ETV
vector 50763  IntersectionExampleScenario.node[53].veinsmobility  acceleration  ETV
vector 50764  IntersectionExampleScenario.node[53].veinsmobility  co2emission  ETV
50603	801352 6177 6594 15632 85.5 133.5 193 0.973 11.200708441096 544.3396396217 2660.5546962882
50602	807529 5717 6594 15632 85.5 133.5 193 -8.8170804977417 4 36.134572982788 469.56262659359
50601	813246 6047 6553 15632 85.25 133.5 194 0 15.02499961853 2182.5420880318 29862.752592365
50600	819293 6674 6514 15632 85 133.5 195 483.14999389648 733.58811950684 102944.38064575 55414557.314792
50599	825967 6656 6514 15632 85 133.5 195 184.17810058594 486.85000610352 79933.460357666 34709486.564598
50638	832623 5344 8082 16054 95 135.75 164 0.973 11.200708441096 502.77084844116 2607.4319901714
50637	837967 5309 8082 16054 95 135.75 164 -2.4540214538574 2.5000019073486 38.511121749878 257.54478049525
50636	843276 5460 8041 16054 94.75 135.75 165 4.9339547157288 15.317008018494 2071.9864635468 27955.929239329
50635	848736 5741 8000 16054 94.5 135.75 166 483.14999389648 732.51760864258 88556.002304077 48208128.162228
50634	854477 5731 8000 16054 94.5 135.75 166 217.29217529297 486.85000610352 68672.943481445 29745780.748452
50624	860208 6092 7724 16639 92.75 139 186 0.973 11.36141391502 619.87656867036 3479.3388817988
50623	866300 5739 7724 16639 92.75 139 186 -4.5 2.5000019073486 38.171613693237 576.19726534572
50622	872039 6150 7684 16639 92.5 139 187 4.477578163147 15.612023353577 2185.6281738281 28161.130903236
50621	878189 6485 7643 16639 92.25 139 188 236.267578125 483.14999389648 82577.254943848 37262170.269983
50620	884674 6473 7643 16639 92.25 139 188 184.17810058594 483.24020385742 73537.067016602 30797513.447307
50512	891147 9069 3692 16900 61 140.5 319 0.973 11.648172402475 739.23524467313 3440.106005635
50511	900216 9000 3692 16900 61 140.5 319 -26.352722167969 4 42.585195541382 1195.2381749441
50510	909216 9173 3667 16900 60.75 140.5 320 0 16.354887008667 2219.5625342652 29713.611123308
50509	918389 10884 3641 16900 60.5 140.5 321 235.55255126953 785.82187652588 165977.86438751 89909952.896405
50508	929273 10897 3641 16900 60.5 140.5 321 483.14999389648 483.14999389648 155091.14804077 74932287.229297
vector 50767  IntersectionExampleScenario.node[54].veinsmobility  posx  ETV
vector 50768  IntersectionExampleScenario.node[54].veinsmobility  posy  ETV
vector 50774  IntersectionExampleScenario.node[55].veinsmobility  posx  ETV
vector 50775  IntersectionExampleScenario.node[55].veinsmobility  posy  ETV
vector 50769  IntersectionExampleScenario.node[54].veinsmobility  speed  ETV
vector 50776  IntersectionExampleScenario.node[55].veinsmobility  speed  ETV
vector 50781  IntersectionExampleScenario.node[56].veinsmobility  posx  ETV
vector 50782  IntersectionExampleScenario.node[56].veinsmobility  posy  ETV
vector 50770  IntersectionExampleScenario.node[54].veinsmobility  acceleration  ETV
vector 50771  IntersectionExampleScenario.node[54].veinsmobility  co2emission  ETV
vector 50777  IntersectionExampleScenario.node[55].veinsmobility  acceleration  ETV
vector 50778  IntersectionExampleScenario.node[55].veinsmobility  co2emission  ETV
vector 50783  IntersectionExampleScenario.node[56].veinsmobility  speed  ETV
vector 50784  IntersectionExampleScenario.node[56].veinsmobility  acceleration  ETV
vector 50785  IntersectionExampleScenario.node[56].veinsmobility  co2emission  ETV
50533	941373 9280 4349 17344 67.25 143 304 0.973 11.990504229548 684.96689916927 3224.3047678876
50532	950653 9758 4349 17344 67.25 143 304 -3.9981112480164 2.5 39.699392318726 489.30948858648
50531	960411 9763 4320 17344 67 143 305 0 16.125 2207.6928994814 29254.778790387
50530	970174 10400 4293 17344 66.75 143 306 238.76861572266 785.82187652588 158717.77321625 86414930.194648
50529	980574 10421 4293 17344 66.75 143 306 483.14999389648 483.14999389648 147843.89813232 71430778.480265
vector 50788  IntersectionExampleScenario.node[57].veinsmobility  posx  ETV
vector 50789  IntersectionExampleScenario.node[57].veinsmobility  posy  ETV
vector 50790  IntersectionExampleScenario.node[57].veinsmobility  speed  ETV
vector 50791  IntersectionExampleScenario.node[57].veinsmobility  acceleration  ETV
vector 50792  IntersectionExampleScenario.node[57].veinsmobility  co2emission  ETV
vector 50795  IntersectionExampleScenario.node[58].veinsmobility  posx  ETV
vector 50796  IntersectionExampleScenario.node[58].veinsmobility  posy  ETV
vector 50797  IntersectionExampleScenario.node[58].veinsmobility  speed  ETV
vector 50798  IntersectionExampleScenario.node[58].veinsmobility  acceleration  ETV
vector 50799  IntersectionExampleScenario.node[58].veinsmobility  co2emission  ETV
50561	991797 9216 5034 17856 73.25 145.75 291 0.93438186594183 12.26218747632 675.36920543652 3281.8047838127
50560	1001013 9630 5034 17856 73.25 145.75 291 -4.0083312988281 2.5000004768372 41.057416915894 431.732245979
50559	1010643 9609 5005 17856 73 145.75 292 0 16.5 2190.7142733652 29265.60277775
50558	1020252 9984 4976 17856 72.75 145.75 293 486.85000610352 785.82187652588 160641.92894745 90016048.576715
50557	1030236 10008 4976 17856 72.75 145.75 293 235.57641601562 483.14999389648 133635.36959839 62039446.669655
vector 50802  IntersectionExampleScenario.node[59].veinsmobility  posx  ETV
vector 50803  IntersectionExampleScenario.node[59].veinsmobility  posy  ETV
vector 50809  IntersectionExampleScenario.node[60].veinsmobility  posx  ETV
vector 50810  IntersectionExampleScenario.node[60].veinsmobility  posy  ETV
vector 50804  IntersectionExampleScenario.node[59].veinsmobility  speed  ETV
vector 50805  IntersectionExampleScenario.node[59].veinsmobility  acceleration  ETV
vector 50806  IntersectionExampleScenario.node[59].veinsmobility  co2emission  ETV
vector 50811  IntersectionExampleScenario.node[60].veinsmobility  speed  ETV
vector 50812  IntersectionExampleScenario.node[60].veinsmobility  acceleration  ETV
vector 50813  IntersectionExampleScenario.node[60].veinsmobility  co2emission  ETV
vector 50816  IntersectionExampleScenario.node[61].veinsmobility  posx  ETV
vector 50817  IntersectionExampleScenario.node[61].veinsmobility  posy  ETV
50645	1041200 6805 8373 18426 96.75 148.75 209 0.973 11.990504229548 594.63224094206 3040.5376621721
50644	1048005 6958 8373 18426 96.75 148.75 209 -3.849536895752 2.5000002384186 41.057416915894 389.76961709094
50643	1054963 7133 8330 18426 96.5 148.75 210 0 16.125 2218.8998625241 31681.385508172
50642	1062096 7335 8287 18426 96.25 148.75 211 486.85000610352 486.85000610352 102725.35128784 50011837.901471
50641	1069431 7314 8287 18426 96.25 148.75 211 235.96850585938 785.82187652588 109434.39546967 60817637.947159
vector 50818  IntersectionExampleScenario.node[61].veinsmobility  speed  ETV
50617	1076823 7264 7409 18475 90.75 149 234 0.973 11.200708441096 581.37722153575 2675.2265613284
50616	1084087 6574 7409 18475 90.75 149 234 -6.8640689849854 4 35.625318527222 445.86479464531
50615	1090661 6966 7370 18475 90.5 149 235 0 15.02499961853 2184.6829628944 29567.904340929
50614	1097627 8094 7331 18475 90.25 149 236 486.85000610352 735.00680541992 123570.91366577 65815877.548997
50613	1105721 8154 7331 18475 90.25 149 236 486.63604736328 785.82187652588 129940.54029083 73590946.695969
vector 50823  IntersectionExampleScenario.node[62].veinsmobility  posx  ETV
vector 50824  IntersectionExampleScenario.node[62].veinsmobility  posy  ETV
vector 50819  IntersectionExampleScenario.node[61].veinsmobility  acceleration  ETV
vector 50820  IntersectionExampleScenario.node[61].veinsmobility  co2emission  ETV
vector 50825  IntersectionExampleScenario.node[62].veinsmobility  speed  ETV
vector 50826  IntersectionExampleScenario.node[62].veinsmobility  acceleration  ETV
vector 50827  IntersectionExampleScenario.node[62].veinsmobility  co2emission  ETV
vector 50830  IntersectionExampleScenario.node[63].veinsmobility  posx  ETV
vector 50831  IntersectionExampleScenario.node[63].veinsmobility  posy  ETV
vector 50832  IntersectionExampleScenario.node[63].veinsmobility  speed  ETV
vector 50833  IntersectionExampleScenario.node[63].veinsmobility  acceleration  ETV
vector 50834  IntersectionExampleScenario.node[63].veinsmobility  co2emission  ETV
50701	1114846 5830 10596 19175 108.5 152.5 177 0.973 11.200708441096 547.86495775084 2903.8977645426
50700	1120676 5487 10596 19175 108.5 152.5 177 -3.1693000793457 2.5 37.32285118103 331.07489601092
50699	1126163 5923 10543 19175 108.25 152.5 178 5.4044661521912 15.02499961853 2190.994395256 28941.79411821
50698	1132086 6254 10492 19175 108 152.5 179 486.85000610352 734.42663574219 95560.481430054 52003757.778134
50697	1138340 6251 10492 19175 108 152.5 179 486.75875854492 785.82187652588 101988.5825119 59889329.61764
50729	1144591 5114 12334 19616 117 154.75 152 0.973 11.990504229548 503.6808689806 2975.0007316229
50728	1149705 4964 12334 19616 117 154.75 152 -3.3292503356934 2.5 39.869146347046 235.14872856709
50727	1154669 5097 12282 19616 116.75 154.75 153 5.6500000953674 16.125 2211.6165714264 32676.760934672
50726	1159766 5391 12229 19616 116.5 154.75 154 486.85000610352 486.85000610352 74974.900939941 36501530.980221
50725	1165157 5377 12229 19616 116.5 154.75 154 238.21783447266 785.82187652588 80614.709037781 46249999.333863
vector 50837  IntersectionExampleScenario.node[64].veinsmobility  posx  ETV
vector 50838  IntersectionExampleScenario.node[64].veinsmobility  posy  ETV
vector 50839  IntersectionExampleScenario.node[64].veinsmobility  speed  ETV
vector 50840  IntersectionExampleScenario.node[64].veinsmobility  acceleration  ETV
vector 50841  IntersectionExampleScenario.node[64].veinsmobility  co2emission  ETV
50575	1170935 8853 5951 20103 81 157.25 306 0.973 11.648172402475 678.44066958271 3150.0777437417
50574	1179788 8622 5951 20103 81 157.25 306 -20.660530090332 4 38.171613693237 891.08561644476
50573	1188410 8913 5918 20103 80.75 157.25 307 0 15.64999961853 2178.3077299893 28120.328050259
50572	1197323 10577 5885 20103 80.5 157.25 308 184.17810058594 483.36395263672 131680.46276855 58405794.923593
50571	1207900 10532 5885 20103 80.5 157.25 308 486.85000610352 732.53002929688 158118.58836365 82290611.884633
50596	1218432 9291 6594 20339 85.5 158.5 293 0.973 11.648172402475 673.63817481171 3076.6374026775
50595	1227723 9256 6594 20339 85.5 158.5 293 -4.5 2.5 38.341367721558 571.81530810814
50594	1236979 9408 6553 20339 85.25 158.5 294 0 15.64999961853 2110.2433255604 27568.017087641
50593	1246387 10143 6514 20339 85 158.5 295 207.19921875 486.86557006836 127056.11566162 56378120.029348
50592	1256530 10176 6514 20339 85 158.5 295 238.44836425781 486.85000610352 135320.01818848 63213133.610376
vector 50844  IntersectionExampleScenario.node[65].veinsmobility  posx  ETV
vector 50845  IntersectionExampleScenario.node[65].veinsmobility  posy  ETV
vector 50846  IntersectionExampleScenario.node[65].veinsmobility  speed  ETV
vector 50847  IntersectionExampleScenario.node[65].veinsmobility  acceleration  ETV
vector 50848  IntersectionExampleScenario.node[65].veinsmobility  co2emission  ETV
50589	1267107 9845 6479 20800 84.75 161 306 0.973 11.54047740176 673.84415546621 2877.3188675248
50588	1276952 10161 6479 20800 84.75 161 306 -4.5 2.5 36.98334312439 439.11391197131
50587	1287113 10311 6443 20800 84.5 161 307 -0.2562255859375 15.5 2246.363381803 28701.446189919
50586	1297424 10605 6406 20800 84.25 161 308 176.21716308594 732.92752075195 136565.87646484 65168035.5597
50585	1308029 10632 6406 20800 84.25 161 308 486.85000610352 486.85000610352 149949.80187988 73003061.960442
vector 50851  IntersectionExampleScenario.node[66].veinsmobility  posx  ETV
vector 50852  IntersectionExampleScenario.node[66].veinsmobility  posy  ETV
vector 50853  IntersectionExampleScenario.node[66].veinsmobility  speed  ETV
50610	1318893 10037 6635 21225 85.75 163.25 311 0.973 11.54047740176 707.69197536718 3039.3308221864
50609	1328930 10178 6635 21225 85.75 163.25 311 -6.5238094329834 2.5000000596046 38.341367721558 573.48188192311
50608	1339108 10382 6594 21225 85.5 163.25 312 -0.28430622816086 15.58797454834 2329.6863869466 30457.033185257
50607	1349490 10774 6553 21225 85.25 163.25 313 157.95837402344 734.85787963867 136498.68022156 64525278.718935
50606	1360264 10816 6553 21225 85.25 163.25 313 486.85000610352 486.85003662109 152384.05194092 74188176.632372
vector 50854  IntersectionExampleScenario.node[66].veinsmobility  acceleration  ETV
vector 50855  IntersectionExampleScenario.node[66].veinsmobility  co2emission  ETV
vector 50858  IntersectionExampleScenario.node[67].veinsmobility  posx  ETV
vector 50859  IntersectionExampleScenario.node[67].veinsmobility  posy  ETV
vector 50860  IntersectionExampleScenario.node[67].veinsmobility  speed  ETV
vector 50861  IntersectionExampleScenario.node[67].veinsmobility  acceleration  ETV
vector 50862  IntersectionExampleScenario.node[67].veinsmobility  co2emission  ETV
vector 50865  IntersectionExampleScenario.node[68].veinsmobility  posx  ETV
vector 50866  IntersectionExampleScenario.node[68].veinsmobility  posy  ETV
vector 50867  IntersectionExampleScenario.node[68].veinsmobility  speed  ETV
50631	1371882 8544 8000 21623 94.5 165.25 284 0.973 11.810082123732 690.12523368412 3286.9989498599
50630	1380426 8213 8000 21623 94.5 165.25 284 -23.744411468506 4 38.680875778198 1022.2100991771
50629	1388639 8261 7960 21623 94.25 165.25 285 0 15.875 2261.882267952 29520.40396092
50628	1396900 9869 7919 21623 94 165.25 286 235.25335693359 483.14999389648 129940.84759521 60157804.270632
50627	1406769 9917 7919 21623 94 165.25 286 164.94219970703 483.36395263672 119012.66671753 52214477.489184
vector 50868  IntersectionExampleScenario.node[68].veinsmobility  acceleration  ETV
vector 50869  IntersectionExampleScenario.node[68].veinsmobility  co2emission  ETV
50673	1416855 7889 9083 21721 100.75 165.75 261 0.973 11.990504229548 665.42556819159 3314.2530550312
50672	1424744 7364 9083 21721 100.75 165.75 261 -4.5 2.5 40.887662887573 524.46065155894
50671	1432108 7655 9034 21721 100.5 165.75 262 0 16.125 2149.1510364413 29139.447625136
50670	1439763 9186 8986 21721 100.25 165.75 263 483.14999389648 483.14999389648 127068.44839478 61393120.066371
50669	1448949 9158 8986 21721 100.25 165.75 263 202.220703125 735.02973937988 120421.85061646 58883186.644886
50652	1458107 9178 8585 22300 98 168.75 284 0.973 11.810082123732 723.12454140415 3611.6909034291
50651	1467285 9264 8585 22300 98 168.75 284 -4.5 2.5 39.699392318726 607.41638350544
50650	1476549 9484 8542 22300 97.75 168.75 285 0 15.875 2272.6264619492 28929.551386176
50649	1486033 9956 8499 22300 97.5 168.75 286 236.14288330078 483.14999389648 130121.37832642 60296842.93893
50648	1495989 9945 8499 22300 97.5 168.75 286 162.38354492188 483.14999389648 116795.62081909 50430107.979842
50666	1505934 9386 9034 22849 100.5 171.75 286 0.973 11.00486315618 650.08139959051 2696.4664759991
50665	1515320 9547 9034 22849 100.5 171.75 286 -4.5 2.5 35.964826583862 408.83747389377
50664	1524867 9727 8986 22849 100.25 171.75 287 0 15.021779060364 2320.6293179523 28694.609708145
50663	1534594 10046 8939 22849 100 171.75 288 483.14999389648 735.23129272461 148023.03276062 77297602.000642
50662	1544640 10033 8939 22849 100 171.75 288 157.68707275391 486.85000610352 117170.35855103 50430940.473383
50568	1554673 11258 5792 23071 79.75 173 374 0.96333723109819 12.099024792222 789.73796067382 3628.5348350863
50567	1565931 11168 5792 23071 79.75 173 374 -6.4731636047363 4 40.208654403687 616.9165173409
50566	1577099 11325 5761 23071 79.5 173 375 0 16.27499961853 2211.8029870111 29081.642294924
50565	1588424 12941 5730 23071 79.25 173 376 483.14999389648 785.82187652588 202228.21555328 110901042.3402
50564	1601365 12967 5730 23071 79.25 173 376 483.14999389648 735.19940185547 189962.41107178 97182348.394686
50708	1614332 8580 10649 23541 108.75 175.75 269 0.973 11.450879080643 658.85871196816 3166.8757871001
50707	1622912 8571 10649 23541 108.75 175.75 269 -4.5 2.5 37.32285118103 445.1629053769
50706	1631483 8702 10596 23541 108.5 175.75 270 0 15.375 2204.0808245568 29125.785017271
50705	1640185 9458 10543 23541 108.25 175.75 271 482.95959472656 785.82187652588 148137.75728607 83052118.417005
50704	1649643 9480 10543 23541 108.25 175.75 271 483.14999389648 732.72654724121 139447.47314453 72903567.951905
vector 50872  IntersectionExampleScenario.node[69].veinsmobility  posx  ETV
vector 50873  IntersectionExampleScenario.node[69].veinsmobility  posy  ETV
vector 50874  IntersectionExampleScenario.node[69].veinsmobility  speed  ETV
vector 50875  IntersectionExampleScenario.node[69].veinsmobility  acceleration  ETV
vector 50876  IntersectionExampleScenario.node[69].veinsmobility  co2emission  ETV
vector 50879  IntersectionExampleScenario.node[70].veinsmobility  posx  ETV
vector 50880  IntersectionExampleScenario.node[70].veinsmobility  posy  ETV
vector 50886  IntersectionExampleScenario.node[71].veinsmobility  posx  ETV
vector 50887  IntersectionExampleScenario.node[71].veinsmobility  posy  ETV
vector 50881  IntersectionExampleScenario.node[70].veinsmobility  speed  ETV
vector 50882  IntersectionExampleScenario.node[70].veinsmobility  acceleration  ETV
vector 50883  IntersectionExampleScenario.node[70].veinsmobility  co2emission  ETV
vector 50888  IntersectionExampleScenario.node[71].veinsmobility  speed  ETV
vector 50889  IntersectionExampleScenario.node[71].veinsmobility  acceleration  ETV
vector 50890  IntersectionExampleScenario.node[71].veinsmobility  co2emission  ETV
50736	1660326 7568 12848 24267 119.5 180 243 0.973 11.648172402475 620.64714202606 3023.460321636
50735	1667894 6993 12848 24267 119.5 180 243 -6.8214988708496 4 38.850629806519 472.71424608129
50734	1674887 7251 12795 24267 119.25 180 244 0 15.64999961853 2266.6753158569 32421.043638284
50733	1682138 8573 12742 24267 119 180 245 486.85000610352 486.85000610352 119278.25149536 58070617.468533
50732	1690711 8558 12742 24267 119 180 245 238.74694824219 801.41563415527 127180.72736359 70495810.013787
vector 50893  IntersectionExampleScenario.node[72].veinsmobility  posx  ETV
vector 50894  IntersectionExampleScenario.node[72].veinsmobility  posy  ETV
vector 50895  IntersectionExampleScenario.node[72].veinsmobility  speed  ETV
vector 50896  IntersectionExampleScenario.node[72].veinsmobility  acceleration  ETV
vector 50897  IntersectionExampleScenario.node[72].veinsmobility  co2emission  ETV
50743	1699670 7622 13857 24739 124.5 182.75 234 0.973 10.916047529558 565.34233085881 2520.2414858934
50742	1707292 7746 13857 24739 124.5 182.75 234 -3.906674861908 2.5000004768372 34.437047958374 327.042755761
50741	1715038 7937 13806 24739 124.25 182.75 235 0 14.625 2214.016288558 28393.274913936
50740	1722975 8254 13755 24739 124 182.75 236 486.85000610352 734.49908447266 123699.38967896 65960847.141042
50739	1731229 8228 13755 24739 124 182.75 236 486.85000610352 792.1668548584 131389.07149506 75255883.054614
50750	1739457 7110 14647 24824 128.5 183.25 220 0.973 11.54047740176 598.25891934989 2834.4404374877
50749	1746567 7253 14647 24824 128.5 183.25 220 -4.5 2.5 39.699392318726 398.4900152028
50748	1753820 7533 14596 24824 128.25 183.25 221 0 15.6432056427 2253.975495223 30102.440667836
50747	1761353 7769 14547 24824 128 183.25 222 486.85000610352 486.85000610352 108080.70135498 52619090.114344
50746	1769122 7746 14547 24824 128 183.25 222 236.66387939453 795.19436645508 116983.20275879 65977989.183074
vector 50900  IntersectionExampleScenario.node[73].veinsmobility  posx  ETV
vector 50901  IntersectionExampleScenario.node[73].veinsmobility  posy  ETV
vector 50907  IntersectionExampleScenario.node[74].veinsmobility  posx  ETV
vector 50908  IntersectionExampleScenario.node[74].veinsmobility  posy  ETV
vector 50902  IntersectionExampleScenario.node[73].veinsmobility  speed  ETV
vector 50909  IntersectionExampleScenario.node[74].veinsmobility  speed  ETV
vector 50914  IntersectionExampleScenario.node[75].veinsmobility  posx  ETV
vector 50915  IntersectionExampleScenario.node[75].veinsmobility  posy  ETV
vector 50903  IntersectionExampleScenario.node[73].veinsmobility  acceleration  ETV
vector 50904  IntersectionExampleScenario.node[73].veinsmobility  co2emission  ETV
vector 50910  IntersectionExampleScenario.node[74].veinsmobility  acceleration  ETV
vector 50911  IntersectionExampleScenario.node[74].veinsmobility  co2emission  ETV
vector 50916  IntersectionExampleScenario.node[75].veinsmobility  speed  ETV
vector 50917  IntersectionExampleScenario.node[75].veinsmobility  acceleration  ETV
vector 50918  IntersectionExampleScenario.node[75].veinsmobility  co2emission  ETV
vector 50921  IntersectionExampleScenario.node[76].veinsmobility  posx  ETV
vector 50922  IntersectionExampleScenario.node[76].veinsmobility  posy  ETV
vector 50923  IntersectionExampleScenario.node[76].veinsmobility  speed  ETV
vector 50924  IntersectionExampleScenario.node[76].veinsmobility  acceleration  ETV
vector 50925  IntersectionExampleScenario.node[76].veinsmobility  co2emission  ETV
50771	1778472 5944 17114 25408 141.75 186.5 180 0.973 10.756497587458 506.54501938449 2407.0086030744
50770	1784416 6011 17114 25408 141.75 186.5 180 -2.1277160644531 2.5 34.77654838562 235.53126819157
50769	1790427 6129 17069 25408 141.5 186.5 181 5.5755047798157 14.775398254395 2211.3845162392 28509.652480067
50768	1796556 6371 17024 25408 141.25 186.5 182 486.85000610352 486.85000610352 88606.70111084 43138172.976625
50767	1802927 6329 17024 25408 141.25 186.5 182 237.64929199219 785.82187652588 95202.39894104 54125618.225422
50659	1809256 11155 8804 26089 99.25 190.25 365 0.973 10.916047529558 741.09319499121 2929.6103391424
50658	1820411 11070 8804 26089 99.25 190.25 365 -6.8113965988159 4 34.437047958374 629.98801039609
50657	1831481 11213 8759 26089 99 190.25 366 0 14.625 2184.4956567585 26137.255359928
50656	1842694 12778 8714 26089 98.75 190.25 367 184.17810058594 483.36395263672 156592.74182129 68975447.479351
50655	1855472 12752 8714 26089 98.75 190.25 367 486.85000610352 734.64698791504 187489.90686035 97026266.656779
vector 50928  IntersectionExampleScenario.node[77].veinsmobility  posx  ETV
vector 50929  IntersectionExampleScenario.node[77].veinsmobility  posy  ETV
vector 50930  IntersectionExampleScenario.node[77].veinsmobility  speed  ETV
vector 50931  IntersectionExampleScenario.node[77].veinsmobility  acceleration  ETV
vector 50932  IntersectionExampleScenario.node[77].veinsmobility  co2emission  ETV
50687	1868625 11259 9327 26357 102 191.75 360 0.973 10.916047529558 762.21338138018 2979.7215714852
50686	1879884 11449 9327 26357 102 191.75 360 -4.5 2.5000002384186 39.699392318726 620.85300639383
50685	1891333 11382 9278 26357 101.75 191.75 361 0 15.624377250671 2244.0779665681 28432.605813142
50684	1902715 12616 9229 26357 101.5 191.75 362 169.95465087891 483.2112121582 152400.91488647 66476437.677699
50683	1915331 12647 9229 26357 101.5 191.75 362 486.84994506836 733.19578552246 184296.60427856 94961636.708876
vector 50935  IntersectionExampleScenario.node[78].veinsmobility  posx  ETV
vector 50936  IntersectionExampleScenario.node[78].veinsmobility  posy  ETV
vector 50937  IntersectionExampleScenario.node[78].veinsmobility  speed  ETV
50694	1928210 10814 10198 26575 106.5 193 347 0.973 11.990504229548 723.12953518534 3203.2659876671
50693	1939024 11121 10198 26575 106.5 193 347 -4.5 2.5 40.038900375366 448.10174148255
50692	1950145 11228 10149 26575 106.25 193 348 0 16.125 2251.7264221292 29268.287119736
50691	1961373 12158 10100 26575 106 193 349 174.484375 732.4733581543 153820.49346924 72129568.816783
50690	1973531 12213 10100 26575 106 193 349 486.84994506836 486.85000610352 169910.65185547 82721001.75917
vector 50938  IntersectionExampleScenario.node[78].veinsmobility  acceleration  ETV
vector 50939  IntersectionExampleScenario.node[78].veinsmobility  co2emission  ETV
50778	1985913 6957 17114 27155 141.75 196.25 219 0.973 11.450879080643 568.1804760433 2793.0461259829
50777	1992870 7248 17114 27155 141.75 196.25 219 -3.9781546592712 2.5000019073486 37.32285118103 330.16251535868
50776	2000118 7406 17069 27155 141.5 196.25 220 0 15.375 2206.7956635877 28354.451391034
50775	2007524 7702 17024 27155 141.25 196.25 221 184.17810058594 486.85000610352 90498.44354248 38946499.251927
50774	2015226 7724 17024 27155 141.25 196.25 221 237.31311035156 486.85000610352 99085.146697998 45512513.445373
vector 50942  IntersectionExampleScenario.node[79].veinsmobility  posx  ETV
vector 50943  IntersectionExampleScenario.node[79].veinsmobility  posy  ETV
vector 50944  IntersectionExampleScenario.node[79].veinsmobility  speed  ETV
vector 50945  IntersectionExampleScenario.node[79].veinsmobility  acceleration  ETV
vector 50946  IntersectionExampleScenario.node[79].veinsmobility  co2emission  ETV
50680	2023351 11955 9132 27420 101 197.75 388 0.973 11.36141391502 792.86060675577 2995.0603544224
50679	2035306 11986 9132 27420 101 197.75 388 -7.7231593132019 4 42.751795768738 629.00540683225
50678	2047292 12027 9083 27420 100.75 197.75 389 0 15.25 2326.8202643357 28012.732364187
50677	2059319 13566 9034 27420 100.5 197.75 390 236.32275390625 483.14999389648 179924.37835693 84218861.461798
50676	2072885 13604 9034 27420 100.5 197.75 390 147.06018066406 483.36395263672 161873.60513306 70648650.529753
vector 50949  IntersectionExampleScenario.node[80].veinsmobility  posx  ETV
vector 50950  IntersectionExampleScenario.node[80].veinsmobility  posy  ETV
vector 50951  IntersectionExampleScenario.node[80].veinsmobility  speed  ETV
vector 50952  IntersectionExampleScenario.node[80].veinsmobility  acceleration  ETV
vector 50953  IntersectionExampleScenario.node[80].veinsmobility  co2emission  ETV
50715	2086890 11230 11269 27812 111.75 200 354 0.973 10.916047529558 713.24607659244 2722.7129781413
50714	2098120 11864 11269 27812 111.75 200 354 -3.9119732379913 2.5 37.32285118103 394.57383125607
50713	2109984 11739 11217 27812 111.5 200 355 0 15.211082458496 2188.4870407982 26839.402319055
50712	2121723 12455 11164 27812 111.25 200 356 235.50970458984 483.14999389648 163591.66540527 76360394.613276
50711	2134178 12420 11164 27812 111.25 200 356 184.17810058594 483.14999389648 151067.82540894 66206173.059233
50722	2146598 10737 11974 28027 115.25 201.25 345 0.973 11.90022389248 720.2778980657 3031.7673433102
50721	2157335 11199 11974 28027 115.25 201.25 345 -4.5 2.5 39.869146347046 408.40872215327
50720	2168534 11240 11923 28027 115 201.25 346 0 16 2245.5597853363 28510.865240304
50719	2179774 12139 11872 28027 114.75 201.25 347 483.14999389648 732.76028442383 175836.9563446 90270123.200755
50718	2191913 12100 11872 28027 114.75 201.25 347 174.53436279297 487.06927490234 145396.18334961 63117625.32406
vector 50956  IntersectionExampleScenario.node[81].veinsmobility  posx  ETV
vector 50957  IntersectionExampleScenario.node[81].veinsmobility  posy  ETV
vector 50958  IntersectionExampleScenario.node[81].veinsmobility  speed  ETV
vector 50959  IntersectionExampleScenario.node[81].veinsmobility  acceleration  ETV
vector 50960  IntersectionExampleScenario.node[81].veinsmobility  co2emission  ETV
vector 50963  IntersectionExampleScenario.node[82].veinsmobility  posx  ETV
vector 50964  IntersectionExampleScenario.node[82].veinsmobility  posy  ETV
vector 50970  IntersectionExampleScenario.node[83].veinsmobility  posx  ETV
vector 50971  IntersectionExampleScenario.node[83].veinsmobility  posy  ETV
vector 50977  IntersectionExampleScenario.node[84].veinsmobility  posx  ETV
vector 50978  IntersectionExampleScenario.node[84].veinsmobility  posy  ETV
vector 50965  IntersectionExampleScenario.node[82].veinsmobility  speed  ETV
vector 50966  IntersectionExampleScenario.node[82].veinsmobility  acceleration  ETV
vector 50967  IntersectionExampleScenario.node[82].veinsmobility  co2emission  ETV
vector 50972  IntersectionExampleScenario.node[83].veinsmobility  speed  ETV
vector 50979  IntersectionExampleScenario.node[84].veinsmobility  speed  ETV
vector 50973  IntersectionExampleScenario.node[83].veinsmobility  acceleration  ETV
vector 50974  IntersectionExampleScenario.node[83].veinsmobility  co2emission  ETV
vector 50980  IntersectionExampleScenario.node[84].veinsmobility  acceleration  ETV
vector 50981  IntersectionExampleScenario.node[84].veinsmobility  co2emission  ETV
50757	2205617 9792 14698 28579 128.75 204.25 303 0.973 11.648172402475 672.47529885017 3047.6020782478
50756	2215409 10298 14698 28579 128.75 204.25 303 -4.1744709014893 2.5 37.662351608276 395.97207467662
50755	2225707 10308 14647 28579 128.5 204.25 304 0 15.64999961853 2180.7007520497 26639.245366095
50754	2236015 10666 14596 28579 128.25 204.25 305 237.91442871094 483.14999389648 139151.60464478 64602253.769854
50753	2246681 10635 14596 28579 128.25 204.25 305 184.17810058594 483.15844726562 126675.37762451 54525892.103988
50799	2257316 7616 17809 28974 145.5 206.25 244 0.973 11.648172402475 614.83789717622 2894.9780591483
50798	2264932 7177 17809 28974 145.5 206.25 244 -7.03919506073 4 38.341367721558 464.0315449506
50797	2272109 7445 17762 28974 145.25 206.25 245 0 15.64999961853 2219.2483875751 31111.899434087
50796	2279554 8599 17715 28974 145 206.25 246 235.16864013672 785.82187652588 126006.9536972 68751272.399772
50795	2288153 8609 17715 28974 145 206.25 246 483.14999389648 483.14999389648 118854.89849854 57424743.484134
50869	2296762 5493 21672 29163 165.5 207.25 168 0.973 12.553400930962 563.19649806113 3418.9951819128
50868	2302255 5790 21672 29163 165.5 207.25 168 -2.1848297119141 2.5 43.842809677124 300.04514541428
50867	2308045 5890 21623 29163 165.25 207.25 169 5.2338728904724 16.89999961853 2223.5316457748 31450.601626534
50866	2313935 5916 21573 29163 165 207.25 170 235.45239257812 785.82187652588 88658.278205872 50300092.122132
50865	2319851 5949 21573 29163 165 207.25 170 483.14999389648 483.14999389648 82135.498962402 39683765.822369
vector 50984  IntersectionExampleScenario.node[85].veinsmobility  posx  ETV
vector 50985  IntersectionExampleScenario.node[85].veinsmobility  posy  ETV
vector 50986  IntersectionExampleScenario.node[85].veinsmobility  speed  ETV
vector 50991  IntersectionExampleScenario.node[86].veinsmobility  posx  ETV
vector 50992  IntersectionExampleScenario.node[86].veinsmobility  posy  ETV
vector 50987  IntersectionExampleScenario.node[85].veinsmobility  acceleration  ETV
vector 50988  IntersectionExampleScenario.node[85].veinsmobility  co2emission  ETV
vector 50993  IntersectionExampleScenario.node[86].veinsmobility  speed  ETV
50792	2326433 8381 17528 30116 144 212.5 275 0.973 11.36141391502 659.83881863494 3021.5600357805
50791	2334814 7887 17528 30116 144 212.5 275 -30.976928710938 4 36.813589096069 1358.2134134965
50790	2342701 8057 17481 30116 143.75 212.5 276 0 15.25 2238.3287873268 29342.734245857
50789	2350758 9630 17434 30116 143.5 212.5 277 486.85000610352 732.10182189941 143167.81222534 75102923.693959
50788	2360388 9673 17434 30116 143.5 212.5 277 486.63604736328 802.70781707764 152409.03292847 86293021.912604
vector 50994  IntersectionExampleScenario.node[86].veinsmobility  acceleration  ETV
vector 50995  IntersectionExampleScenario.node[86].veinsmobility  co2emission  ETV
50834	2370230 7927 19125 30297 152.25 213.5 246 0.973 11.54047740176 614.11581951941 3037.7888258065
50833	2378157 8097 19125 30297 152.25 213.5 246 -4.5 2.5 37.15309715271 437.01690316947
50832	2386254 8130 19074 30297 152 213.5 247 0 15.5 2211.1158105778 30240.398642285
50831	2394384 8680 19023 30297 151.75 213.5 248 486.85000610352 486.85000610352 120738.80151367 58781686.253862
50830	2403064 8654 19023 30297 151.75 213.5 248 237.63775634766 785.82187652588 128054.78499603 70328732.938353
vector 50998  IntersectionExampleScenario.node[87].veinsmobility  posx  ETV
vector 50999  IntersectionExampleScenario.node[87].veinsmobility  posy  ETV
50848	2411872 7097 20800 30822 161 216.5 223 0.973 11.648172402475 582.08930841454 2929.8141555422
50847	2418969 7218 20800 30822 161 216.5 223 -3.7155129909515 2.5000004768372 38.341367721558 348.73132192002
50846	2426187 7493 20753 30822 160.75 216.5 224 0 15.64999961853 2187.507029051 28526.190755197
50845	2433680 7869 20706 30822 160.5 216.5 225 486.85000610352 733.74391174316 117772.89936829 62695136.590704
50844	2441549 7852 20706 30822 160.5 216.5 225 486.82379150391 785.82187652588 125616.65325165 72006444.497108
vector 51000  IntersectionExampleScenario.node[87].veinsmobility  speed  ETV
vector 51005  IntersectionExampleScenario.node[88].veinsmobility  posx  ETV
vector 51006  IntersectionExampleScenario.node[88].veinsmobility  posy  ETV
vector 51001  IntersectionExampleScenario.node[87].veinsmobility  acceleration  ETV
vector 51002  IntersectionExampleScenario.node[87].veinsmobility  co2emission  ETV
vector 51007  IntersectionExampleScenario.node[88].veinsmobility  speed  ETV
vector 51008  IntersectionExampleScenario.node[88].veinsmobility  acceleration  ETV
vector 51009  IntersectionExampleScenario.node[88].veinsmobility  co2emission  ETV
50785	2450049 9732 17208 31657 142.25 221.25 317 0.973 11.36141391502 719.3816540056 3168.8992918738
50784	2459781 9266 17208 31657 142.25 221.25 317 -6.6958675384521 4 38.341367721558 656.75240031923
50783	2469047 9618 17161 31657 142 221.25 318 0 15.459381103516 2274.3200137913 29190.590237892
50782	2478665 11133 17114 31657 141.75 221.25 319 160.43438720703 483.36395263672 133916.11096191 58834147.820351
50781	2489798 11096 17114 31657 141.75 221.25 319 486.85000610352 733.04777526855 163486.89979553 84915272.70791
50813	2500894 9415 18329 31860 148.25 222.5 298 0.973 11.54047740176 667.33024376447 2959.4269276254
50812	2510309 9599 18329 31860 148.25 222.5 298 -4.5 2.5 37.32285118103 482.36419034975
50811	2519908 9691 18280 31860 148 222.5 299 0 15.5 2144.1264708033 27004.13720616
50810	2529599 10463 18231 31860 147.75 222.5 300 201.41754150391 732.9122467041 136248.41107178 65757237.017725
50809	2540062 10500 18231 31860 147.75 222.5 300 486.84997558594 486.85000610352 146055.00177002 71106878.473468
50806	2550562 9890 18280 32133 148 224.25 306 0.973 11.54047740176 708.2514280513 3090.3555241931
50805	2560452 10060 18280 32133 148 224.25 306 -4.5 2.5000009536743 43.594425201416 541.67299519946
50804	2570512 10489 18231 32133 147.75 224.25 307 0 15.660608291626 2252.261582328 28769.967600345
50803	2581001 10726 18184 32133 147.5 224.25 308 177.33288574219 735.04737854004 135975.74049377 64542063.64614
50802	2591727 10780 18184 32133 147.5 224.25 308 486.85000610352 486.85015869141 149949.80288696 73003062.941036
50820	2602507 10255 18524 32678 149.25 228 316 0.973 11.36141391502 697.00753348098 2943.3159923388
50819	2612762 10634 18524 32678 149.25 228 316 -4.5 2.5000000149012 37.15309715271 504.2292746052
50818	2623396 10768 18475 32678 149 228 317 0 15.25 2287.5871054307 28144.32699789
50817	2634164 11100 18426 32678 148.75 228 318 158.80114746094 483.18762207031 130028.97769165 55648315.919915
50816	2645264 11122 18426 32678 148.75 228 318 486.85000610352 733.87626647949 163207.81858826 84919909.281925
50764	2656386 11954 15437 32938 132.5 230 391 0.973 10.916047529558 745.08028372014 2832.3331089426
50763	2668340 12103 15437 32938 132.5 230 391 -6.2679748535156 4 34.606801986694 542.66379951183
50762	2680443 12104 15388 32938 132.25 230 392 0 14.625 2204.746049583 26124.209266821
50761	2692547 13694 15339 32938 132 230 393 238.35711669922 483.14999389648 181294.62384033 84844345.375895
50760	2706241 13710 15339 32938 132 230 393 176.21716308594 483.36395263672 166831.90475464 73136436.695871
50841	2719951 9771 19809 33155 155.75 231.75 305 0.973 10.756497587458 645.73240414111 2563.0488400358
50840	2729722 10411 19809 33155 155.75 231.75 305 -3.7951123714447 2.5 33.758031845093 373.98998475861
50839	2740133 10409 19760 33155 155.5 231.75 306 0 14.39999961853 2221.2784711188 26449.18352494
50838	2750542 10747 19711 33155 155.25 231.75 307 483.14999389648 483.14999389648 148327.04812622 71664212.396867
50837	2761289 10701 19711 33155 155.25 231.75 307 184.17810058594 734.99957275391 138302.4493866 66801122.687873
vector 51012  IntersectionExampleScenario.node[89].veinsmobility  posx  ETV
vector 51013  IntersectionExampleScenario.node[89].veinsmobility  posy  ETV
vector 51014  IntersectionExampleScenario.node[89].veinsmobility  speed  ETV
vector 51015  IntersectionExampleScenario.node[89].veinsmobility  acceleration  ETV
vector 51016  IntersectionExampleScenario.node[89].veinsmobility  co2emission  ETV
50862	2772391 8884 21425 33334 164.25 233.25 277 0.973 11.200708441096 630.74567236594 2743.3871469355
50861	2781275 9573 21425 33334 164.25 233.25 277 -4.3704648017883 2.5000004768372 37.552282333374 346.1033229063
50860	2790848 9590 21374 33334 164 233.25 278 0 15.174832344055 2223.831936501 27719.625298024
50859	2800438 9765 21323 33334 163.75 233.25 279 483.14999389648 483.14999389648 134798.84829712 65128062.732006
50858	2810203 9703 21323 33334 163.75 233.25 279 184.17810058594 735.0828704834 124992.18873596 60337373.595458
vector 51019  IntersectionExampleScenario.node[90].veinsmobility  posx  ETV
vector 51020  IntersectionExampleScenario.node[90].veinsmobility  posy  ETV
vector 51026  IntersectionExampleScenario.node[91].veinsmobility  posx  ETV
vector 51027  IntersectionExampleScenario.node[91].veinsmobility  posy  ETV
vector 51021  IntersectionExampleScenario.node[90].veinsmobility  speed  ETV
vector 51028  IntersectionExampleScenario.node[91].veinsmobility  speed  ETV
50925	2820370 6277 25408 33579 186.5 235.25 196 0.973 11.648172402475 563.24178229202 2890.9133130703
50924	2826647 6500 25408 33579 186.5 235.25 196 -2.274974822998 2.5 38.850629806519 328.62863036189
50923	2833147 6585 25361 33579 186.25 235.25 197 2.2896778583527 15.64999961853 2178.1070010662 28306.049431001
50922	2839732 6923 25314 33579 186 235.25 198 238.82904052734 483.14999389648 87646.446533203 39771582.838684
50921	2846655 6903 25314 33579 186 235.25 198 184.17810058594 483.18862915039 80051.991851807 34156141.656315
vector 51022  IntersectionExampleScenario.node[90].veinsmobility  acceleration  ETV
vector 51023  IntersectionExampleScenario.node[90].veinsmobility  co2emission  ETV
vector 51029  IntersectionExampleScenario.node[91].veinsmobility  acceleration  ETV
vector 51030  IntersectionExampleScenario.node[91].veinsmobility  co2emission  ETV
50883	2853896 7391 24132 33906 179.25 237.75 235 0.973 11.200708441096 587.98172857796 2709.9896974184
50882	2861287 6671 24132 33906 179.25 237.75 235 -7.641104221344 4 36.304327011108 458.25107458266
50881	2867958 7086 24087 33906 179 237.75 236 0 15.02499961853 2199.7595103979 30191.492359851
50880	2875044 8284 24044 33906 178.75 237.75 237 483.14999389648 785.82187652588 130109.48059845 73503933.784032
50879	2883328 8289 24044 33906 178.75 237.75 237 483.14999389648 733.01551818848 123179.12393188 65148972.050769
50890	2891617 7312 24177 33906 179.5 237.75 234 0.9638655754793 12.26218747632 632.36514954967 3234.1156766918
50889	2898929 6762 24177 33906 179.5 237.75 234 -4.5 2.5 42.924703598022 485.36635339132
50888	2905691 7020 24132 33906 179.25 237.75 235 0 16.5 2277.35662359 33043.512826452
50887	2912711 8249 24087 33906 179 237.75 236 486.85000610352 810.23281097412 132055.49917603 76301924.886721
50886	2920960 8250 24087 33906 179 237.75 236 237.86865234375 483.14999389648 106429.01165771 48986028.234978
50897	2929210 7845 24481 34181 181.25 240 236 0.973 11.54047740176 620.43376170052 2955.8537449671
50896	2937055 7612 24481 34181 181.25 240 236 -4.5 2.5000019073486 38.850629806519 436.37878768049
50895	2944667 8060 24438 34181 181 240 237 0 15.5 2333.6701407442 32849.520652937
50894	2952727 8300 24395 34181 180.75 240 238 238.85162353516 817.26328277588 126150.10860443 71693967.326808
50893	2961027 8329 24395 34181 180.75 240 238 483.14999389648 483.14999389648 114989.69854736 55557272.151317
vector 51033  IntersectionExampleScenario.node[92].veinsmobility  posx  ETV
vector 51034  IntersectionExampleScenario.node[92].veinsmobility  posy  ETV
vector 51035  IntersectionExampleScenario.node[92].veinsmobility  speed  ETV
vector 51036  IntersectionExampleScenario.node[92].veinsmobility  acceleration  ETV
vector 51037  IntersectionExampleScenario.node[92].veinsmobility  co2emission  ETV
50904	2969757 7694 25037 34532 184.5 243 235 0.973 11.810082123732 628.87557286954 3187.5114141272
50903	2977451 7642 25037 34532 184.5 243 235 -4.5 2.5 39.869146347046 410.5945508165
50902	2985093 7946 24992 34532 184.25 243 236 0 15.875 2298.4193355329 31231.531953506
50901	2993039 8260 24947 34532 184 243 237 486.85000610352 812.79102325439 133966.73905945 78063022.559063
50900	3001299 8283 24947 34532 184 243 237 235.69573974609 483.14999389648 106438.52694702 48854037.931749
50918	3009582 7369 25131 34648 185 244 237 0.973 11.648172402475 617.25003734949 3017.0803677976
50917	3016951 6603 25131 34648 185 244 237 -7.2641291618347 4 39.699392318726 478.83698249346
50916	3023554 7031 25084 34648 184.75 244 238 0 15.64999961853 2202.4607504606 31658.077884122
50915	3030585 8355 25037 34648 184.5 244 239 236.75476074219 486.85000610352 108117.95321655 49997973.613171
50914	3038940 8358 25037 34648 184.5 244 239 483.14999389648 785.82187652588 130724.50818634 73548877.279794
50939	3047298 6701 26620 34821 193.25 245.5 210 0.973 11.810082123732 575.49480958993 3019.1666419025
50938	3053999 6946 26620 34821 193.25 245.5 210 -3.8640172481537 2.5 39.869146347046 341.86212759919
50937	3060945 7090 26575 34821 193 245.5 211 0 15.875 2189.0770162418 29416.610893599
50936	3068035 7414 26530 34821 192.75 245.5 212 486.85000610352 734.24409484863 111275.96429443 59425904.842207
50935	3075449 7405 26530 34821 192.75 245.5 212 486.85000610352 785.82187652588 118483.32546234 68079117.86419
50946	3082854 6799 27288 35153 197 248.75 208 0.973 10.756497587458 541.22645738509 2447.641221143
50945	3089653 6660 27288 35153 197 248.75 208 -4.5 2.5000009536743 34.267293930054 326.8319224404
50944	3096313 7149 27243 35153 196.75 248.75 209 2.0913798809052 14.39999961853 2243.3903081417 27912.733326137
50943	3103462 7351 27198 35153 196.5 248.75 210 486.85000610352 486.85000610352 102238.50128174 49774814.973028
50942	3110813 7325 27198 35153 196.5 248.75 210 237.34313964844 793.78281402588 110453.65296173 62646123.236943
50953	3118138 6694 27768 35403 199.75 251.25 207 0.973 11.00486315618 539.88113700193 2526.2030423183
50952	3124832 6661 27768 35403 199.75 251.25 207 -4.5 2.5 35.455564498901 299.36979983904
50951	3131493 7008 27723 35403 199.5 251.25 208 1.7849578857422 14.75 2279.8903055191 28923.881323976
50950	3138501 7310 27678 35403 199.25 251.25 209 236.89916992188 486.85000610352 92953.253570557 42437762.350667
50949	3145811 7294 27678 35403 199.25 251.25 209 483.12451171875 804.02579498291 119160.15486908 70137421.411163
vector 51040  IntersectionExampleScenario.node[93].veinsmobility  posx  ETV
vector 51041  IntersectionExampleScenario.node[93].veinsmobility  posy  ETV
vector 51042  IntersectionExampleScenario.node[93].veinsmobility  speed  ETV
vector 51043  IntersectionExampleScenario.node[93].veinsmobility  acceleration  ETV
vector 51044  IntersectionExampleScenario.node[93].veinsmobility  co2emission  ETV
vector 51047  IntersectionExampleScenario.node[94].veinsmobility  posx  ETV
vector 51048  IntersectionExampleScenario.node[94].veinsmobility  posy  ETV
50827	3153660 12918 18626 35604 149.75 253.25 415 0.973 11.450879080643 865.63185834836 3454.1949586967
50826	3166578 12646 18626 35604 149.75 253.25 415 -7.6195731163025 4 48.011121749878 796.96398106998
50825	3179224 13014 18575 35604 149.5 253.25 416 0 15.375 2363.3319435939 29585.036307046
50824	3192238 14558 18524 35604 149.25 253.25 417 147.52716064453 733.9766998291 182301.66139221 85225804.864148
50823	3206796 14596 18524 35604 149.25 253.25 417 486.84991455078 486.85000610352 203016.45202637 98838560.655574
vector 51049  IntersectionExampleScenario.node[94].veinsmobility  speed  ETV
vector 51050  IntersectionExampleScenario.node[94].veinsmobility  acceleration  ETV
vector 51051  IntersectionExampleScenario.node[94].veinsmobility  co2emission  ETV
vector 51054  IntersectionExampleScenario.node[95].veinsmobility  posx  ETV
vector 51055  IntersectionExampleScenario.node[95].veinsmobility  posy  ETV
vector 51061  IntersectionExampleScenario.node[96].veinsmobility  posx  ETV
vector 51062  IntersectionExampleScenario.node[96].veinsmobility  posy  ETV
vector 51056  IntersectionExampleScenario.node[95].veinsmobility  speed  ETV
[...]
54404	23845208 15405 197910 213804 1654 1772.5 475 0.973 11.450879080643 888.99075134118 3328.9799084515
54403	23860613 15835 197910 213804 1654 1772.5 475 -25.158504486084 4 41.90619468689 1179.1684304144
54402	23876448 15814 197869 213804 1653.75 1772.5 476 0 16.159997940063 2198.8455222547 26511.314044354
54401	23892262 17608 197828 213804 1653.5 1772.5 477 483.14999389648 785.82187652588 258541.57965088 142402167.52202
54400	23909870 17639 197828 213804 1653.5 1772.5 477 483.14999389648 731.61442565918 238346.10813904 120267469.1953
54467	23927509 13725 201125 214156 1674.25 1775 404 0.973 11.200708441096 783.2126043201 3012.3561738385
54466	23941234 14203 201125 214156 1674.25 1775 404 -3.8265359401703 2.5 35.625318527222 497.73852602359
54465	23955437 14240 201082 214156 1674 1775 405 0 15.02499961853 2218.0780822411 26535.169481114
54464	23969677 14976 201039 214156 1673.75 1775 406 236.07086181641 785.82187652588 212004.44989777 115111505.10788
54463	23984653 15021 201039 214156 1673.75 1775 406 483.14999389648 483.14999389648 196158.89752197 94774170.140483
vector 54687  IntersectionExampleScenario.node[614].veinsmobility  posx  ETV
vector 54688  IntersectionExampleScenario.node[614].veinsmobility  posy  ETV
vector 54689  IntersectionExampleScenario.node[614].veinsmobility  speed  ETV
vector 54690  IntersectionExampleScenario.node[614].veinsmobility  acceleration  ETV
vector 54691  IntersectionExampleScenario.node[614].veinsmobility  co2emission  ETV
54523	24000080 9398 206304 214358 1708.5 1776.5 273 0.973 11.90022389248 678.9054031758 3373.5878332164
54522	24009478 9655 206304 214358 1708.5 1776.5 273 -4.2972221374512 2.5000019073486 39.869146347046 450.83640943499
54521	24019133 9788 206271 214358 1708.25 1776.5 274 0 16 2208.0288289255 29133.129218099
54520	24028921 10151 206238 214358 1708 1776.5 275 483.12600708008 785.82187652588 151161.09809113 85073230.349161
54519	24039072 10169 206238 214358 1708 1776.5 275 483.14999389648 733.13948059082 141075.82633972 73493890.899351
vector 54694  IntersectionExampleScenario.node[615].veinsmobility  posx  ETV
vector 54695  IntersectionExampleScenario.node[615].veinsmobility  posy  ETV
vector 54696  IntersectionExampleScenario.node[615].veinsmobility  speed  ETV
vector 54701  IntersectionExampleScenario.node[616].veinsmobility  posx  ETV
vector 54702  IntersectionExampleScenario.node[616].veinsmobility  posy  ETV
vector 54697  IntersectionExampleScenario.node[615].veinsmobility  acceleration  ETV
vector 54698  IntersectionExampleScenario.node[615].veinsmobility  co2emission  ETV
54537	24049803 7670 207840 214802 1722 1779.75 232 0.973 12.099024792222 624.07201557999 3099.7746898092
54536	24057473 7375 207840 214802 1722 1779.75 232 -6.9978852272034 4 41.227170944214 478.10403187602
54535	24064848 7367 207812 214802 1721.75 1779.75 233 0 16.27499961853 2198.9670525789 32099.896286911
54534	24072215 8654 207783 214802 1721.5 1779.75 234 237.84844970703 486.85000610352 105905.46707153 48981699.557746
54533	24080869 8652 207783 214802 1721.5 1779.75 234 483.14999389648 785.82187652588 128057.64420319 72099324.620515
vector 54703  IntersectionExampleScenario.node[616].veinsmobility  speed  ETV
vector 54704  IntersectionExampleScenario.node[616].veinsmobility  acceleration  ETV
vector 54705  IntersectionExampleScenario.node[616].veinsmobility  co2emission  ETV
54558	24089771 7256 208558 215060 1728.5 1781.5 213 0.973 11.810082123732 577.22285966125 3013.5864637388
54557	24097027 7554 208558 215060 1728.5 1781.5 213 -3.8622372150421 2.5 39.869146347046 348.84344727426
54556	24104581 7613 208531 215060 1728.25 1781.5 214 0 15.875 2179.0360687729 29477.758663683
54555	24112194 7933 208504 215060 1728 1781.5 215 486.85000610352 731.68620300293 112584.81190491 59949223.74096
54554	24120127 7930 208504 215060 1728 1781.5 215 486.7561340332 785.82187652588 119875.45076752 68712761.716981
vector 54708  IntersectionExampleScenario.node[617].veinsmobility  posx  ETV
vector 54709  IntersectionExampleScenario.node[617].veinsmobility  posy  ETV
vector 54710  IntersectionExampleScenario.node[617].veinsmobility  speed  ETV
vector 54711  IntersectionExampleScenario.node[617].veinsmobility  acceleration  ETV
vector 54712  IntersectionExampleScenario.node[617].veinsmobility  co2emission  ETV
54565	24128463 7505 209060 216041 1733.5 1789.25 224 0.973 11.648172402475 592.73771244211 2970.1038455767
54564	24135968 7040 209060 216041 1733.5 1789.25 224 -8.4909086227417 4 38.001859664917 493.50338611871
54563	24143008 7265 209035 216041 1733.25 1789.25 225 0 15.64999961853 2207.1772987843 31179.875685654
54562	24150273 8330 209010 216041 1733 1789.25 226 184.17810058594 732.3010559082 102905.91351318 51016728.087227
54561	24158603 8361 209010 216041 1733 1789.25 226 486.85000610352 486.85000610352 110028.10137939 53567181.828116
54586	24166964 6439 210045 216157 1743 1790.25 190 0.973 12.26218747632 567.79367619702 3265.1300418297
54585	24173403 6638 210045 216157 1743 1790.25 190 -2.1358413696289 2.5000009536743 41.396924972534 331.43404306301
54584	24180041 6714 210018 216157 1742.75 1790.25 191 1.4850170612335 16.5 2181.0946344137 29864.226746386
54583	24186755 7066 209991 216157 1742.5 1790.25 192 184.17810058594 483.16448974609 77995.501220703 33468383.621592
54582	24193821 7095 209991 216157 1742.5 1790.25 192 486.85000610352 732.15679931641 101232.47186279 54324038.626801
vector 54715  IntersectionExampleScenario.node[618].veinsmobility  posx  ETV
vector 54716  IntersectionExampleScenario.node[618].veinsmobility  posy  ETV
vector 54717  IntersectionExampleScenario.node[618].veinsmobility  speed  ETV
vector 54718  IntersectionExampleScenario.node[618].veinsmobility  acceleration  ETV
vector 54719  IntersectionExampleScenario.node[618].veinsmobility  co2emission  ETV
vector 54722  IntersectionExampleScenario.node[619].veinsmobility  posx  ETV
vector 54723  IntersectionExampleScenario.node[619].veinsmobility  posy  ETV
54628	24201478 5736 211236 216599 1753.25 1794.25 165 0.973 11.810082123732 549.66897547282 3354.1775524436
54627	24207214 5662 211236 216599 1753.25 1794.25 165 -3.2101383209229 2.5 39.020376205444 333.78967996013
54626	24212876 5833 211205 216599 1753 1794.25 166 5.6500000953674 15.875 2178.1756587029 30040.779197332
54625	24218709 6148 211173 216599 1752.75 1794.25 167 184.17810058594 483.14999389648 66392.084014893 28129247.197451
54624	24224857 6171 211173 216599 1752.75 1794.25 167 486.85000610352 731.83145141602 89312.885726929 48685365.628126
vector 54729  IntersectionExampleScenario.node[620].veinsmobility  posx  ETV
vector 54730  IntersectionExampleScenario.node[620].veinsmobility  posy  ETV
vector 54724  IntersectionExampleScenario.node[619].veinsmobility  speed  ETV
vector 54725  IntersectionExampleScenario.node[619].veinsmobility  acceleration  ETV
vector 54726  IntersectionExampleScenario.node[619].veinsmobility  co2emission  ETV
vector 54731  IntersectionExampleScenario.node[620].veinsmobility  speed  ETV
vector 54732  IntersectionExampleScenario.node[620].veinsmobility  acceleration  ETV
vector 54733  IntersectionExampleScenario.node[620].veinsmobility  co2emission  ETV
54572	24231684 8297 209255 217044 1735.5 1798 251 0.973 11.200708441096 600.71684470344 2732.2229359868
54571	24239981 7587 209255 217044 1735.5 1798 251 -6.8669724464417 4 35.625318527222 451.20992636987
54570	24247568 7981 209230 217044 1735.25 1798 252 0 15.02499961853 2216.7981914282 30264.34439099
54569	24255549 9359 209205 217044 1735 1798 253 483.14999389648 483.14999389648 122236.94845581 59058780.90035
54568	24264908 9327 209205 217044 1735 1798 253 184.17810058594 734.74969482422 115846.67687988 57382371.360062
vector 54736  IntersectionExampleScenario.node[621].veinsmobility  posx  ETV
vector 54737  IntersectionExampleScenario.node[621].veinsmobility  posy  ETV
vector 54738  IntersectionExampleScenario.node[621].veinsmobility  speed  ETV
vector 54739  IntersectionExampleScenario.node[621].veinsmobility  acceleration  ETV
vector 54740  IntersectionExampleScenario.node[621].veinsmobility  co2emission  ETV
54579	24274641 8597 209459 217158 1737.5 1799 247 0.973 11.36141391502 611.13459335237 2828.6951141889
54578	24283238 8352 209459 217158 1737.5 1799 247 -4.5 2.5 36.813589096069 430.03873374837
54577	24291590 8542 209432 217158 1737.25 1799 248 0 15.25 2252.3158058487 30581.914826339
54576	24300132 9206 209405 217158 1737 1799 249 237.89678955078 483.14999389648 111995.95159912 51452446.210927
54575	24309338 9155 209405 217158 1737 1799 249 166.078125 483.14999389648 103088.51678467 45023117.120607
54593	24318493 7368 210130 217272 1743.75 1800 226 0.973 11.36141391502 558.46390581529 2721.0299859669
54592	24325861 6767 210130 217272 1743.75 1800 226 -8.4870567321777 4 37.153215408325 476.36065124538
54591	24332628 6973 210101 217272 1743.5 1800 227 0 15.25 1848.1027595997 25185.357689668
54590	24339601 8425 210072 217272 1743.25 1800 228 486.63604736328 785.82187652588 126042.10961151 71658511.360688
54589	24348026 8371 210072 217272 1743.25 1800 228 319.00207519531 483.14999389648 106376.96112061 49978959.723505
54600	24356397 6805 210796 217272 1749.75 1800 202 0.973 11.648172402475 563.87464689802 2907.1323975891
54599	24363202 7085 210796 217272 1749.75 1800 202 -3.9493350982666 2.5 39.869146347046 337.37619138524
54598	24370287 7179 210767 217272 1749.5 1800 203 0 15.653980255127 2128.2476523817 28145.09234482
54597	24377466 7545 210739 217272 1749.25 1800 204 251.11932373047 483.14999389648 91436.251800537 41830362.410924
54596	24385011 7521 210739 217272 1749.25 1800 204 184.17810058594 483.19165039062 83042.704193115 35607230.042431
54607	24392532 6413 210827 217272 1750 1800 201 0.973 12.099024792222 538.17249029853 2961.8742265871
54606	24398945 5655 210827 217272 1750 1800 201 -37.462688446045 4 40.590467453003 1756.3260337135
54605	24404600 5897 210796 217272 1749.75 1800 202 0 16.27499961853 1454.2412862778 20905.399675979
54604	24410497 7509 210767 217272 1749.5 1800 203 423.60943603516 486.85000610352 98203.724334717 47530380.473981
54603	24418006 7506 210767 217272 1749.5 1800 203 483.14999389648 785.82187652588 113247.48833466 65022355.807662
54614	24425512 6847 210858 217272 1750.25 1800 200 0.973 11.990504229548 557.00402621628 2940.2001491058
54613	24432359 7282 210858 217272 1750.25 1800 200 -3.8445162773132 2.5 41.227285385132 368.38585898438
54612	24439641 7273 210827 217272 1750 1800 201 0 16.125 1854.024423141 25495.898970064
54611	24446914 7452 210796 217272 1749.75 1800 202 327.4306640625 785.82187652588 110227.84067535 62733366.779798
54610	24454366 7473 210796 217272 1749.75 1800 202 483.14999389648 483.14999389648 97596.29876709 47153651.153639
54621	24461839 6645 210986 217272 1751.25 1800 196 0.973 11.54047740176 522.34213206047 2670.5054646706
54620	24468484 6896 210986 217272 1751.25 1800 196 -4.5 2.5000019073486 37.326593399048 398.784812868
54619	24475380 7097 210953 217272 1751 1800 197 0 15.5 1781.6327102482 22188.99869652
54618	24482477 7303 210920 217272 1750.75 1800 198 367.38229370117 807.99687957764 113008.1944809 67009085.610559
54617	24489780 7325 210920 217272 1750.75 1800 198 483.14999389648 483.14999389648 95663.698791504 46219915.48723
54635	24497105 5819 211795 217272 1757.75 1800 170 0.973 11.90022389248 538.36812023701 3151.107948576
54634	24502924 5831 211795 217272 1757.75 1800 170 -3.6142959594727 2.5 39.869146347046 339.18413062004
54633	24508755 6015 211764 217272 1757.5 1800 171 4.9602937698364 16 2052.1391563416 26938.467090568
54632	24514770 6361 211732 217272 1757.25 1800 172 483.14999389648 694.23991394043 88995.62727356 46672729.712387
54631	24521131 6337 211732 217272 1757.25 1800 172 184.17810058594 486.86874389648 68045.778656006 28626089.039385
54642	24527468 5507 211920 217272 1758.75 1800 166 0.973 11.54047740176 459.54692794376 2561.8165922815
54641	24532975 5773 211920 217272 1758.75 1800 166 -3.713475227356 2.5000019073486 38.209997177124 333.29527947056
54640	24538748 6024 211889 217272 1758.5 1800 167 0 15.5 1404.5899220183 17115.089605604
54639	24544772 6216 211857 217272 1758.25 1800 168 486.85000610352 486.85000610352 81790.801025391 39819851.978423
54638	24550988 6197 211857 217272 1758.25 1800 168 439.48550415039 785.82187652588 97151.334159851 57807728.692378
54649	24557185 4730 212287 217272 1761.75 1800 154 0.973 11.648172402475 337.79700085343 1669.9149560695
54648	24561915 5135 212287 217272 1761.75 1800 154 -26.792610168457 2.5 -22.60000038147 1013.3947240437
54647	24567050 5297 212256 217272 1761.5 1800 155 0 15.64999961853 1151.2008836269 13495.607990051
54646	24572347 5753 212225 217272 1761.25 1800 156 498.39999389648 785.82187652588 92106.682258606 55764649.249078
54645	24578100 5772 212225 217272 1761.25 1800 156 483.14999389648 483.14999389648 75371.399047852 36415690.989939
54656	24583872 4890 212446 217272 1763 1800 149 0.973 11.648172402475 346.24117393062 1632.3107775697
54655	24588762 5048 212446 217272 1763 1800 149 -4.5 2.5 -22.60000038147 420.43115814669
54654	24593810 5247 212413 217272 1762.75 1800 150 0 15.64999961853 1207.6959950328 14918.713800719
54653	24599057 5555 212380 217272 1762.5 1800 151 504.78414916992 807.09531402588 91414.26133728 56865528.946493
54652	24604612 5586 212380 217272 1762.5 1800 151 483.14999389648 483.14999389648 72955.649078369 35248521.406928
54663	24610198 4718 212655 217272 1764.5 1800 143 0.973 11.200708441096 374.81812238512 1831.7039627532
54662	24614916 5097 212655 217272 1764.5 1800 143 -2.8719787597656 2.5 24.39999961853 266.32757900523
54661	24620013 5237 212617 217272 1764.25 1800 144 1.5739279985428 15.02499961853 1281.1569379568 14520.660134467
54660	24625250 5363 212578 217272 1764 1800 145 486.85000610352 486.85000610352 70593.25088501 34368324.624234
54659	24630613 5349 212578 217272 1764 1800 145 468.91195678711 785.82187652588 86697.422676086 53135017.587396
54670	24635962 4830 212655 217272 1764.5 1800 143 0.973 11.193268215867 314.83067054366 1452.8027755408
54669	24640792 5303 212655 217272 1764.5 1800 143 -4.5 2.5 -18.105075836182 284.17496057739
54668	24646095 5315 212617 217272 1764.25 1800 144 1.123731136322 15.566717147827 1209.7454633713 14789.082607844
54667	24651410 5340 212578 217272 1764 1800 145 514.57873535156 816.75234985352 89730.094703674 57011010.737524
54666	24656750 5363 212578 217272 1764 1800 145 483.14999389648 483.14999389648 70056.74911499 33847917.907315
54677	24662113 4562 212655 217272 1764.5 1800 143 0.973 11.200708441096 312.16076817994 1388.1635295406
54676	24666675 4577 212655 217272 1764.5 1800 143 -7.0869650840759 2.5 -22.60000038147 311.24568069128
54675	24671252 4540 212617 217272 1764.25 1800 144 0 15.165787696838 1147.1531692743 15879.498846096
54674	24675792 5337 212578 217272 1764 1800 145 184.17810058594 471.60000610352 55407.065063477 22655765.362245
54673	24681129 5363 212578 217272 1764 1800 145 486.85000610352 486.85000610352 70593.25088501 34368324.624234
54684	24686492 3896 213471 217272 1770.25 1800 120 0.973 11.200708441096 326.63063561768 1696.3780315565
54683	24690388 4293 213471 217272 1770.25 1800 120 -3.7757759094238 2.5000019073486 13.39999961853 254.21100261768
54682	24694681 4392 213434 217272 1770 1800 121 3.5906658172607 15.678365707397 1193.2910292149 14152.618009326
54681	24699073 4513 213397 217272 1769.75 1800 122 485.01840209961 486.85000610352 59392.36038208 28913549.285469
54680	24703586 4498 213397 217272 1769.75 1800 122 490.46157836914 785.82187652588 75162.806144714 47315988.600488
54691	24708084 3057 214358 217272 1776.5 1800 95 0.973 11.200708441096 260.23471948693 1452.5204766471
54690	24711141 3430 214358 217272 1776.5 1800 95 -3.4652252197266 2.5 -13.082782745361 209.80881812571
54689	24714571 3537 214323 217272 1776.25 1800 96 2.3793044090271 15.02499961853 1032.2763984203 12754.287255582
54688	24718108 3584 214288 217272 1776 1800 97 528.39779663086 785.82187652588 62273.858589172 40691797.244282
54687	24721692 3587 214288 217272 1776 1800 97 483.14999389648 483.14999389648 46865.549407959 22643089.910411
54698	24725279 2756 214802 217272 1779.75 1800 82 0.973 11.648172402475 240.6402796755 1380.9864447376
54697	24728035 2986 214802 217272 1779.75 1800 82 -2.0975685119629 2.5 -1.3261089324951 165.26792247645
54696	24731021 3052 214767 217272 1779.5 1800 83 5.3184728622437 15.64999961853 1030.2384123802 13766.294261579
54695	24734073 3087 214732 217272 1779.25 1800 84 184.17810058594 439.92059326172 26499.856384277 8950909.4483235
54694	24737160 3108 214732 217272 1779.25 1800 84 486.85000610352 486.85000610352 40895.400512695 19909925.989211
54705	24740268 2832 214876 217272 1780.25 1800 80 0.973 11.648172402475 255.05186122345 1431.2592565017
54704	24743100 2805 214876 217272 1780.25 1800 80 -2.9681224822998 2.5 8.0432739257812 184.84585897232
54703	24745905 2977 214839 217272 1780 1800 81 5.6500000953674 15.64999961853 1115.2156338692 15928.531929063
54702	24748882 3033 214802 217272 1779.75 1800 82 483.14999389648 483.14999389648 39618.299499512 19141581.161378
54701	24751915 3012 214802 217272 1779.75 1800 82 184.17810058594 460.53607177734 25887.038391113 8794800.6426039
54712	24754927 1812 215860 217272 1787.75 1800 50 0.973 12.099024792222 210.15571757929 1464.1439060015
54711	24756739 1743 215860 217272 1787.75 1800 50 -0.5 2.5 39.612524032593 107.13030831085
54710	24758482 1869 215829 217272 1787.5 1800 51 5.6500000953674 16.27499961853 715.89373970032 10501.793254155
54709	24760351 1924 215798 217272 1787.25 1800 52 483.14999389648 483.14999389648 25123.799682617 12138563.663313
54708	24762275 1906 215798 217272 1787.25 1800 52 184.17810058594 357.98669433594 13575.555358887 3699611.9226662
54719	24764181 1214 216351 217272 1792 1800 33 1.9337556822354 11.648172402475 170.73005869034 1267.2371793027
54718	24765395 1094 216351 217272 1792 1800 33 -0.075153350830078 2.5 39.701642990112 100.01289962532
54717	24766489 1244 216322 217272 1791.75 1800 34 5.6500000953674 15.64999961853 446.04614448547 6218.3239981684
54716	24767733 1272 216293 217272 1791.5 1800 35 184.17810058594 290.47149658203 8011.1619262695 1873337.2632853
54715	24769005 1294 216293 217272 1791.5 1800 35 486.85000610352 486.85000610352 17039.750213623 8295802.4955048
54726	24770299 808 216659 217272 1794.75 1800 22 1.986667772344 11.200708441096 137.06280724426 1083.0587155811
54725	24771107 667 216659 217272 1794.75 1800 22 -0.044288635253906 2.5 37.346490859985 93.754394008505
54724	24771774 840 216628 217272 1794.5 1800 23 5.6500000953674 15.02499961853 270.38010215759 3417.0387294881
54723	24772614 888 216599 217272 1794.25 1800 24 483.14999389648 483.14999389648 11595.599853516 5602413.9984521
54722	24773502 871 216599 217272 1794.25 1800 24 184.17810058594 246.77862548828 5027.3753051758 1062473.0594583
54733	24774373 762 216690 217272 1795 1800 21 0.973 11.648172402475 140.82404372611 1197.8858157906
54732	24775135 605 216690 217272 1795 1800 21 -0.41465759277344 2.5 38.73496055603 100.37087033637
54731	24775740 803 216659 217272 1794.75 1800 22 5.6500000953674 15.64999961853 258.17547225952 3277.2538070481
54730	24776543 830 216628 217272 1794.5 1800 23 171.40313720703 230.81536865234 4488.4584350586 883943.9170565
54729	24777373 850 216628 217272 1794.5 1800 23 486.85000610352 486.85000610352 11197.550140381 5451527.3541888
54740	24778223 220 217129 217272 1798.75 1800 6 5.2162187258585 7.303684162087 37.542735715336 237.95938883636
54739	24778443 161 217129 217272 1798.75 1800 6 2.4999980926514 2.5 14.999998092651 37.49999046326
54738	24778604 258 217100 217272 1798.5 1800 7 5.6500000953674 9.3999996185303 52.674999237061 407.31685994148
54737	24778862 288 217071 217272 1798.25 1800 8 169.82965087891 180.1796875 1392.1279907227 242356.40231732
54736	24779150 296 217071 217272 1798.25 1800 8 486.85000610352 486.85000610352 3894.8000488281 1896183.4275439
50385	24779446 642 0 217271 0 1800 31 0 31 600 12720
50386	24780088 661 0 217271 0 1800 31 0 258 3977 674997
