version 2
run nodebug-34-20200605-19:19:46-18076
attr configname nodebug
attr datetime 20200605-19:19:46
attr experiment nodebug
attr inifile omnetpp.ini
attr iterationvars ""
attr iterationvars2 $repetition=34
attr measurement ""
attr network "\"org.car2x.veins.modules.application.ExtTraCIScenarioManagerLaunchd.IntersectionExampleScenario\""
attr processid 18076
attr repetition 34
attr replication #34
attr resultdir results
attr runnumber 34
attr seedset 34
param **.coreDebug false
param **.debug false
param *.**.nic.mac1609_4.bitrate 18Mbps
param *.**.nic.mac1609_4.txPower 20mW
param *.**.nic.mac1609_4.useServiceChannel false
param *.**.nic.phy80211p.analogueModels "xmldoc(\"config.xml\")"
param *.**.nic.phy80211p.decider "xmldoc(\"config.xml\")"
param *.**.nic.phy80211p.sensitivity -89dBm
param *.**.nic.phy80211p.thermalNoise -110dBm
param *.**.nic.phy80211p.usePropagationDelay true
param *.**.nic.phy80211p.useThermalNoise true
param *.annotations.draw false
param *.connectionManager.alpha 2.0
param *.connectionManager.carrierFrequency "5.890e9 Hz"
param *.connectionManager.pMax 20mW
param *.connectionManager.sat -89dBm
param *.connectionManager.sendDirect true
param *.manager.autoShutdown true
param *.manager.host "\"localhost\""
param *.manager.launchConfig "xmldoc(\"paramics.launchd.xml\")"
param *.manager.margin 25
param *.manager.moduleDisplayString "\"\""
param *.manager.moduleName "\"node\""
param *.manager.moduleType "\"org.car2x.veins.nodes.Car\""
param *.manager.port 9999
param *.manager.updateInterval 250ms
param *.node[*0].veinsmobility.accidentCount 0
param *.node[*0].veinsmobility.accidentDuration 30s
param *.node[*0].veinsmobility.accidentStart 75s
param *.node[*].appl.LiderSelectZoneRadio 55.0
param *.node[*].appl.ShareDataZoneRadio 110.0
param *.node[*].appl.TiempoSemaforo 30.0
param *.node[*].appl.beaconInterval 1s
param *.node[*].appl.beaconPriority 3
param *.node[*].appl.dataOnSch false
param *.node[*].appl.dataPriority 2
param *.node[*].appl.debug false
param *.node[*].appl.headerLength "256 bit"
param *.node[*].appl.maxOffset 0.005s
param *.node[*].appl.sendBeacons false
param *.node[*].appl.sendData true
param *.node[*].applType "\"Dummy\""
param *.node[*].mobilityType "\"TraCIMobility\""
param *.node[*].mobilityType.debug true
param *.node[*].veinsmobility.x 0
param *.node[*].veinsmobility.y 0
param *.node[*].veinsmobility.z 1.895
param *.node[*].veinsmobilityType "\"org.car2x.veins.modules.mobility.traci.TraCIMobility\""
param *.node[*].veinsmobilityType.debug true
param *.playgroundSizeX 8500m
param *.playgroundSizeY 8500m
param *.playgroundSizeZ 50m
param *.world.use2D false
param *.world.useTorus false

scalar IntersectionExampleScenario.node[1].appl 	VehicleRemoved 	0
scalar IntersectionExampleScenario.node[1].appl 	ArrivedAtDest 	1
scalar IntersectionExampleScenario.node[1].appl 	IntersectionEnterTime 	7.25
scalar IntersectionExampleScenario.node[1].appl 	IntersectionExitTime 	30.531635806808
scalar IntersectionExampleScenario.node[1].appl 	NumberOfCollisions 	0
scalar IntersectionExampleScenario.node[1].nic.phy80211p 	busyTime 	0
scalar IntersectionExampleScenario.node[1].nic.mac1609_4 	ReceivedUnicastPackets 	0
scalar IntersectionExampleScenario.node[1].nic.mac1609_4 	ReceivedBroadcasts 	0
scalar IntersectionExampleScenario.node[1].nic.mac1609_4 	SentPackets 	0
scalar IntersectionExampleScenario.node[1].nic.mac1609_4 	SNIRLostPackets 	0
scalar IntersectionExampleScenario.node[1].nic.mac1609_4 	RXTXLostPackets 	0
scalar IntersectionExampleScenario.node[1].nic.mac1609_4 	TotalLostPackets 	0
scalar IntersectionExampleScenario.node[1].nic.mac1609_4 	DroppedPacketsInMac 	0
scalar IntersectionExampleScenario.node[1].nic.mac1609_4 	TooLittleTime 	0
scalar IntersectionExampleScenario.node[1].nic.mac1609_4 	TimesIntoBackoff 	0
scalar IntersectionExampleScenario.node[1].nic.mac1609_4 	SlotsBackoff 	0
scalar IntersectionExampleScenario.node[1].nic.mac1609_4 	NumInternalContention 	0
scalar IntersectionExampleScenario.node[1].nic.mac1609_4 	totalBusyTime 	0
scalar IntersectionExampleScenario.node[1].veinsmobility 	startTime 	7.25
scalar IntersectionExampleScenario.node[1].veinsmobility 	totalTime 	39.5
scalar IntersectionExampleScenario.node[1].veinsmobility 	stopTime 	47
scalar IntersectionExampleScenario.node[1].veinsmobility 	minSpeed 	5.6500000953674
scalar IntersectionExampleScenario.node[1].veinsmobility 	maxSpeed 	15.875
scalar IntersectionExampleScenario.node[1].veinsmobility 	totalDistance 	543.34543434947
scalar IntersectionExampleScenario.node[1].veinsmobility 	totalCO2Emission 	129.47593340815
scalar IntersectionExampleScenario.node[2].appl 	VehicleRemoved 	0
scalar IntersectionExampleScenario.node[2].appl 	ArrivedAtDest 	1
scalar IntersectionExampleScenario.node[2].appl 	IntersectionEnterTime 	8.5
scalar IntersectionExampleScenario.node[2].appl 	IntersectionExitTime 	33.831059097458
scalar IntersectionExampleScenario.node[2].appl 	NumberOfCollisions 	0
scalar IntersectionExampleScenario.node[2].nic.phy80211p 	busyTime 	0
scalar IntersectionExampleScenario.node[2].nic.mac1609_4 	ReceivedUnicastPackets 	0
scalar IntersectionExampleScenario.node[2].nic.mac1609_4 	ReceivedBroadcasts 	0
scalar IntersectionExampleScenario.node[2].nic.mac1609_4 	SentPackets 	0
scalar IntersectionExampleScenario.node[2].nic.mac1609_4 	SNIRLostPackets 	0
scalar IntersectionExampleScenario.node[2].nic.mac1609_4 	RXTXLostPackets 	0
scalar IntersectionExampleScenario.node[2].nic.mac1609_4 	TotalLostPackets 	0
scalar IntersectionExampleScenario.node[2].nic.mac1609_4 	DroppedPacketsInMac 	0
scalar IntersectionExampleScenario.node[2].nic.mac1609_4 	TooLittleTime 	0
scalar IntersectionExampleScenario.node[2].nic.mac1609_4 	TimesIntoBackoff 	0
scalar IntersectionExampleScenario.node[2].nic.mac1609_4 	SlotsBackoff 	0
scalar IntersectionExampleScenario.node[2].nic.mac1609_4 	NumInternalContention 	0
scalar IntersectionExampleScenario.node[2].nic.mac1609_4 	totalBusyTime 	0
scalar IntersectionExampleScenario.node[2].veinsmobility 	startTime 	8.5
scalar IntersectionExampleScenario.node[2].veinsmobility 	totalTime 	42
scalar IntersectionExampleScenario.node[2].veinsmobility 	stopTime 	50.75
scalar IntersectionExampleScenario.node[2].veinsmobility 	minSpeed 	5.6500000953674
scalar IntersectionExampleScenario.node[2].veinsmobility 	maxSpeed 	15.64999961853
scalar IntersectionExampleScenario.node[2].veinsmobility 	totalDistance 	565.77655349415
scalar IntersectionExampleScenario.node[2].veinsmobility 	totalCO2Emission 	128.54818783569
scalar IntersectionExampleScenario.node[0].appl 	VehicleRemoved 	0
scalar IntersectionExampleScenario.node[0].appl 	ArrivedAtDest 	1
scalar IntersectionExampleScenario.node[0].appl 	IntersectionEnterTime 	7
scalar IntersectionExampleScenario.node[0].appl 	IntersectionExitTime 	35.57911158551
scalar IntersectionExampleScenario.node[0].appl 	NumberOfCollisions 	0
scalar IntersectionExampleScenario.node[0].nic.phy80211p 	busyTime 	0
scalar IntersectionExampleScenario.node[0].nic.mac1609_4 	ReceivedUnicastPackets 	0
scalar IntersectionExampleScenario.node[0].nic.mac1609_4 	ReceivedBroadcasts 	0
scalar IntersectionExampleScenario.node[0].nic.mac1609_4 	SentPackets 	0
scalar IntersectionExampleScenario.node[0].nic.mac1609_4 	SNIRLostPackets 	0
scalar IntersectionExampleScenario.node[0].nic.mac1609_4 	RXTXLostPackets 	0
scalar IntersectionExampleScenario.node[0].nic.mac1609_4 	TotalLostPackets 	0
scalar IntersectionExampleScenario.node[0].nic.mac1609_4 	DroppedPacketsInMac 	0
scalar IntersectionExampleScenario.node[0].nic.mac1609_4 	TooLittleTime 	0
scalar IntersectionExampleScenario.node[0].nic.mac1609_4 	TimesIntoBackoff 	0
scalar IntersectionExampleScenario.node[0].nic.mac1609_4 	SlotsBackoff 	0
scalar IntersectionExampleScenario.node[0].nic.mac1609_4 	NumInternalContention 	0
scalar IntersectionExampleScenario.node[0].nic.mac1609_4 	totalBusyTime 	0
scalar IntersectionExampleScenario.node[0].veinsmobility 	startTime 	7
scalar IntersectionExampleScenario.node[0].veinsmobility 	totalTime 	45.5
scalar IntersectionExampleScenario.node[0].veinsmobility 	stopTime 	52.75
scalar IntersectionExampleScenario.node[0].veinsmobility 	minSpeed 	0
scalar IntersectionExampleScenario.node[0].veinsmobility 	maxSpeed 	15.25
scalar IntersectionExampleScenario.node[0].veinsmobility 	totalDistance 	544.46383572966
scalar IntersectionExampleScenario.node[0].veinsmobility 	totalCO2Emission 	135.08024564102
scalar IntersectionExampleScenario.node[5].appl 	VehicleRemoved 	0
scalar IntersectionExampleScenario.node[5].appl 	ArrivedAtDest 	1
scalar IntersectionExampleScenario.node[5].appl 	IntersectionEnterTime 	11.25
scalar IntersectionExampleScenario.node[5].appl 	IntersectionExitTime 	37.298196947027
scalar IntersectionExampleScenario.node[5].appl 	NumberOfCollisions 	0
scalar IntersectionExampleScenario.node[5].nic.phy80211p 	busyTime 	0
scalar IntersectionExampleScenario.node[5].nic.mac1609_4 	ReceivedUnicastPackets 	0
scalar IntersectionExampleScenario.node[5].nic.mac1609_4 	ReceivedBroadcasts 	0
scalar IntersectionExampleScenario.node[5].nic.mac1609_4 	SentPackets 	0
scalar IntersectionExampleScenario.node[5].nic.mac1609_4 	SNIRLostPackets 	0
scalar IntersectionExampleScenario.node[5].nic.mac1609_4 	RXTXLostPackets 	0
scalar IntersectionExampleScenario.node[5].nic.mac1609_4 	TotalLostPackets 	0
scalar IntersectionExampleScenario.node[5].nic.mac1609_4 	DroppedPacketsInMac 	0
scalar IntersectionExampleScenario.node[5].nic.mac1609_4 	TooLittleTime 	0
scalar IntersectionExampleScenario.node[5].nic.mac1609_4 	TimesIntoBackoff 	0
scalar IntersectionExampleScenario.node[5].nic.mac1609_4 	SlotsBackoff 	0
scalar IntersectionExampleScenario.node[5].nic.mac1609_4 	NumInternalContention 	0
scalar IntersectionExampleScenario.node[5].nic.mac1609_4 	totalBusyTime 	0
scalar IntersectionExampleScenario.node[5].veinsmobility 	startTime 	11.25
scalar IntersectionExampleScenario.node[5].veinsmobility 	totalTime 	42.25
scalar IntersectionExampleScenario.node[5].veinsmobility 	stopTime 	53.75
scalar IntersectionExampleScenario.node[5].veinsmobility 	minSpeed 	4.89666223526
scalar IntersectionExampleScenario.node[5].veinsmobility 	maxSpeed 	15.5
scalar IntersectionExampleScenario.node[5].veinsmobility 	totalDistance 	558.28492736816
scalar IntersectionExampleScenario.node[5].veinsmobility 	totalCO2Emission 	128.1749053061
scalar IntersectionExampleScenario.node[6].appl 	VehicleRemoved 	0
scalar IntersectionExampleScenario.node[6].appl 	ArrivedAtDest 	1
scalar IntersectionExampleScenario.node[6].appl 	IntersectionEnterTime 	13.75
scalar IntersectionExampleScenario.node[6].appl 	IntersectionExitTime 	40.269616803853
scalar IntersectionExampleScenario.node[6].appl 	NumberOfCollisions 	0
scalar IntersectionExampleScenario.node[6].nic.phy80211p 	busyTime 	0
scalar IntersectionExampleScenario.node[6].nic.mac1609_4 	ReceivedUnicastPackets 	0
scalar IntersectionExampleScenario.node[6].nic.mac1609_4 	ReceivedBroadcasts 	0
scalar IntersectionExampleScenario.node[6].nic.mac1609_4 	SentPackets 	0
scalar IntersectionExampleScenario.node[6].nic.mac1609_4 	SNIRLostPackets 	0
scalar IntersectionExampleScenario.node[6].nic.mac1609_4 	RXTXLostPackets 	0
scalar IntersectionExampleScenario.node[6].nic.mac1609_4 	TotalLostPackets 	0
scalar IntersectionExampleScenario.node[6].nic.mac1609_4 	DroppedPacketsInMac 	0
scalar IntersectionExampleScenario.node[6].nic.mac1609_4 	TooLittleTime 	0
scalar IntersectionExampleScenario.node[6].nic.mac1609_4 	TimesIntoBackoff 	0
scalar IntersectionExampleScenario.node[6].nic.mac1609_4 	SlotsBackoff 	0
scalar IntersectionExampleScenario.node[6].nic.mac1609_4 	NumInternalContention 	0
scalar IntersectionExampleScenario.node[6].nic.mac1609_4 	totalBusyTime 	0
scalar IntersectionExampleScenario.node[6].veinsmobility 	startTime 	13.75
scalar IntersectionExampleScenario.node[6].veinsmobility 	totalTime 	43
scalar IntersectionExampleScenario.node[6].veinsmobility 	stopTime 	57
scalar IntersectionExampleScenario.node[6].veinsmobility 	minSpeed 	5.6500000953674
scalar IntersectionExampleScenario.node[6].veinsmobility 	maxSpeed 	15.02499961853
scalar IntersectionExampleScenario.node[6].veinsmobility 	totalDistance 	571.41910552979
scalar IntersectionExampleScenario.node[6].veinsmobility 	totalCO2Emission 	130.90509194687
scalar IntersectionExampleScenario.node[9].appl 	VehicleRemoved 	0
scalar IntersectionExampleScenario.node[9].appl 	ArrivedAtDest 	1
scalar IntersectionExampleScenario.node[9].appl 	IntersectionEnterTime 	17.5
scalar IntersectionExampleScenario.node[9].appl 	IntersectionExitTime 	42.557698137534
scalar IntersectionExampleScenario.node[9].appl 	NumberOfCollisions 	0
scalar IntersectionExampleScenario.node[9].nic.phy80211p 	busyTime 	0
scalar IntersectionExampleScenario.node[9].nic.mac1609_4 	ReceivedUnicastPackets 	0
scalar IntersectionExampleScenario.node[9].nic.mac1609_4 	ReceivedBroadcasts 	0
scalar IntersectionExampleScenario.node[9].nic.mac1609_4 	SentPackets 	0
scalar IntersectionExampleScenario.node[9].nic.mac1609_4 	SNIRLostPackets 	0
scalar IntersectionExampleScenario.node[9].nic.mac1609_4 	RXTXLostPackets 	0
scalar IntersectionExampleScenario.node[9].nic.mac1609_4 	TotalLostPackets 	0
scalar IntersectionExampleScenario.node[9].nic.mac1609_4 	DroppedPacketsInMac 	0
scalar IntersectionExampleScenario.node[9].nic.mac1609_4 	TooLittleTime 	0
scalar IntersectionExampleScenario.node[9].nic.mac1609_4 	TimesIntoBackoff 	0
scalar IntersectionExampleScenario.node[9].nic.mac1609_4 	SlotsBackoff 	0
scalar IntersectionExampleScenario.node[9].nic.mac1609_4 	NumInternalContention 	0
scalar IntersectionExampleScenario.node[9].nic.mac1609_4 	totalBusyTime 	0
scalar IntersectionExampleScenario.node[9].veinsmobility 	startTime 	17.5
scalar IntersectionExampleScenario.node[9].veinsmobility 	totalTime 	41
scalar IntersectionExampleScenario.node[9].veinsmobility 	stopTime 	58.75
scalar IntersectionExampleScenario.node[9].veinsmobility 	minSpeed 	5.6500000953674
scalar IntersectionExampleScenario.node[9].veinsmobility 	maxSpeed 	15.310104370117
scalar IntersectionExampleScenario.node[9].veinsmobility 	totalDistance 	569.50710296631
scalar IntersectionExampleScenario.node[9].veinsmobility 	totalCO2Emission 	122.61484769758
scalar IntersectionExampleScenario.node[3].appl 	VehicleRemoved 	0
scalar IntersectionExampleScenario.node[3].appl 	ArrivedAtDest 	1
scalar IntersectionExampleScenario.node[3].appl 	IntersectionEnterTime 	9
scalar IntersectionExampleScenario.node[3].appl 	IntersectionExitTime 	52.853313916043
scalar IntersectionExampleScenario.node[3].appl 	NumberOfCollisions 	0
scalar IntersectionExampleScenario.node[3].nic.phy80211p 	busyTime 	0
scalar IntersectionExampleScenario.node[3].nic.mac1609_4 	ReceivedUnicastPackets 	0
scalar IntersectionExampleScenario.node[3].nic.mac1609_4 	ReceivedBroadcasts 	0
scalar IntersectionExampleScenario.node[3].nic.mac1609_4 	SentPackets 	0
scalar IntersectionExampleScenario.node[3].nic.mac1609_4 	SNIRLostPackets 	0
scalar IntersectionExampleScenario.node[3].nic.mac1609_4 	RXTXLostPackets 	0
scalar IntersectionExampleScenario.node[3].nic.mac1609_4 	TotalLostPackets 	0
scalar IntersectionExampleScenario.node[3].nic.mac1609_4 	DroppedPacketsInMac 	0
scalar IntersectionExampleScenario.node[3].nic.mac1609_4 	TooLittleTime 	0
scalar IntersectionExampleScenario.node[3].nic.mac1609_4 	TimesIntoBackoff 	0
scalar IntersectionExampleScenario.node[3].nic.mac1609_4 	SlotsBackoff 	0
scalar IntersectionExampleScenario.node[3].nic.mac1609_4 	NumInternalContention 	0
scalar IntersectionExampleScenario.node[3].nic.mac1609_4 	totalBusyTime 	0
scalar IntersectionExampleScenario.node[3].veinsmobility 	startTime 	9
scalar IntersectionExampleScenario.node[3].veinsmobility 	totalTime 	60
scalar IntersectionExampleScenario.node[3].veinsmobility 	stopTime 	69.25
scalar IntersectionExampleScenario.node[3].veinsmobility 	minSpeed 	0
scalar IntersectionExampleScenario.node[3].veinsmobility 	maxSpeed 	15.64999961853
scalar IntersectionExampleScenario.node[3].veinsmobility 	totalDistance 	551.43346529436
scalar IntersectionExampleScenario.node[3].veinsmobility 	totalCO2Emission 	152.46290641846
scalar IntersectionExampleScenario.node[10].appl 	VehicleRemoved 	0
scalar IntersectionExampleScenario.node[10].appl 	ArrivedAtDest 	1
scalar IntersectionExampleScenario.node[10].appl 	IntersectionEnterTime 	18.75
scalar IntersectionExampleScenario.node[10].appl 	IntersectionExitTime 	55.355842601275
scalar IntersectionExampleScenario.node[10].appl 	NumberOfCollisions 	0
scalar IntersectionExampleScenario.node[10].nic.phy80211p 	busyTime 	0
scalar IntersectionExampleScenario.node[10].nic.mac1609_4 	ReceivedUnicastPackets 	0
scalar IntersectionExampleScenario.node[10].nic.mac1609_4 	ReceivedBroadcasts 	0
scalar IntersectionExampleScenario.node[10].nic.mac1609_4 	SentPackets 	0
scalar IntersectionExampleScenario.node[10].nic.mac1609_4 	SNIRLostPackets 	0
scalar IntersectionExampleScenario.node[10].nic.mac1609_4 	RXTXLostPackets 	0
scalar IntersectionExampleScenario.node[10].nic.mac1609_4 	TotalLostPackets 	0
scalar IntersectionExampleScenario.node[10].nic.mac1609_4 	DroppedPacketsInMac 	0
scalar IntersectionExampleScenario.node[10].nic.mac1609_4 	TooLittleTime 	0
scalar IntersectionExampleScenario.node[10].nic.mac1609_4 	TimesIntoBackoff 	0
scalar IntersectionExampleScenario.node[10].nic.mac1609_4 	SlotsBackoff 	0
scalar IntersectionExampleScenario.node[10].nic.mac1609_4 	NumInternalContention 	0
scalar IntersectionExampleScenario.node[10].nic.mac1609_4 	totalBusyTime 	0
scalar IntersectionExampleScenario.node[10].veinsmobility 	startTime 	18.75
scalar IntersectionExampleScenario.node[10].veinsmobility 	totalTime 	52.75
scalar IntersectionExampleScenario.node[10].veinsmobility 	stopTime 	71.75
scalar IntersectionExampleScenario.node[10].veinsmobility 	minSpeed 	0
scalar IntersectionExampleScenario.node[10].veinsmobility 	maxSpeed 	15.64999961853
scalar IntersectionExampleScenario.node[10].veinsmobility 	totalDistance 	549.25580123652
scalar IntersectionExampleScenario.node[10].veinsmobility 	totalCO2Emission 	141.93707342392
scalar IntersectionExampleScenario.node[4].appl 	VehicleRemoved 	0
scalar IntersectionExampleScenario.node[4].appl 	ArrivedAtDest 	1
scalar IntersectionExampleScenario.node[4].appl 	IntersectionEnterTime 	10.5
scalar IntersectionExampleScenario.node[4].appl 	IntersectionExitTime 	61.267288575182
scalar IntersectionExampleScenario.node[4].appl 	NumberOfCollisions 	0
scalar IntersectionExampleScenario.node[4].nic.phy80211p 	busyTime 	0
scalar IntersectionExampleScenario.node[4].nic.mac1609_4 	ReceivedUnicastPackets 	0
scalar IntersectionExampleScenario.node[4].nic.mac1609_4 	ReceivedBroadcasts 	0
scalar IntersectionExampleScenario.node[4].nic.mac1609_4 	SentPackets 	0
scalar IntersectionExampleScenario.node[4].nic.mac1609_4 	SNIRLostPackets 	0
scalar IntersectionExampleScenario.node[4].nic.mac1609_4 	RXTXLostPackets 	0
scalar IntersectionExampleScenario.node[4].nic.mac1609_4 	TotalLostPackets 	0
scalar IntersectionExampleScenario.node[4].nic.mac1609_4 	DroppedPacketsInMac 	0
scalar IntersectionExampleScenario.node[4].nic.mac1609_4 	TooLittleTime 	0
scalar IntersectionExampleScenario.node[4].nic.mac1609_4 	TimesIntoBackoff 	0
scalar IntersectionExampleScenario.node[4].nic.mac1609_4 	SlotsBackoff 	0
scalar IntersectionExampleScenario.node[4].nic.mac1609_4 	NumInternalContention 	0
scalar IntersectionExampleScenario.node[4].nic.mac1609_4 	totalBusyTime 	0
scalar IntersectionExampleScenario.node[4].veinsmobility 	startTime 	10.5
scalar IntersectionExampleScenario.node[4].veinsmobility 	totalTime 	67
scalar IntersectionExampleScenario.node[4].veinsmobility 	stopTime 	77.75
scalar IntersectionExampleScenario.node[4].veinsmobility 	minSpeed 	0
scalar IntersectionExampleScenario.node[4].veinsmobility 	maxSpeed 	15.375
scalar IntersectionExampleScenario.node[4].veinsmobility 	totalDistance 	577.48037828555
scalar IntersectionExampleScenario.node[4].veinsmobility 	totalCO2Emission 	165.81031006564
scalar IntersectionExampleScenario.node[8].appl 	VehicleRemoved 	0
scalar IntersectionExampleScenario.node[8].appl 	ArrivedAtDest 	1
scalar IntersectionExampleScenario.node[8].appl 	IntersectionEnterTime 	17
scalar IntersectionExampleScenario.node[8].appl 	IntersectionExitTime 	62.312457161781
scalar IntersectionExampleScenario.node[8].appl 	NumberOfCollisions 	0
scalar IntersectionExampleScenario.node[8].nic.phy80211p 	busyTime 	0
scalar IntersectionExampleScenario.node[8].nic.mac1609_4 	ReceivedUnicastPackets 	0
scalar IntersectionExampleScenario.node[8].nic.mac1609_4 	ReceivedBroadcasts 	0
scalar IntersectionExampleScenario.node[8].nic.mac1609_4 	SentPackets 	0
scalar IntersectionExampleScenario.node[8].nic.mac1609_4 	SNIRLostPackets 	0
scalar IntersectionExampleScenario.node[8].nic.mac1609_4 	RXTXLostPackets 	0
scalar IntersectionExampleScenario.node[8].nic.mac1609_4 	TotalLostPackets 	0
scalar IntersectionExampleScenario.node[8].nic.mac1609_4 	DroppedPacketsInMac 	0
scalar IntersectionExampleScenario.node[8].nic.mac1609_4 	TooLittleTime 	0
scalar IntersectionExampleScenario.node[8].nic.mac1609_4 	TimesIntoBackoff 	0
scalar IntersectionExampleScenario.node[8].nic.mac1609_4 	SlotsBackoff 	0
scalar IntersectionExampleScenario.node[8].nic.mac1609_4 	NumInternalContention 	0
scalar IntersectionExampleScenario.node[8].nic.mac1609_4 	totalBusyTime 	0
scalar IntersectionExampleScenario.node[8].veinsmobility 	startTime 	17
scalar IntersectionExampleScenario.node[8].veinsmobility 	totalTime 	61.25
scalar IntersectionExampleScenario.node[8].veinsmobility 	stopTime 	78.5
scalar IntersectionExampleScenario.node[8].veinsmobility 	minSpeed 	0
scalar IntersectionExampleScenario.node[8].veinsmobility 	maxSpeed 	15.5
scalar IntersectionExampleScenario.node[8].veinsmobility 	totalDistance 	528.64930725098
scalar IntersectionExampleScenario.node[8].veinsmobility 	totalCO2Emission 	152.20090856007
scalar IntersectionExampleScenario.node[7].appl 	VehicleRemoved 	0
scalar IntersectionExampleScenario.node[7].appl 	ArrivedAtDest 	1
scalar IntersectionExampleScenario.node[7].appl 	IntersectionEnterTime 	16.5
scalar IntersectionExampleScenario.node[7].appl 	IntersectionExitTime 	64.814349756547
scalar IntersectionExampleScenario.node[7].appl 	NumberOfCollisions 	0
scalar IntersectionExampleScenario.node[7].nic.phy80211p 	busyTime 	0
scalar IntersectionExampleScenario.node[7].nic.mac1609_4 	ReceivedUnicastPackets 	0
scalar IntersectionExampleScenario.node[7].nic.mac1609_4 	ReceivedBroadcasts 	0
scalar IntersectionExampleScenario.node[7].nic.mac1609_4 	SentPackets 	0
scalar IntersectionExampleScenario.node[7].nic.mac1609_4 	SNIRLostPackets 	0
scalar IntersectionExampleScenario.node[7].nic.mac1609_4 	RXTXLostPackets 	0
scalar IntersectionExampleScenario.node[7].nic.mac1609_4 	TotalLostPackets 	0
scalar IntersectionExampleScenario.node[7].nic.mac1609_4 	DroppedPacketsInMac 	0
scalar IntersectionExampleScenario.node[7].nic.mac1609_4 	TooLittleTime 	0
scalar IntersectionExampleScenario.node[7].nic.mac1609_4 	TimesIntoBackoff 	0
scalar IntersectionExampleScenario.node[7].nic.mac1609_4 	SlotsBackoff 	0
scalar IntersectionExampleScenario.node[7].nic.mac1609_4 	NumInternalContention 	0
scalar IntersectionExampleScenario.node[7].nic.mac1609_4 	totalBusyTime 	0
scalar IntersectionExampleScenario.node[7].veinsmobility 	startTime 	16.5
scalar IntersectionExampleScenario.node[7].veinsmobility 	totalTime 	65
scalar IntersectionExampleScenario.node[7].veinsmobility 	stopTime 	81.75
scalar IntersectionExampleScenario.node[7].veinsmobility 	minSpeed 	0
scalar IntersectionExampleScenario.node[7].veinsmobility 	maxSpeed 	15.375
scalar IntersectionExampleScenario.node[7].veinsmobility 	totalDistance 	557.83237316653
scalar IntersectionExampleScenario.node[7].veinsmobility 	totalCO2Emission 	157.24732764241
scalar IntersectionExampleScenario.node[11].appl 	VehicleRemoved 	0
scalar IntersectionExampleScenario.node[11].appl 	ArrivedAtDest 	1
scalar IntersectionExampleScenario.node[11].appl 	IntersectionEnterTime 	24.25
scalar IntersectionExampleScenario.node[11].appl 	IntersectionExitTime 	67.614068910858
scalar IntersectionExampleScenario.node[11].appl 	NumberOfCollisions 	0
scalar IntersectionExampleScenario.node[11].nic.phy80211p 	busyTime 	0
scalar IntersectionExampleScenario.node[11].nic.mac1609_4 	ReceivedUnicastPackets 	0
scalar IntersectionExampleScenario.node[11].nic.mac1609_4 	ReceivedBroadcasts 	0
scalar IntersectionExampleScenario.node[11].nic.mac1609_4 	SentPackets 	0
scalar IntersectionExampleScenario.node[11].nic.mac1609_4 	SNIRLostPackets 	0
scalar IntersectionExampleScenario.node[11].nic.mac1609_4 	RXTXLostPackets 	0
scalar IntersectionExampleScenario.node[11].nic.mac1609_4 	TotalLostPackets 	0
scalar IntersectionExampleScenario.node[11].nic.mac1609_4 	DroppedPacketsInMac 	0
scalar IntersectionExampleScenario.node[11].nic.mac1609_4 	TooLittleTime 	0
scalar IntersectionExampleScenario.node[11].nic.mac1609_4 	TimesIntoBackoff 	0
scalar IntersectionExampleScenario.node[11].nic.mac1609_4 	SlotsBackoff 	0
scalar IntersectionExampleScenario.node[11].nic.mac1609_4 	NumInternalContention 	0
scalar IntersectionExampleScenario.node[11].nic.mac1609_4 	totalBusyTime 	0
scalar IntersectionExampleScenario.node[11].veinsmobility 	startTime 	24.25
scalar IntersectionExampleScenario.node[11].veinsmobility 	totalTime 	60.75
scalar IntersectionExampleScenario.node[11].veinsmobility 	stopTime 	85.25
scalar IntersectionExampleScenario.node[11].veinsmobility 	minSpeed 	0
scalar IntersectionExampleScenario.node[11].veinsmobility 	maxSpeed 	15.02499961853
scalar IntersectionExampleScenario.node[11].veinsmobility 	totalDistance 	546.78791715056
scalar IntersectionExampleScenario.node[11].veinsmobility 	totalCO2Emission 	147.75715681623
scalar IntersectionExampleScenario.node[12].appl 	VehicleRemoved 	0
scalar IntersectionExampleScenario.node[12].appl 	ArrivedAtDest 	1
scalar IntersectionExampleScenario.node[12].appl 	IntersectionEnterTime 	27.75
scalar IntersectionExampleScenario.node[12].appl 	IntersectionExitTime 	69.344668120146
scalar IntersectionExampleScenario.node[12].appl 	NumberOfCollisions 	0
scalar IntersectionExampleScenario.node[12].nic.phy80211p 	busyTime 	0
scalar IntersectionExampleScenario.node[12].nic.mac1609_4 	ReceivedUnicastPackets 	0
scalar IntersectionExampleScenario.node[12].nic.mac1609_4 	ReceivedBroadcasts 	0
scalar IntersectionExampleScenario.node[12].nic.mac1609_4 	SentPackets 	0
scalar IntersectionExampleScenario.node[12].nic.mac1609_4 	SNIRLostPackets 	0
scalar IntersectionExampleScenario.node[12].nic.mac1609_4 	RXTXLostPackets 	0
scalar IntersectionExampleScenario.node[12].nic.mac1609_4 	TotalLostPackets 	0
scalar IntersectionExampleScenario.node[12].nic.mac1609_4 	DroppedPacketsInMac 	0
scalar IntersectionExampleScenario.node[12].nic.mac1609_4 	TooLittleTime 	0
scalar IntersectionExampleScenario.node[12].nic.mac1609_4 	TimesIntoBackoff 	0
scalar IntersectionExampleScenario.node[12].nic.mac1609_4 	SlotsBackoff 	0
scalar IntersectionExampleScenario.node[12].nic.mac1609_4 	NumInternalContention 	0
scalar IntersectionExampleScenario.node[12].nic.mac1609_4 	totalBusyTime 	0
scalar IntersectionExampleScenario.node[12].veinsmobility 	startTime 	27.75
scalar IntersectionExampleScenario.node[12].veinsmobility 	totalTime 	58.5
scalar IntersectionExampleScenario.node[12].veinsmobility 	stopTime 	86.5
scalar IntersectionExampleScenario.node[12].veinsmobility 	minSpeed 	0
scalar IntersectionExampleScenario.node[12].veinsmobility 	maxSpeed 	14.875
scalar IntersectionExampleScenario.node[12].veinsmobility 	totalDistance 	563.0092086792
scalar IntersectionExampleScenario.node[12].veinsmobility 	totalCO2Emission 	143.52563391698
scalar IntersectionExampleScenario.node[17].appl 	VehicleRemoved 	0
scalar IntersectionExampleScenario.node[17].appl 	ArrivedAtDest 	1
scalar IntersectionExampleScenario.node[17].appl 	IntersectionEnterTime 	40.5
scalar IntersectionExampleScenario.node[17].appl 	IntersectionExitTime 	71.115134927968
scalar IntersectionExampleScenario.node[17].appl 	NumberOfCollisions 	0
scalar IntersectionExampleScenario.node[17].nic.phy80211p 	busyTime 	0
scalar IntersectionExampleScenario.node[17].nic.mac1609_4 	ReceivedUnicastPackets 	0
scalar IntersectionExampleScenario.node[17].nic.mac1609_4 	ReceivedBroadcasts 	0
scalar IntersectionExampleScenario.node[17].nic.mac1609_4 	SentPackets 	0
scalar IntersectionExampleScenario.node[17].nic.mac1609_4 	SNIRLostPackets 	0
scalar IntersectionExampleScenario.node[17].nic.mac1609_4 	RXTXLostPackets 	0
scalar IntersectionExampleScenario.node[17].nic.mac1609_4 	TotalLostPackets 	0
scalar IntersectionExampleScenario.node[17].nic.mac1609_4 	DroppedPacketsInMac 	0
scalar IntersectionExampleScenario.node[17].nic.mac1609_4 	TooLittleTime 	0
scalar IntersectionExampleScenario.node[17].nic.mac1609_4 	TimesIntoBackoff 	0
scalar IntersectionExampleScenario.node[17].nic.mac1609_4 	SlotsBackoff 	0
scalar IntersectionExampleScenario.node[17].nic.mac1609_4 	NumInternalContention 	0
scalar IntersectionExampleScenario.node[17].nic.mac1609_4 	totalBusyTime 	0
scalar IntersectionExampleScenario.node[17].veinsmobility 	startTime 	40.5
scalar IntersectionExampleScenario.node[17].veinsmobility 	totalTime 	46.75
scalar IntersectionExampleScenario.node[17].veinsmobility 	stopTime 	87.5
scalar IntersectionExampleScenario.node[17].veinsmobility 	minSpeed 	2.6059873104095
scalar IntersectionExampleScenario.node[17].veinsmobility 	maxSpeed 	16.27499961853
scalar IntersectionExampleScenario.node[17].veinsmobility 	totalDistance 	543.51516693302
scalar IntersectionExampleScenario.node[17].veinsmobility 	totalCO2Emission 	141.77884739502
scalar IntersectionExampleScenario.node[19].appl 	VehicleRemoved 	0
scalar IntersectionExampleScenario.node[19].appl 	ArrivedAtDest 	1
scalar IntersectionExampleScenario.node[19].appl 	IntersectionEnterTime 	43.5
scalar IntersectionExampleScenario.node[19].appl 	IntersectionExitTime 	73.50226907141
scalar IntersectionExampleScenario.node[19].appl 	NumberOfCollisions 	0
scalar IntersectionExampleScenario.node[19].nic.phy80211p 	busyTime 	0
scalar IntersectionExampleScenario.node[19].nic.mac1609_4 	ReceivedUnicastPackets 	0
scalar IntersectionExampleScenario.node[19].nic.mac1609_4 	ReceivedBroadcasts 	0
scalar IntersectionExampleScenario.node[19].nic.mac1609_4 	SentPackets 	0
scalar IntersectionExampleScenario.node[19].nic.mac1609_4 	SNIRLostPackets 	0
scalar IntersectionExampleScenario.node[19].nic.mac1609_4 	RXTXLostPackets 	0
scalar IntersectionExampleScenario.node[19].nic.mac1609_4 	TotalLostPackets 	0
scalar IntersectionExampleScenario.node[19].nic.mac1609_4 	DroppedPacketsInMac 	0
scalar IntersectionExampleScenario.node[19].nic.mac1609_4 	TooLittleTime 	0
scalar IntersectionExampleScenario.node[19].nic.mac1609_4 	TimesIntoBackoff 	0
scalar IntersectionExampleScenario.node[19].nic.mac1609_4 	SlotsBackoff 	0
scalar IntersectionExampleScenario.node[19].nic.mac1609_4 	NumInternalContention 	0
scalar IntersectionExampleScenario.node[19].nic.mac1609_4 	totalBusyTime 	0
scalar IntersectionExampleScenario.node[19].veinsmobility 	startTime 	43.5
scalar IntersectionExampleScenario.node[19].veinsmobility 	totalTime 	47
scalar IntersectionExampleScenario.node[19].veinsmobility 	stopTime 	90.75
scalar IntersectionExampleScenario.node[19].veinsmobility 	minSpeed 	5.0627903938293
scalar IntersectionExampleScenario.node[19].veinsmobility 	maxSpeed 	15.218029975891
scalar IntersectionExampleScenario.node[19].veinsmobility 	totalDistance 	557.68336221388
scalar IntersectionExampleScenario.node[19].veinsmobility 	totalCO2Emission 	133.65714760572
scalar IntersectionExampleScenario.node[20].appl 	VehicleRemoved 	0
scalar IntersectionExampleScenario.node[20].appl 	ArrivedAtDest 	1
scalar IntersectionExampleScenario.node[20].appl 	IntersectionEnterTime 	46.75
scalar IntersectionExampleScenario.node[20].appl 	IntersectionExitTime 	75.367850505252
scalar IntersectionExampleScenario.node[20].appl 	NumberOfCollisions 	0
scalar IntersectionExampleScenario.node[20].nic.phy80211p 	busyTime 	0
scalar IntersectionExampleScenario.node[20].nic.mac1609_4 	ReceivedUnicastPackets 	0
scalar IntersectionExampleScenario.node[20].nic.mac1609_4 	ReceivedBroadcasts 	0
scalar IntersectionExampleScenario.node[20].nic.mac1609_4 	SentPackets 	0
scalar IntersectionExampleScenario.node[20].nic.mac1609_4 	SNIRLostPackets 	0
scalar IntersectionExampleScenario.node[20].nic.mac1609_4 	RXTXLostPackets 	0
scalar IntersectionExampleScenario.node[20].nic.mac1609_4 	TotalLostPackets 	0
scalar IntersectionExampleScenario.node[20].nic.mac1609_4 	DroppedPacketsInMac 	0
scalar IntersectionExampleScenario.node[20].nic.mac1609_4 	TooLittleTime 	0
scalar IntersectionExampleScenario.node[20].nic.mac1609_4 	TimesIntoBackoff 	0
scalar IntersectionExampleScenario.node[20].nic.mac1609_4 	SlotsBackoff 	0
scalar IntersectionExampleScenario.node[20].nic.mac1609_4 	NumInternalContention 	0
scalar IntersectionExampleScenario.node[20].nic.mac1609_4 	totalBusyTime 	0
scalar IntersectionExampleScenario.node[20].veinsmobility 	startTime 	46.75
scalar IntersectionExampleScenario.node[20].veinsmobility 	totalTime 	45.5
scalar IntersectionExampleScenario.node[20].veinsmobility 	stopTime 	92.5
scalar IntersectionExampleScenario.node[20].veinsmobility 	minSpeed 	5.6500000953674
scalar IntersectionExampleScenario.node[20].veinsmobility 	maxSpeed 	15.02499961853
scalar IntersectionExampleScenario.node[20].veinsmobility 	totalDistance 	569.38876941926
scalar IntersectionExampleScenario.node[20].veinsmobility 	totalCO2Emission 	130.23532506051
scalar IntersectionExampleScenario.node[13].appl 	VehicleRemoved 	0
scalar IntersectionExampleScenario.node[13].appl 	ArrivedAtDest 	1
scalar IntersectionExampleScenario.node[13].appl 	IntersectionEnterTime 	32.75
scalar IntersectionExampleScenario.node[13].appl 	IntersectionExitTime 	77.253426074283
scalar IntersectionExampleScenario.node[13].appl 	NumberOfCollisions 	0
scalar IntersectionExampleScenario.node[13].nic.phy80211p 	busyTime 	0
scalar IntersectionExampleScenario.node[13].nic.mac1609_4 	ReceivedUnicastPackets 	0
scalar IntersectionExampleScenario.node[13].nic.mac1609_4 	ReceivedBroadcasts 	0
scalar IntersectionExampleScenario.node[13].nic.mac1609_4 	SentPackets 	0
scalar IntersectionExampleScenario.node[13].nic.mac1609_4 	SNIRLostPackets 	0
scalar IntersectionExampleScenario.node[13].nic.mac1609_4 	RXTXLostPackets 	0
scalar IntersectionExampleScenario.node[13].nic.mac1609_4 	TotalLostPackets 	0
scalar IntersectionExampleScenario.node[13].nic.mac1609_4 	DroppedPacketsInMac 	0
scalar IntersectionExampleScenario.node[13].nic.mac1609_4 	TooLittleTime 	0
scalar IntersectionExampleScenario.node[13].nic.mac1609_4 	TimesIntoBackoff 	0
scalar IntersectionExampleScenario.node[13].nic.mac1609_4 	SlotsBackoff 	0
scalar IntersectionExampleScenario.node[13].nic.mac1609_4 	NumInternalContention 	0
scalar IntersectionExampleScenario.node[13].nic.mac1609_4 	totalBusyTime 	0
scalar IntersectionExampleScenario.node[13].veinsmobility 	startTime 	32.75
scalar IntersectionExampleScenario.node[13].veinsmobility 	totalTime 	59.75
scalar IntersectionExampleScenario.node[13].veinsmobility 	stopTime 	92.75
scalar IntersectionExampleScenario.node[13].veinsmobility 	minSpeed 	0
scalar IntersectionExampleScenario.node[13].veinsmobility 	maxSpeed 	16.27499961853
scalar IntersectionExampleScenario.node[13].veinsmobility 	totalDistance 	551.18553161621
scalar IntersectionExampleScenario.node[13].veinsmobility 	totalCO2Emission 	158.24071755276
scalar IntersectionExampleScenario.node[18].appl 	VehicleRemoved 	0
scalar IntersectionExampleScenario.node[18].appl 	ArrivedAtDest 	1
scalar IntersectionExampleScenario.node[18].appl 	IntersectionEnterTime 	40.5
scalar IntersectionExampleScenario.node[18].appl 	IntersectionExitTime 	78.27760128316
scalar IntersectionExampleScenario.node[18].appl 	NumberOfCollisions 	0
scalar IntersectionExampleScenario.node[18].nic.phy80211p 	busyTime 	0
scalar IntersectionExampleScenario.node[18].nic.mac1609_4 	ReceivedUnicastPackets 	0
scalar IntersectionExampleScenario.node[18].nic.mac1609_4 	ReceivedBroadcasts 	0
scalar IntersectionExampleScenario.node[18].nic.mac1609_4 	SentPackets 	0
scalar IntersectionExampleScenario.node[18].nic.mac1609_4 	SNIRLostPackets 	0
scalar IntersectionExampleScenario.node[18].nic.mac1609_4 	RXTXLostPackets 	0
scalar IntersectionExampleScenario.node[18].nic.mac1609_4 	TotalLostPackets 	0
scalar IntersectionExampleScenario.node[18].nic.mac1609_4 	DroppedPacketsInMac 	0
scalar IntersectionExampleScenario.node[18].nic.mac1609_4 	TooLittleTime 	0
scalar IntersectionExampleScenario.node[18].nic.mac1609_4 	TimesIntoBackoff 	0
scalar IntersectionExampleScenario.node[18].nic.mac1609_4 	SlotsBackoff 	0
scalar IntersectionExampleScenario.node[18].nic.mac1609_4 	NumInternalContention 	0
scalar IntersectionExampleScenario.node[18].nic.mac1609_4 	totalBusyTime 	0
scalar IntersectionExampleScenario.node[18].veinsmobility 	startTime 	40.5
scalar IntersectionExampleScenario.node[18].veinsmobility 	totalTime 	54.75
scalar IntersectionExampleScenario.node[18].veinsmobility 	stopTime 	95.5
scalar IntersectionExampleScenario.node[18].veinsmobility 	minSpeed 	0
scalar IntersectionExampleScenario.node[18].veinsmobility 	maxSpeed 	15.25
scalar IntersectionExampleScenario.node[18].veinsmobility 	totalDistance 	514.66953371268
scalar IntersectionExampleScenario.node[18].veinsmobility 	totalCO2Emission 	139.30937058634
scalar IntersectionExampleScenario.node[15].appl 	VehicleRemoved 	0
scalar IntersectionExampleScenario.node[15].appl 	ArrivedAtDest 	1
scalar IntersectionExampleScenario.node[15].appl 	IntersectionEnterTime 	38.5
scalar IntersectionExampleScenario.node[15].appl 	IntersectionExitTime 	80.573572002846
scalar IntersectionExampleScenario.node[15].appl 	NumberOfCollisions 	0
scalar IntersectionExampleScenario.node[15].nic.phy80211p 	busyTime 	0
scalar IntersectionExampleScenario.node[15].nic.mac1609_4 	ReceivedUnicastPackets 	0
scalar IntersectionExampleScenario.node[15].nic.mac1609_4 	ReceivedBroadcasts 	0
scalar IntersectionExampleScenario.node[15].nic.mac1609_4 	SentPackets 	0
scalar IntersectionExampleScenario.node[15].nic.mac1609_4 	SNIRLostPackets 	0
scalar IntersectionExampleScenario.node[15].nic.mac1609_4 	RXTXLostPackets 	0
scalar IntersectionExampleScenario.node[15].nic.mac1609_4 	TotalLostPackets 	0
scalar IntersectionExampleScenario.node[15].nic.mac1609_4 	DroppedPacketsInMac 	0
scalar IntersectionExampleScenario.node[15].nic.mac1609_4 	TooLittleTime 	0
scalar IntersectionExampleScenario.node[15].nic.mac1609_4 	TimesIntoBackoff 	0
scalar IntersectionExampleScenario.node[15].nic.mac1609_4 	SlotsBackoff 	0
scalar IntersectionExampleScenario.node[15].nic.mac1609_4 	NumInternalContention 	0
scalar IntersectionExampleScenario.node[15].nic.mac1609_4 	totalBusyTime 	0
scalar IntersectionExampleScenario.node[15].veinsmobility 	startTime 	38.5
scalar IntersectionExampleScenario.node[15].veinsmobility 	totalTime 	57.75
scalar IntersectionExampleScenario.node[15].veinsmobility 	stopTime 	96.5
scalar IntersectionExampleScenario.node[15].veinsmobility 	minSpeed 	0
scalar IntersectionExampleScenario.node[15].veinsmobility 	maxSpeed 	16.125
scalar IntersectionExampleScenario.node[15].veinsmobility 	totalDistance 	555.01063537598
scalar IntersectionExampleScenario.node[15].veinsmobility 	totalCO2Emission 	160.08850377025
scalar IntersectionExampleScenario.node[16].appl 	VehicleRemoved 	0
scalar IntersectionExampleScenario.node[16].appl 	ArrivedAtDest 	1
scalar IntersectionExampleScenario.node[16].appl 	IntersectionEnterTime 	39
scalar IntersectionExampleScenario.node[16].appl 	IntersectionExitTime 	82.870497829223
scalar IntersectionExampleScenario.node[16].appl 	NumberOfCollisions 	0
scalar IntersectionExampleScenario.node[16].nic.phy80211p 	busyTime 	0
scalar IntersectionExampleScenario.node[16].nic.mac1609_4 	ReceivedUnicastPackets 	0
scalar IntersectionExampleScenario.node[16].nic.mac1609_4 	ReceivedBroadcasts 	0
scalar IntersectionExampleScenario.node[16].nic.mac1609_4 	SentPackets 	0
scalar IntersectionExampleScenario.node[16].nic.mac1609_4 	SNIRLostPackets 	0
scalar IntersectionExampleScenario.node[16].nic.mac1609_4 	RXTXLostPackets 	0
scalar IntersectionExampleScenario.node[16].nic.mac1609_4 	TotalLostPackets 	0
scalar IntersectionExampleScenario.node[16].nic.mac1609_4 	DroppedPacketsInMac 	0
scalar IntersectionExampleScenario.node[16].nic.mac1609_4 	TooLittleTime 	0
scalar IntersectionExampleScenario.node[16].nic.mac1609_4 	TimesIntoBackoff 	0
scalar IntersectionExampleScenario.node[16].nic.mac1609_4 	SlotsBackoff 	0
scalar IntersectionExampleScenario.node[16].nic.mac1609_4 	NumInternalContention 	0
scalar IntersectionExampleScenario.node[16].nic.mac1609_4 	totalBusyTime 	0
scalar IntersectionExampleScenario.node[16].veinsmobility 	startTime 	39
scalar IntersectionExampleScenario.node[16].veinsmobility 	totalTime 	60.25
scalar IntersectionExampleScenario.node[16].veinsmobility 	stopTime 	99.5
scalar IntersectionExampleScenario.node[16].veinsmobility 	minSpeed 	0
scalar IntersectionExampleScenario.node[16].veinsmobility 	maxSpeed 	15.375
scalar IntersectionExampleScenario.node[16].veinsmobility 	totalDistance 	573.57509592769
scalar IntersectionExampleScenario.node[16].veinsmobility 	totalCO2Emission 	152.30532340086
scalar IntersectionExampleScenario.node[14].appl 	VehicleRemoved 	0
scalar IntersectionExampleScenario.node[14].appl 	ArrivedAtDest 	1
scalar IntersectionExampleScenario.node[14].appl 	IntersectionEnterTime 	37
scalar IntersectionExampleScenario.node[14].appl 	IntersectionExitTime 	84.529334323393
scalar IntersectionExampleScenario.node[14].appl 	NumberOfCollisions 	0
scalar IntersectionExampleScenario.node[14].nic.phy80211p 	busyTime 	0
scalar IntersectionExampleScenario.node[14].nic.mac1609_4 	ReceivedUnicastPackets 	0
scalar IntersectionExampleScenario.node[14].nic.mac1609_4 	ReceivedBroadcasts 	0
scalar IntersectionExampleScenario.node[14].nic.mac1609_4 	SentPackets 	0
scalar IntersectionExampleScenario.node[14].nic.mac1609_4 	SNIRLostPackets 	0
scalar IntersectionExampleScenario.node[14].nic.mac1609_4 	RXTXLostPackets 	0
scalar IntersectionExampleScenario.node[14].nic.mac1609_4 	TotalLostPackets 	0
scalar IntersectionExampleScenario.node[14].nic.mac1609_4 	DroppedPacketsInMac 	0
scalar IntersectionExampleScenario.node[14].nic.mac1609_4 	TooLittleTime 	0
scalar IntersectionExampleScenario.node[14].nic.mac1609_4 	TimesIntoBackoff 	0
scalar IntersectionExampleScenario.node[14].nic.mac1609_4 	SlotsBackoff 	0
scalar IntersectionExampleScenario.node[14].nic.mac1609_4 	NumInternalContention 	0
scalar IntersectionExampleScenario.node[14].nic.mac1609_4 	totalBusyTime 	0
scalar IntersectionExampleScenario.node[14].veinsmobility 	startTime 	37
scalar IntersectionExampleScenario.node[14].veinsmobility 	totalTime 	64.75
scalar IntersectionExampleScenario.node[14].veinsmobility 	stopTime 	102
scalar IntersectionExampleScenario.node[14].veinsmobility 	minSpeed 	0
scalar IntersectionExampleScenario.node[14].veinsmobility 	maxSpeed 	15.25
scalar IntersectionExampleScenario.node[14].veinsmobility 	totalDistance 	546.00029660613
scalar IntersectionExampleScenario.node[14].veinsmobility 	totalCO2Emission 	153.43760155329
scalar IntersectionExampleScenario.node[26].appl 	VehicleRemoved 	0
scalar IntersectionExampleScenario.node[26].appl 	ArrivedAtDest 	1
scalar IntersectionExampleScenario.node[26].appl 	IntersectionEnterTime 	61.5
scalar IntersectionExampleScenario.node[26].appl 	IntersectionExitTime 	87.562460480258
scalar IntersectionExampleScenario.node[26].appl 	NumberOfCollisions 	0
scalar IntersectionExampleScenario.node[26].nic.phy80211p 	busyTime 	0
scalar IntersectionExampleScenario.node[26].nic.mac1609_4 	ReceivedUnicastPackets 	0
scalar IntersectionExampleScenario.node[26].nic.mac1609_4 	ReceivedBroadcasts 	0
scalar IntersectionExampleScenario.node[26].nic.mac1609_4 	SentPackets 	0
scalar IntersectionExampleScenario.node[26].nic.mac1609_4 	SNIRLostPackets 	0
scalar IntersectionExampleScenario.node[26].nic.mac1609_4 	RXTXLostPackets 	0
scalar IntersectionExampleScenario.node[26].nic.mac1609_4 	TotalLostPackets 	0
scalar IntersectionExampleScenario.node[26].nic.mac1609_4 	DroppedPacketsInMac 	0
scalar IntersectionExampleScenario.node[26].nic.mac1609_4 	TooLittleTime 	0
scalar IntersectionExampleScenario.node[26].nic.mac1609_4 	TimesIntoBackoff 	0
scalar IntersectionExampleScenario.node[26].nic.mac1609_4 	SlotsBackoff 	0
scalar IntersectionExampleScenario.node[26].nic.mac1609_4 	NumInternalContention 	0
scalar IntersectionExampleScenario.node[26].nic.mac1609_4 	totalBusyTime 	0
scalar IntersectionExampleScenario.node[26].veinsmobility 	startTime 	61.5
scalar IntersectionExampleScenario.node[26].veinsmobility 	totalTime 	42.5
scalar IntersectionExampleScenario.node[26].veinsmobility 	stopTime 	104.25
scalar IntersectionExampleScenario.node[26].veinsmobility 	minSpeed 	5.6500000953674
scalar IntersectionExampleScenario.node[26].veinsmobility 	maxSpeed 	15.02499961853
scalar IntersectionExampleScenario.node[26].veinsmobility 	totalDistance 	551.52638244629
scalar IntersectionExampleScenario.node[26].veinsmobility 	totalCO2Emission 	128.422239945
scalar IntersectionExampleScenario.node[25].appl 	VehicleRemoved 	0
scalar IntersectionExampleScenario.node[25].appl 	ArrivedAtDest 	1
scalar IntersectionExampleScenario.node[25].appl 	IntersectionEnterTime 	58.75
scalar IntersectionExampleScenario.node[25].appl 	IntersectionExitTime 	93.299338968587
scalar IntersectionExampleScenario.node[25].appl 	NumberOfCollisions 	0
scalar IntersectionExampleScenario.node[25].nic.phy80211p 	busyTime 	0
scalar IntersectionExampleScenario.node[25].nic.mac1609_4 	ReceivedUnicastPackets 	0
scalar IntersectionExampleScenario.node[25].nic.mac1609_4 	ReceivedBroadcasts 	0
scalar IntersectionExampleScenario.node[25].nic.mac1609_4 	SentPackets 	0
scalar IntersectionExampleScenario.node[25].nic.mac1609_4 	SNIRLostPackets 	0
scalar IntersectionExampleScenario.node[25].nic.mac1609_4 	RXTXLostPackets 	0
scalar IntersectionExampleScenario.node[25].nic.mac1609_4 	TotalLostPackets 	0
scalar IntersectionExampleScenario.node[25].nic.mac1609_4 	DroppedPacketsInMac 	0
scalar IntersectionExampleScenario.node[25].nic.mac1609_4 	TooLittleTime 	0
scalar IntersectionExampleScenario.node[25].nic.mac1609_4 	TimesIntoBackoff 	0
scalar IntersectionExampleScenario.node[25].nic.mac1609_4 	SlotsBackoff 	0
scalar IntersectionExampleScenario.node[25].nic.mac1609_4 	NumInternalContention 	0
scalar IntersectionExampleScenario.node[25].nic.mac1609_4 	totalBusyTime 	0
scalar IntersectionExampleScenario.node[25].veinsmobility 	startTime 	58.75
scalar IntersectionExampleScenario.node[25].veinsmobility 	totalTime 	51.25
scalar IntersectionExampleScenario.node[25].veinsmobility 	stopTime 	110.25
scalar IntersectionExampleScenario.node[25].veinsmobility 	minSpeed 	0
scalar IntersectionExampleScenario.node[25].veinsmobility 	maxSpeed 	15.02499961853
scalar IntersectionExampleScenario.node[25].veinsmobility 	totalDistance 	552.09591783633
scalar IntersectionExampleScenario.node[25].veinsmobility 	totalCO2Emission 	139.22596497583
scalar IntersectionExampleScenario.node[28].appl 	VehicleRemoved 	0
scalar IntersectionExampleScenario.node[28].appl 	ArrivedAtDest 	1
scalar IntersectionExampleScenario.node[28].appl 	IntersectionEnterTime 	65.75
scalar IntersectionExampleScenario.node[28].appl 	IntersectionExitTime 	94.618731536699
scalar IntersectionExampleScenario.node[28].appl 	NumberOfCollisions 	0
scalar IntersectionExampleScenario.node[28].nic.phy80211p 	busyTime 	0
scalar IntersectionExampleScenario.node[28].nic.mac1609_4 	ReceivedUnicastPackets 	0
scalar IntersectionExampleScenario.node[28].nic.mac1609_4 	ReceivedBroadcasts 	0
scalar IntersectionExampleScenario.node[28].nic.mac1609_4 	SentPackets 	0
scalar IntersectionExampleScenario.node[28].nic.mac1609_4 	SNIRLostPackets 	0
scalar IntersectionExampleScenario.node[28].nic.mac1609_4 	RXTXLostPackets 	0
scalar IntersectionExampleScenario.node[28].nic.mac1609_4 	TotalLostPackets 	0
scalar IntersectionExampleScenario.node[28].nic.mac1609_4 	DroppedPacketsInMac 	0
scalar IntersectionExampleScenario.node[28].nic.mac1609_4 	TooLittleTime 	0
scalar IntersectionExampleScenario.node[28].nic.mac1609_4 	TimesIntoBackoff 	0
scalar IntersectionExampleScenario.node[28].nic.mac1609_4 	SlotsBackoff 	0
scalar IntersectionExampleScenario.node[28].nic.mac1609_4 	NumInternalContention 	0
scalar IntersectionExampleScenario.node[28].nic.mac1609_4 	totalBusyTime 	0
scalar IntersectionExampleScenario.node[28].veinsmobility 	startTime 	65.75
scalar IntersectionExampleScenario.node[28].veinsmobility 	totalTime 	45
scalar IntersectionExampleScenario.node[28].veinsmobility 	stopTime 	111
scalar IntersectionExampleScenario.node[28].veinsmobility 	minSpeed 	3.0816788673401
scalar IntersectionExampleScenario.node[28].veinsmobility 	maxSpeed 	15.5
scalar IntersectionExampleScenario.node[28].veinsmobility 	totalDistance 	553.87509918213
scalar IntersectionExampleScenario.node[28].veinsmobility 	totalCO2Emission 	131.50740401126
scalar IntersectionExampleScenario.node[29].appl 	VehicleRemoved 	0
scalar IntersectionExampleScenario.node[29].appl 	ArrivedAtDest 	1
scalar IntersectionExampleScenario.node[29].appl 	IntersectionEnterTime 	68.25
scalar IntersectionExampleScenario.node[29].appl 	IntersectionExitTime 	97.333871996088
scalar IntersectionExampleScenario.node[29].appl 	NumberOfCollisions 	0
scalar IntersectionExampleScenario.node[29].nic.phy80211p 	busyTime 	0
scalar IntersectionExampleScenario.node[29].nic.mac1609_4 	ReceivedUnicastPackets 	0
scalar IntersectionExampleScenario.node[29].nic.mac1609_4 	ReceivedBroadcasts 	0
scalar IntersectionExampleScenario.node[29].nic.mac1609_4 	SentPackets 	0
scalar IntersectionExampleScenario.node[29].nic.mac1609_4 	SNIRLostPackets 	0
scalar IntersectionExampleScenario.node[29].nic.mac1609_4 	RXTXLostPackets 	0
scalar IntersectionExampleScenario.node[29].nic.mac1609_4 	TotalLostPackets 	0
scalar IntersectionExampleScenario.node[29].nic.mac1609_4 	DroppedPacketsInMac 	0
scalar IntersectionExampleScenario.node[29].nic.mac1609_4 	TooLittleTime 	0
scalar IntersectionExampleScenario.node[29].nic.mac1609_4 	TimesIntoBackoff 	0
scalar IntersectionExampleScenario.node[29].nic.mac1609_4 	SlotsBackoff 	0
scalar IntersectionExampleScenario.node[29].nic.mac1609_4 	NumInternalContention 	0
scalar IntersectionExampleScenario.node[29].nic.mac1609_4 	totalBusyTime 	0
scalar IntersectionExampleScenario.node[29].veinsmobility 	startTime 	68.25
scalar IntersectionExampleScenario.node[29].veinsmobility 	totalTime 	46
scalar IntersectionExampleScenario.node[29].veinsmobility 	stopTime 	114.5
scalar IntersectionExampleScenario.node[29].veinsmobility 	minSpeed 	4.5744490623474
scalar IntersectionExampleScenario.node[29].veinsmobility 	maxSpeed 	15.25
scalar IntersectionExampleScenario.node[29].veinsmobility 	totalDistance 	560.35219718438
scalar IntersectionExampleScenario.node[29].veinsmobility 	totalCO2Emission 	145.14259467465
scalar IntersectionExampleScenario.node[21].appl 	VehicleRemoved 	0
scalar IntersectionExampleScenario.node[21].appl 	ArrivedAtDest 	1
scalar IntersectionExampleScenario.node[21].appl 	IntersectionEnterTime 	47
scalar IntersectionExampleScenario.node[21].appl 	IntersectionExitTime 	100.25984176667
scalar IntersectionExampleScenario.node[21].appl 	NumberOfCollisions 	0
scalar IntersectionExampleScenario.node[21].nic.phy80211p 	busyTime 	0
scalar IntersectionExampleScenario.node[21].nic.mac1609_4 	ReceivedUnicastPackets 	0
scalar IntersectionExampleScenario.node[21].nic.mac1609_4 	ReceivedBroadcasts 	0
scalar IntersectionExampleScenario.node[21].nic.mac1609_4 	SentPackets 	0
scalar IntersectionExampleScenario.node[21].nic.mac1609_4 	SNIRLostPackets 	0
scalar IntersectionExampleScenario.node[21].nic.mac1609_4 	RXTXLostPackets 	0
scalar IntersectionExampleScenario.node[21].nic.mac1609_4 	TotalLostPackets 	0
scalar IntersectionExampleScenario.node[21].nic.mac1609_4 	DroppedPacketsInMac 	0
scalar IntersectionExampleScenario.node[21].nic.mac1609_4 	TooLittleTime 	0
scalar IntersectionExampleScenario.node[21].nic.mac1609_4 	TimesIntoBackoff 	0
scalar IntersectionExampleScenario.node[21].nic.mac1609_4 	SlotsBackoff 	0
scalar IntersectionExampleScenario.node[21].nic.mac1609_4 	NumInternalContention 	0
scalar IntersectionExampleScenario.node[21].nic.mac1609_4 	totalBusyTime 	0
scalar IntersectionExampleScenario.node[21].veinsmobility 	startTime 	47
scalar IntersectionExampleScenario.node[21].veinsmobility 	totalTime 	68.5
scalar IntersectionExampleScenario.node[21].veinsmobility 	stopTime 	115.75
scalar IntersectionExampleScenario.node[21].veinsmobility 	minSpeed 	0
scalar IntersectionExampleScenario.node[21].veinsmobility 	maxSpeed 	16.241504669189
scalar IntersectionExampleScenario.node[21].veinsmobility 	totalDistance 	586.63800811768
scalar IntersectionExampleScenario.node[21].veinsmobility 	totalCO2Emission 	173.92391255828
scalar IntersectionExampleScenario.node[23].appl 	VehicleRemoved 	0
scalar IntersectionExampleScenario.node[23].appl 	ArrivedAtDest 	1
scalar IntersectionExampleScenario.node[23].appl 	IntersectionEnterTime 	51.75
scalar IntersectionExampleScenario.node[23].appl 	IntersectionExitTime 	102.27345077434
scalar IntersectionExampleScenario.node[23].appl 	NumberOfCollisions 	0
scalar IntersectionExampleScenario.node[23].nic.phy80211p 	busyTime 	0
scalar IntersectionExampleScenario.node[23].nic.mac1609_4 	ReceivedUnicastPackets 	0
scalar IntersectionExampleScenario.node[23].nic.mac1609_4 	ReceivedBroadcasts 	0
scalar IntersectionExampleScenario.node[23].nic.mac1609_4 	SentPackets 	0
scalar IntersectionExampleScenario.node[23].nic.mac1609_4 	SNIRLostPackets 	0
scalar IntersectionExampleScenario.node[23].nic.mac1609_4 	RXTXLostPackets 	0
scalar IntersectionExampleScenario.node[23].nic.mac1609_4 	TotalLostPackets 	0
scalar IntersectionExampleScenario.node[23].nic.mac1609_4 	DroppedPacketsInMac 	0
scalar IntersectionExampleScenario.node[23].nic.mac1609_4 	TooLittleTime 	0
scalar IntersectionExampleScenario.node[23].nic.mac1609_4 	TimesIntoBackoff 	0
scalar IntersectionExampleScenario.node[23].nic.mac1609_4 	SlotsBackoff 	0
scalar IntersectionExampleScenario.node[23].nic.mac1609_4 	NumInternalContention 	0
scalar IntersectionExampleScenario.node[23].nic.mac1609_4 	totalBusyTime 	0
scalar IntersectionExampleScenario.node[23].veinsmobility 	startTime 	51.75
scalar IntersectionExampleScenario.node[23].veinsmobility 	totalTime 	66.5
scalar IntersectionExampleScenario.node[23].veinsmobility 	stopTime 	118.5
scalar IntersectionExampleScenario.node[23].veinsmobility 	minSpeed 	0
scalar IntersectionExampleScenario.node[23].veinsmobility 	maxSpeed 	15.287611961365
scalar IntersectionExampleScenario.node[23].veinsmobility 	totalDistance 	572.52729034424
scalar IntersectionExampleScenario.node[23].veinsmobility 	totalCO2Emission 	153.91769426941
scalar IntersectionExampleScenario.node[27].appl 	VehicleRemoved 	0
scalar IntersectionExampleScenario.node[27].appl 	ArrivedAtDest 	1
scalar IntersectionExampleScenario.node[27].appl 	IntersectionEnterTime 	63.5
scalar IntersectionExampleScenario.node[27].appl 	IntersectionExitTime 	104.3604967671
scalar IntersectionExampleScenario.node[27].appl 	NumberOfCollisions 	0
scalar IntersectionExampleScenario.node[27].nic.phy80211p 	busyTime 	0
scalar IntersectionExampleScenario.node[27].nic.mac1609_4 	ReceivedUnicastPackets 	0
scalar IntersectionExampleScenario.node[27].nic.mac1609_4 	ReceivedBroadcasts 	0
scalar IntersectionExampleScenario.node[27].nic.mac1609_4 	SentPackets 	0
scalar IntersectionExampleScenario.node[27].nic.mac1609_4 	SNIRLostPackets 	0
scalar IntersectionExampleScenario.node[27].nic.mac1609_4 	RXTXLostPackets 	0
scalar IntersectionExampleScenario.node[27].nic.mac1609_4 	TotalLostPackets 	0
scalar IntersectionExampleScenario.node[27].nic.mac1609_4 	DroppedPacketsInMac 	0
scalar IntersectionExampleScenario.node[27].nic.mac1609_4 	TooLittleTime 	0
scalar IntersectionExampleScenario.node[27].nic.mac1609_4 	TimesIntoBackoff 	0
scalar IntersectionExampleScenario.node[27].nic.mac1609_4 	SlotsBackoff 	0
scalar IntersectionExampleScenario.node[27].nic.mac1609_4 	NumInternalContention 	0
scalar IntersectionExampleScenario.node[27].nic.mac1609_4 	totalBusyTime 	0
scalar IntersectionExampleScenario.node[27].veinsmobility 	startTime 	63.5
scalar IntersectionExampleScenario.node[27].veinsmobility 	totalTime 	57.25
scalar IntersectionExampleScenario.node[27].veinsmobility 	stopTime 	121
scalar IntersectionExampleScenario.node[27].veinsmobility 	minSpeed 	0
scalar IntersectionExampleScenario.node[27].veinsmobility 	maxSpeed 	15.875
scalar IntersectionExampleScenario.node[27].veinsmobility 	totalDistance 	545.8931717045
scalar IntersectionExampleScenario.node[27].veinsmobility 	totalCO2Emission 	149.44963583088
scalar IntersectionExampleScenario.node[31].appl 	VehicleRemoved 	0
scalar IntersectionExampleScenario.node[31].appl 	ArrivedAtDest 	1
scalar IntersectionExampleScenario.node[31].appl 	IntersectionEnterTime 	72.25
scalar IntersectionExampleScenario.node[31].appl 	IntersectionExitTime 	106.26425049212
scalar IntersectionExampleScenario.node[31].appl 	NumberOfCollisions 	0
scalar IntersectionExampleScenario.node[31].nic.phy80211p 	busyTime 	0
scalar IntersectionExampleScenario.node[31].nic.mac1609_4 	ReceivedUnicastPackets 	0
scalar IntersectionExampleScenario.node[31].nic.mac1609_4 	ReceivedBroadcasts 	0
scalar IntersectionExampleScenario.node[31].nic.mac1609_4 	SentPackets 	0
scalar IntersectionExampleScenario.node[31].nic.mac1609_4 	SNIRLostPackets 	0
scalar IntersectionExampleScenario.node[31].nic.mac1609_4 	RXTXLostPackets 	0
scalar IntersectionExampleScenario.node[31].nic.mac1609_4 	TotalLostPackets 	0
scalar IntersectionExampleScenario.node[31].nic.mac1609_4 	DroppedPacketsInMac 	0
scalar IntersectionExampleScenario.node[31].nic.mac1609_4 	TooLittleTime 	0
scalar IntersectionExampleScenario.node[31].nic.mac1609_4 	TimesIntoBackoff 	0
scalar IntersectionExampleScenario.node[31].nic.mac1609_4 	SlotsBackoff 	0
scalar IntersectionExampleScenario.node[31].nic.mac1609_4 	NumInternalContention 	0
scalar IntersectionExampleScenario.node[31].nic.mac1609_4 	totalBusyTime 	0
scalar IntersectionExampleScenario.node[31].veinsmobility 	startTime 	72.25
scalar IntersectionExampleScenario.node[31].veinsmobility 	totalTime 	50
scalar IntersectionExampleScenario.node[31].veinsmobility 	stopTime 	122.5
scalar IntersectionExampleScenario.node[31].veinsmobility 	minSpeed 	2.0919125080109
scalar IntersectionExampleScenario.node[31].veinsmobility 	maxSpeed 	16.27499961853
scalar IntersectionExampleScenario.node[31].veinsmobility 	totalDistance 	543.69345835498
scalar IntersectionExampleScenario.node[31].veinsmobility 	totalCO2Emission 	145.15123190149
scalar IntersectionExampleScenario.node[22].appl 	VehicleRemoved 	0
scalar IntersectionExampleScenario.node[22].appl 	ArrivedAtDest 	1
scalar IntersectionExampleScenario.node[22].appl 	IntersectionEnterTime 	50.5
scalar IntersectionExampleScenario.node[22].appl 	IntersectionExitTime 	109.3263801276
scalar IntersectionExampleScenario.node[22].appl 	NumberOfCollisions 	0
scalar IntersectionExampleScenario.node[22].nic.phy80211p 	busyTime 	0
scalar IntersectionExampleScenario.node[22].nic.mac1609_4 	ReceivedUnicastPackets 	0
scalar IntersectionExampleScenario.node[22].nic.mac1609_4 	ReceivedBroadcasts 	0
scalar IntersectionExampleScenario.node[22].nic.mac1609_4 	SentPackets 	0
scalar IntersectionExampleScenario.node[22].nic.mac1609_4 	SNIRLostPackets 	0
scalar IntersectionExampleScenario.node[22].nic.mac1609_4 	RXTXLostPackets 	0
scalar IntersectionExampleScenario.node[22].nic.mac1609_4 	TotalLostPackets 	0
scalar IntersectionExampleScenario.node[22].nic.mac1609_4 	DroppedPacketsInMac 	0
scalar IntersectionExampleScenario.node[22].nic.mac1609_4 	TooLittleTime 	0
scalar IntersectionExampleScenario.node[22].nic.mac1609_4 	TimesIntoBackoff 	0
scalar IntersectionExampleScenario.node[22].nic.mac1609_4 	SlotsBackoff 	0
scalar IntersectionExampleScenario.node[22].nic.mac1609_4 	NumInternalContention 	0
scalar IntersectionExampleScenario.node[22].nic.mac1609_4 	totalBusyTime 	0
scalar IntersectionExampleScenario.node[22].veinsmobility 	startTime 	50.5
scalar IntersectionExampleScenario.node[22].veinsmobility 	totalTime 	74.25
scalar IntersectionExampleScenario.node[22].veinsmobility 	stopTime 	125
scalar IntersectionExampleScenario.node[22].veinsmobility 	minSpeed 	0
scalar IntersectionExampleScenario.node[22].veinsmobility 	maxSpeed 	16.27499961853
scalar IntersectionExampleScenario.node[22].veinsmobility 	totalDistance 	551.97518920898
scalar IntersectionExampleScenario.node[22].veinsmobility 	totalCO2Emission 	175.71654280518
scalar IntersectionExampleScenario.node[24].appl 	VehicleRemoved 	0
scalar IntersectionExampleScenario.node[24].appl 	ArrivedAtDest 	1
scalar IntersectionExampleScenario.node[24].appl 	IntersectionEnterTime 	53.5
scalar IntersectionExampleScenario.node[24].appl 	IntersectionExitTime 	111.30749778173
scalar IntersectionExampleScenario.node[24].appl 	NumberOfCollisions 	0
scalar IntersectionExampleScenario.node[24].nic.phy80211p 	busyTime 	0
scalar IntersectionExampleScenario.node[24].nic.mac1609_4 	ReceivedUnicastPackets 	0
scalar IntersectionExampleScenario.node[24].nic.mac1609_4 	ReceivedBroadcasts 	0
scalar IntersectionExampleScenario.node[24].nic.mac1609_4 	SentPackets 	0
scalar IntersectionExampleScenario.node[24].nic.mac1609_4 	SNIRLostPackets 	0
scalar IntersectionExampleScenario.node[24].nic.mac1609_4 	RXTXLostPackets 	0
scalar IntersectionExampleScenario.node[24].nic.mac1609_4 	TotalLostPackets 	0
scalar IntersectionExampleScenario.node[24].nic.mac1609_4 	DroppedPacketsInMac 	0
scalar IntersectionExampleScenario.node[24].nic.mac1609_4 	TooLittleTime 	0
scalar IntersectionExampleScenario.node[24].nic.mac1609_4 	TimesIntoBackoff 	0
scalar IntersectionExampleScenario.node[24].nic.mac1609_4 	SlotsBackoff 	0
scalar IntersectionExampleScenario.node[24].nic.mac1609_4 	NumInternalContention 	0
scalar IntersectionExampleScenario.node[24].nic.mac1609_4 	totalBusyTime 	0
scalar IntersectionExampleScenario.node[24].veinsmobility 	startTime 	53.5
scalar IntersectionExampleScenario.node[24].veinsmobility 	totalTime 	73.25
scalar IntersectionExampleScenario.node[24].veinsmobility 	stopTime 	127
scalar IntersectionExampleScenario.node[24].veinsmobility 	minSpeed 	0
scalar IntersectionExampleScenario.node[24].veinsmobility 	maxSpeed 	16.27499961853
scalar IntersectionExampleScenario.node[24].veinsmobility 	totalDistance 	564.51359558105
scalar IntersectionExampleScenario.node[24].veinsmobility 	totalCO2Emission 	172.8480764464
scalar IntersectionExampleScenario.node[30].appl 	VehicleRemoved 	0
scalar IntersectionExampleScenario.node[30].appl 	ArrivedAtDest 	1
scalar IntersectionExampleScenario.node[30].appl 	IntersectionEnterTime 	70.25
scalar IntersectionExampleScenario.node[30].appl 	IntersectionExitTime 	113.56417022896
scalar IntersectionExampleScenario.node[30].appl 	NumberOfCollisions 	0
scalar IntersectionExampleScenario.node[30].nic.phy80211p 	busyTime 	0
scalar IntersectionExampleScenario.node[30].nic.mac1609_4 	ReceivedUnicastPackets 	0
scalar IntersectionExampleScenario.node[30].nic.mac1609_4 	ReceivedBroadcasts 	0
scalar IntersectionExampleScenario.node[30].nic.mac1609_4 	SentPackets 	0
scalar IntersectionExampleScenario.node[30].nic.mac1609_4 	SNIRLostPackets 	0
scalar IntersectionExampleScenario.node[30].nic.mac1609_4 	RXTXLostPackets 	0
scalar IntersectionExampleScenario.node[30].nic.mac1609_4 	TotalLostPackets 	0
scalar IntersectionExampleScenario.node[30].nic.mac1609_4 	DroppedPacketsInMac 	0
scalar IntersectionExampleScenario.node[30].nic.mac1609_4 	TooLittleTime 	0
scalar IntersectionExampleScenario.node[30].nic.mac1609_4 	TimesIntoBackoff 	0
scalar IntersectionExampleScenario.node[30].nic.mac1609_4 	SlotsBackoff 	0
scalar IntersectionExampleScenario.node[30].nic.mac1609_4 	NumInternalContention 	0
scalar IntersectionExampleScenario.node[30].nic.mac1609_4 	totalBusyTime 	0
scalar IntersectionExampleScenario.node[30].veinsmobility 	startTime 	70.25
scalar IntersectionExampleScenario.node[30].veinsmobility 	totalTime 	60
scalar IntersectionExampleScenario.node[30].veinsmobility 	stopTime 	130.5
scalar IntersectionExampleScenario.node[30].veinsmobility 	minSpeed 	0
scalar IntersectionExampleScenario.node[30].veinsmobility 	maxSpeed 	15.64999961853
scalar IntersectionExampleScenario.node[30].veinsmobility 	totalDistance 	545.031392266
scalar IntersectionExampleScenario.node[30].veinsmobility 	totalCO2Emission 	149.19070139852
scalar IntersectionExampleScenario.node[32].appl 	VehicleRemoved 	0
scalar IntersectionExampleScenario.node[32].appl 	ArrivedAtDest 	1
scalar IntersectionExampleScenario.node[32].appl 	IntersectionEnterTime 	73.25
scalar IntersectionExampleScenario.node[32].appl 	IntersectionExitTime 	115.82855514117
scalar IntersectionExampleScenario.node[32].appl 	NumberOfCollisions 	0
scalar IntersectionExampleScenario.node[32].nic.phy80211p 	busyTime 	0
scalar IntersectionExampleScenario.node[32].nic.mac1609_4 	ReceivedUnicastPackets 	0
scalar IntersectionExampleScenario.node[32].nic.mac1609_4 	ReceivedBroadcasts 	0
scalar IntersectionExampleScenario.node[32].nic.mac1609_4 	SentPackets 	0
scalar IntersectionExampleScenario.node[32].nic.mac1609_4 	SNIRLostPackets 	0
scalar IntersectionExampleScenario.node[32].nic.mac1609_4 	RXTXLostPackets 	0
scalar IntersectionExampleScenario.node[32].nic.mac1609_4 	TotalLostPackets 	0
scalar IntersectionExampleScenario.node[32].nic.mac1609_4 	DroppedPacketsInMac 	0
scalar IntersectionExampleScenario.node[32].nic.mac1609_4 	TooLittleTime 	0
scalar IntersectionExampleScenario.node[32].nic.mac1609_4 	TimesIntoBackoff 	0
scalar IntersectionExampleScenario.node[32].nic.mac1609_4 	SlotsBackoff 	0
scalar IntersectionExampleScenario.node[32].nic.mac1609_4 	NumInternalContention 	0
scalar IntersectionExampleScenario.node[32].nic.mac1609_4 	totalBusyTime 	0
scalar IntersectionExampleScenario.node[32].veinsmobility 	startTime 	73.25
scalar IntersectionExampleScenario.node[32].veinsmobility 	totalTime 	58.5
scalar IntersectionExampleScenario.node[32].veinsmobility 	stopTime 	132
scalar IntersectionExampleScenario.node[32].veinsmobility 	minSpeed 	0
scalar IntersectionExampleScenario.node[32].veinsmobility 	maxSpeed 	16.34462928772
scalar IntersectionExampleScenario.node[32].veinsmobility 	totalDistance 	558.14416022912
scalar IntersectionExampleScenario.node[32].veinsmobility 	totalCO2Emission 	158.28828086549
scalar IntersectionExampleScenario.node[33].appl 	VehicleRemoved 	0
scalar IntersectionExampleScenario.node[33].appl 	ArrivedAtDest 	1
scalar IntersectionExampleScenario.node[33].appl 	IntersectionEnterTime 	74.5
scalar IntersectionExampleScenario.node[33].appl 	IntersectionExitTime 	116.60954340934
scalar IntersectionExampleScenario.node[33].appl 	NumberOfCollisions 	0
scalar IntersectionExampleScenario.node[33].nic.phy80211p 	busyTime 	0
scalar IntersectionExampleScenario.node[33].nic.mac1609_4 	ReceivedUnicastPackets 	0
scalar IntersectionExampleScenario.node[33].nic.mac1609_4 	ReceivedBroadcasts 	0
scalar IntersectionExampleScenario.node[33].nic.mac1609_4 	SentPackets 	0
scalar IntersectionExampleScenario.node[33].nic.mac1609_4 	SNIRLostPackets 	0
scalar IntersectionExampleScenario.node[33].nic.mac1609_4 	RXTXLostPackets 	0
scalar IntersectionExampleScenario.node[33].nic.mac1609_4 	TotalLostPackets 	0
scalar IntersectionExampleScenario.node[33].nic.mac1609_4 	DroppedPacketsInMac 	0
scalar IntersectionExampleScenario.node[33].nic.mac1609_4 	TooLittleTime 	0
scalar IntersectionExampleScenario.node[33].nic.mac1609_4 	TimesIntoBackoff 	0
scalar IntersectionExampleScenario.node[33].nic.mac1609_4 	SlotsBackoff 	0
scalar IntersectionExampleScenario.node[33].nic.mac1609_4 	NumInternalContention 	0
scalar IntersectionExampleScenario.node[33].nic.mac1609_4 	totalBusyTime 	0
scalar IntersectionExampleScenario.node[33].veinsmobility 	startTime 	74.5
scalar IntersectionExampleScenario.node[33].veinsmobility 	totalTime 	58.5
scalar IntersectionExampleScenario.node[33].veinsmobility 	stopTime 	133.25
scalar IntersectionExampleScenario.node[33].veinsmobility 	minSpeed 	0
scalar IntersectionExampleScenario.node[33].veinsmobility 	maxSpeed 	15.875
scalar IntersectionExampleScenario.node[33].veinsmobility 	totalDistance 	545.340872778
scalar IntersectionExampleScenario.node[33].veinsmobility 	totalCO2Emission 	152.94212286765
scalar IntersectionExampleScenario.node[37].appl 	VehicleRemoved 	0
scalar IntersectionExampleScenario.node[37].appl 	ArrivedAtDest 	1
scalar IntersectionExampleScenario.node[37].appl 	IntersectionEnterTime 	86.5
scalar IntersectionExampleScenario.node[37].appl 	IntersectionExitTime 	119.07455876379
scalar IntersectionExampleScenario.node[37].appl 	NumberOfCollisions 	0
scalar IntersectionExampleScenario.node[37].nic.phy80211p 	busyTime 	0
scalar IntersectionExampleScenario.node[37].nic.mac1609_4 	ReceivedUnicastPackets 	0
scalar IntersectionExampleScenario.node[37].nic.mac1609_4 	ReceivedBroadcasts 	0
scalar IntersectionExampleScenario.node[37].nic.mac1609_4 	SentPackets 	0
scalar IntersectionExampleScenario.node[37].nic.mac1609_4 	SNIRLostPackets 	0
scalar IntersectionExampleScenario.node[37].nic.mac1609_4 	RXTXLostPackets 	0
scalar IntersectionExampleScenario.node[37].nic.mac1609_4 	TotalLostPackets 	0
scalar IntersectionExampleScenario.node[37].nic.mac1609_4 	DroppedPacketsInMac 	0
scalar IntersectionExampleScenario.node[37].nic.mac1609_4 	TooLittleTime 	0
scalar IntersectionExampleScenario.node[37].nic.mac1609_4 	TimesIntoBackoff 	0
scalar IntersectionExampleScenario.node[37].nic.mac1609_4 	SlotsBackoff 	0
scalar IntersectionExampleScenario.node[37].nic.mac1609_4 	NumInternalContention 	0
scalar IntersectionExampleScenario.node[37].nic.mac1609_4 	totalBusyTime 	0
scalar IntersectionExampleScenario.node[37].veinsmobility 	startTime 	86.5
scalar IntersectionExampleScenario.node[37].veinsmobility 	totalTime 	48.75
scalar IntersectionExampleScenario.node[37].veinsmobility 	stopTime 	135.5
scalar IntersectionExampleScenario.node[37].veinsmobility 	minSpeed 	1.6033443212509
scalar IntersectionExampleScenario.node[37].veinsmobility 	maxSpeed 	15.875
scalar IntersectionExampleScenario.node[37].veinsmobility 	totalDistance 	543.11254113353
scalar IntersectionExampleScenario.node[37].veinsmobility 	totalCO2Emission 	139.62102157279
scalar IntersectionExampleScenario.node[41].appl 	VehicleRemoved 	0
scalar IntersectionExampleScenario.node[41].appl 	ArrivedAtDest 	1
scalar IntersectionExampleScenario.node[41].appl 	IntersectionEnterTime 	91.25
scalar IntersectionExampleScenario.node[41].appl 	IntersectionExitTime 	120.75730269068
scalar IntersectionExampleScenario.node[41].appl 	NumberOfCollisions 	0
scalar IntersectionExampleScenario.node[41].nic.phy80211p 	busyTime 	0
scalar IntersectionExampleScenario.node[41].nic.mac1609_4 	ReceivedUnicastPackets 	0
scalar IntersectionExampleScenario.node[41].nic.mac1609_4 	ReceivedBroadcasts 	0
scalar IntersectionExampleScenario.node[41].nic.mac1609_4 	SentPackets 	0
scalar IntersectionExampleScenario.node[41].nic.mac1609_4 	SNIRLostPackets 	0
scalar IntersectionExampleScenario.node[41].nic.mac1609_4 	RXTXLostPackets 	0
scalar IntersectionExampleScenario.node[41].nic.mac1609_4 	TotalLostPackets 	0
scalar IntersectionExampleScenario.node[41].nic.mac1609_4 	DroppedPacketsInMac 	0
scalar IntersectionExampleScenario.node[41].nic.mac1609_4 	TooLittleTime 	0
scalar IntersectionExampleScenario.node[41].nic.mac1609_4 	TimesIntoBackoff 	0
scalar IntersectionExampleScenario.node[41].nic.mac1609_4 	SlotsBackoff 	0
scalar IntersectionExampleScenario.node[41].nic.mac1609_4 	NumInternalContention 	0
scalar IntersectionExampleScenario.node[41].nic.mac1609_4 	totalBusyTime 	0
scalar IntersectionExampleScenario.node[41].veinsmobility 	startTime 	91.25
scalar IntersectionExampleScenario.node[41].veinsmobility 	totalTime 	45
scalar IntersectionExampleScenario.node[41].veinsmobility 	stopTime 	136.5
scalar IntersectionExampleScenario.node[41].veinsmobility 	minSpeed 	4.1779866218567
scalar IntersectionExampleScenario.node[41].veinsmobility 	maxSpeed 	16.625
scalar IntersectionExampleScenario.node[41].veinsmobility 	totalDistance 	552.46307177602
scalar IntersectionExampleScenario.node[41].veinsmobility 	totalCO2Emission 	144.60174028664
scalar IntersectionExampleScenario.node[34].appl 	VehicleRemoved 	0
scalar IntersectionExampleScenario.node[34].appl 	ArrivedAtDest 	1
scalar IntersectionExampleScenario.node[34].appl 	IntersectionEnterTime 	82.25
scalar IntersectionExampleScenario.node[34].appl 	IntersectionExitTime 	125.30335016007
scalar IntersectionExampleScenario.node[34].appl 	NumberOfCollisions 	0
scalar IntersectionExampleScenario.node[34].nic.phy80211p 	busyTime 	0
scalar IntersectionExampleScenario.node[34].nic.mac1609_4 	ReceivedUnicastPackets 	0
scalar IntersectionExampleScenario.node[34].nic.mac1609_4 	ReceivedBroadcasts 	0
scalar IntersectionExampleScenario.node[34].nic.mac1609_4 	SentPackets 	0
scalar IntersectionExampleScenario.node[34].nic.mac1609_4 	SNIRLostPackets 	0
scalar IntersectionExampleScenario.node[34].nic.mac1609_4 	RXTXLostPackets 	0
scalar IntersectionExampleScenario.node[34].nic.mac1609_4 	TotalLostPackets 	0
scalar IntersectionExampleScenario.node[34].nic.mac1609_4 	DroppedPacketsInMac 	0
scalar IntersectionExampleScenario.node[34].nic.mac1609_4 	TooLittleTime 	0
scalar IntersectionExampleScenario.node[34].nic.mac1609_4 	TimesIntoBackoff 	0
scalar IntersectionExampleScenario.node[34].nic.mac1609_4 	SlotsBackoff 	0
scalar IntersectionExampleScenario.node[34].nic.mac1609_4 	NumInternalContention 	0
scalar IntersectionExampleScenario.node[34].nic.mac1609_4 	totalBusyTime 	0
scalar IntersectionExampleScenario.node[34].veinsmobility 	startTime 	82.25
scalar IntersectionExampleScenario.node[34].veinsmobility 	totalTime 	58.25
scalar IntersectionExampleScenario.node[34].veinsmobility 	stopTime 	140.75
scalar IntersectionExampleScenario.node[34].veinsmobility 	minSpeed 	0
scalar IntersectionExampleScenario.node[34].veinsmobility 	maxSpeed 	16.27499961853
scalar IntersectionExampleScenario.node[34].veinsmobility 	totalDistance 	551.21347808838
scalar IntersectionExampleScenario.node[34].veinsmobility 	totalCO2Emission 	156.3819107762
scalar IntersectionExampleScenario.node[35].appl 	VehicleRemoved 	0
scalar IntersectionExampleScenario.node[35].appl 	ArrivedAtDest 	1
scalar IntersectionExampleScenario.node[35].appl 	IntersectionEnterTime 	82.75
scalar IntersectionExampleScenario.node[35].appl 	IntersectionExitTime 	127.28745079748
scalar IntersectionExampleScenario.node[35].appl 	NumberOfCollisions 	0
scalar IntersectionExampleScenario.node[35].nic.phy80211p 	busyTime 	0
scalar IntersectionExampleScenario.node[35].nic.mac1609_4 	ReceivedUnicastPackets 	0
scalar IntersectionExampleScenario.node[35].nic.mac1609_4 	ReceivedBroadcasts 	0
scalar IntersectionExampleScenario.node[35].nic.mac1609_4 	SentPackets 	0
scalar IntersectionExampleScenario.node[35].nic.mac1609_4 	SNIRLostPackets 	0
scalar IntersectionExampleScenario.node[35].nic.mac1609_4 	RXTXLostPackets 	0
scalar IntersectionExampleScenario.node[35].nic.mac1609_4 	TotalLostPackets 	0
scalar IntersectionExampleScenario.node[35].nic.mac1609_4 	DroppedPacketsInMac 	0
scalar IntersectionExampleScenario.node[35].nic.mac1609_4 	TooLittleTime 	0
scalar IntersectionExampleScenario.node[35].nic.mac1609_4 	TimesIntoBackoff 	0
scalar IntersectionExampleScenario.node[35].nic.mac1609_4 	SlotsBackoff 	0
scalar IntersectionExampleScenario.node[35].nic.mac1609_4 	NumInternalContention 	0
scalar IntersectionExampleScenario.node[35].nic.mac1609_4 	totalBusyTime 	0
scalar IntersectionExampleScenario.node[35].veinsmobility 	startTime 	82.75
scalar IntersectionExampleScenario.node[35].veinsmobility 	totalTime 	60
scalar IntersectionExampleScenario.node[35].veinsmobility 	stopTime 	143
scalar IntersectionExampleScenario.node[35].veinsmobility 	minSpeed 	0
scalar IntersectionExampleScenario.node[35].veinsmobility 	maxSpeed 	16.119522094727
scalar IntersectionExampleScenario.node[35].veinsmobility 	totalDistance 	575.54969787598
scalar IntersectionExampleScenario.node[35].veinsmobility 	totalCO2Emission 	157.31746805886
scalar IntersectionExampleScenario.node[38].appl 	VehicleRemoved 	0
scalar IntersectionExampleScenario.node[38].appl 	ArrivedAtDest 	1
scalar IntersectionExampleScenario.node[38].appl 	IntersectionEnterTime 	90
scalar IntersectionExampleScenario.node[38].appl 	IntersectionExitTime 	129.25446816295
scalar IntersectionExampleScenario.node[38].appl 	NumberOfCollisions 	0
scalar IntersectionExampleScenario.node[38].nic.phy80211p 	busyTime 	0
scalar IntersectionExampleScenario.node[38].nic.mac1609_4 	ReceivedUnicastPackets 	0
scalar IntersectionExampleScenario.node[38].nic.mac1609_4 	ReceivedBroadcasts 	0
scalar IntersectionExampleScenario.node[38].nic.mac1609_4 	SentPackets 	0
scalar IntersectionExampleScenario.node[38].nic.mac1609_4 	SNIRLostPackets 	0
scalar IntersectionExampleScenario.node[38].nic.mac1609_4 	RXTXLostPackets 	0
scalar IntersectionExampleScenario.node[38].nic.mac1609_4 	TotalLostPackets 	0
scalar IntersectionExampleScenario.node[38].nic.mac1609_4 	DroppedPacketsInMac 	0
scalar IntersectionExampleScenario.node[38].nic.mac1609_4 	TooLittleTime 	0
scalar IntersectionExampleScenario.node[38].nic.mac1609_4 	TimesIntoBackoff 	0
scalar IntersectionExampleScenario.node[38].nic.mac1609_4 	SlotsBackoff 	0
scalar IntersectionExampleScenario.node[38].nic.mac1609_4 	NumInternalContention 	0
scalar IntersectionExampleScenario.node[38].nic.mac1609_4 	totalBusyTime 	0
scalar IntersectionExampleScenario.node[38].veinsmobility 	startTime 	90
scalar IntersectionExampleScenario.node[38].veinsmobility 	totalTime 	56.25
scalar IntersectionExampleScenario.node[38].veinsmobility 	stopTime 	146.5
scalar IntersectionExampleScenario.node[38].veinsmobility 	minSpeed 	0
scalar IntersectionExampleScenario.node[38].veinsmobility 	maxSpeed 	14.75
scalar IntersectionExampleScenario.node[38].veinsmobility 	totalDistance 	549.39935570387
scalar IntersectionExampleScenario.node[38].veinsmobility 	totalCO2Emission 	138.38251976483
scalar IntersectionExampleScenario.node[39].appl 	VehicleRemoved 	0
scalar IntersectionExampleScenario.node[39].appl 	ArrivedAtDest 	1
scalar IntersectionExampleScenario.node[39].appl 	IntersectionEnterTime 	90.5
scalar IntersectionExampleScenario.node[39].appl 	IntersectionExitTime 	132.28351359221
scalar IntersectionExampleScenario.node[39].appl 	NumberOfCollisions 	0
scalar IntersectionExampleScenario.node[39].nic.phy80211p 	busyTime 	0
scalar IntersectionExampleScenario.node[39].nic.mac1609_4 	ReceivedUnicastPackets 	0
scalar IntersectionExampleScenario.node[39].nic.mac1609_4 	ReceivedBroadcasts 	0
scalar IntersectionExampleScenario.node[39].nic.mac1609_4 	SentPackets 	0
scalar IntersectionExampleScenario.node[39].nic.mac1609_4 	SNIRLostPackets 	0
scalar IntersectionExampleScenario.node[39].nic.mac1609_4 	RXTXLostPackets 	0
scalar IntersectionExampleScenario.node[39].nic.mac1609_4 	TotalLostPackets 	0
scalar IntersectionExampleScenario.node[39].nic.mac1609_4 	DroppedPacketsInMac 	0
scalar IntersectionExampleScenario.node[39].nic.mac1609_4 	TooLittleTime 	0
scalar IntersectionExampleScenario.node[39].nic.mac1609_4 	TimesIntoBackoff 	0
scalar IntersectionExampleScenario.node[39].nic.mac1609_4 	SlotsBackoff 	0
scalar IntersectionExampleScenario.node[39].nic.mac1609_4 	NumInternalContention 	0
[...]
scalar IntersectionExampleScenario.node[623].veinsmobility 	totalDistance 	270.9563369751
scalar IntersectionExampleScenario.node[623].veinsmobility 	totalCO2Emission 	71.797771941875
scalar IntersectionExampleScenario.node[624].appl 	VehicleRemoved 	0
scalar IntersectionExampleScenario.node[624].appl 	ArrivedAtDest 	0
scalar IntersectionExampleScenario.node[624].appl 	IntersectionEnterTime 	1773.75
scalar IntersectionExampleScenario.node[624].appl 	IntersectionExitTime 	-1
scalar IntersectionExampleScenario.node[624].appl 	NumberOfCollisions 	0
scalar IntersectionExampleScenario.node[624].nic.phy80211p 	busyTime 	0
scalar IntersectionExampleScenario.node[624].nic.mac1609_4 	ReceivedUnicastPackets 	0
scalar IntersectionExampleScenario.node[624].nic.mac1609_4 	ReceivedBroadcasts 	0
scalar IntersectionExampleScenario.node[624].nic.mac1609_4 	SentPackets 	0
scalar IntersectionExampleScenario.node[624].nic.mac1609_4 	SNIRLostPackets 	0
scalar IntersectionExampleScenario.node[624].nic.mac1609_4 	RXTXLostPackets 	0
scalar IntersectionExampleScenario.node[624].nic.mac1609_4 	TotalLostPackets 	0
scalar IntersectionExampleScenario.node[624].nic.mac1609_4 	DroppedPacketsInMac 	0
scalar IntersectionExampleScenario.node[624].nic.mac1609_4 	TooLittleTime 	0
scalar IntersectionExampleScenario.node[624].nic.mac1609_4 	TimesIntoBackoff 	0
scalar IntersectionExampleScenario.node[624].nic.mac1609_4 	SlotsBackoff 	0
scalar IntersectionExampleScenario.node[624].nic.mac1609_4 	NumInternalContention 	0
scalar IntersectionExampleScenario.node[624].nic.mac1609_4 	totalBusyTime 	0
scalar IntersectionExampleScenario.node[624].veinsmobility 	startTime 	1773.75
scalar IntersectionExampleScenario.node[624].veinsmobility 	totalTime 	26.25
scalar IntersectionExampleScenario.node[624].veinsmobility 	stopTime 	1800
scalar IntersectionExampleScenario.node[624].veinsmobility 	minSpeed 	0
scalar IntersectionExampleScenario.node[624].veinsmobility 	maxSpeed 	15.02499961853
scalar IntersectionExampleScenario.node[624].veinsmobility 	totalDistance 	287.42190551758
scalar IntersectionExampleScenario.node[624].veinsmobility 	totalCO2Emission 	67.224150858506
scalar IntersectionExampleScenario.node[625].appl 	VehicleRemoved 	0
scalar IntersectionExampleScenario.node[625].appl 	ArrivedAtDest 	0
scalar IntersectionExampleScenario.node[625].appl 	IntersectionEnterTime 	1776
scalar IntersectionExampleScenario.node[625].appl 	IntersectionExitTime 	-1
scalar IntersectionExampleScenario.node[625].appl 	NumberOfCollisions 	0
scalar IntersectionExampleScenario.node[625].nic.phy80211p 	busyTime 	0
scalar IntersectionExampleScenario.node[625].nic.mac1609_4 	ReceivedUnicastPackets 	0
scalar IntersectionExampleScenario.node[625].nic.mac1609_4 	ReceivedBroadcasts 	0
scalar IntersectionExampleScenario.node[625].nic.mac1609_4 	SentPackets 	0
scalar IntersectionExampleScenario.node[625].nic.mac1609_4 	SNIRLostPackets 	0
scalar IntersectionExampleScenario.node[625].nic.mac1609_4 	RXTXLostPackets 	0
scalar IntersectionExampleScenario.node[625].nic.mac1609_4 	TotalLostPackets 	0
scalar IntersectionExampleScenario.node[625].nic.mac1609_4 	DroppedPacketsInMac 	0
scalar IntersectionExampleScenario.node[625].nic.mac1609_4 	TooLittleTime 	0
scalar IntersectionExampleScenario.node[625].nic.mac1609_4 	TimesIntoBackoff 	0
scalar IntersectionExampleScenario.node[625].nic.mac1609_4 	SlotsBackoff 	0
scalar IntersectionExampleScenario.node[625].nic.mac1609_4 	NumInternalContention 	0
scalar IntersectionExampleScenario.node[625].nic.mac1609_4 	totalBusyTime 	0
scalar IntersectionExampleScenario.node[625].veinsmobility 	startTime 	1776
scalar IntersectionExampleScenario.node[625].veinsmobility 	totalTime 	24
scalar IntersectionExampleScenario.node[625].veinsmobility 	stopTime 	1800
scalar IntersectionExampleScenario.node[625].veinsmobility 	minSpeed 	0.27467373013496
scalar IntersectionExampleScenario.node[625].veinsmobility 	maxSpeed 	16.27499961853
scalar IntersectionExampleScenario.node[625].veinsmobility 	totalDistance 	249.25442504883
scalar IntersectionExampleScenario.node[625].veinsmobility 	totalCO2Emission 	64.864325099402
scalar IntersectionExampleScenario.node[626].appl 	VehicleRemoved 	0
scalar IntersectionExampleScenario.node[626].appl 	ArrivedAtDest 	0
scalar IntersectionExampleScenario.node[626].appl 	IntersectionEnterTime 	1777.75
scalar IntersectionExampleScenario.node[626].appl 	IntersectionExitTime 	-1
scalar IntersectionExampleScenario.node[626].appl 	NumberOfCollisions 	0
scalar IntersectionExampleScenario.node[626].nic.phy80211p 	busyTime 	0
scalar IntersectionExampleScenario.node[626].nic.mac1609_4 	ReceivedUnicastPackets 	0
scalar IntersectionExampleScenario.node[626].nic.mac1609_4 	ReceivedBroadcasts 	0
scalar IntersectionExampleScenario.node[626].nic.mac1609_4 	SentPackets 	0
scalar IntersectionExampleScenario.node[626].nic.mac1609_4 	SNIRLostPackets 	0
scalar IntersectionExampleScenario.node[626].nic.mac1609_4 	RXTXLostPackets 	0
scalar IntersectionExampleScenario.node[626].nic.mac1609_4 	TotalLostPackets 	0
scalar IntersectionExampleScenario.node[626].nic.mac1609_4 	DroppedPacketsInMac 	0
scalar IntersectionExampleScenario.node[626].nic.mac1609_4 	TooLittleTime 	0
scalar IntersectionExampleScenario.node[626].nic.mac1609_4 	TimesIntoBackoff 	0
scalar IntersectionExampleScenario.node[626].nic.mac1609_4 	SlotsBackoff 	0
scalar IntersectionExampleScenario.node[626].nic.mac1609_4 	NumInternalContention 	0
scalar IntersectionExampleScenario.node[626].nic.mac1609_4 	totalBusyTime 	0
scalar IntersectionExampleScenario.node[626].veinsmobility 	startTime 	1777.75
scalar IntersectionExampleScenario.node[626].veinsmobility 	totalTime 	22.25
scalar IntersectionExampleScenario.node[626].veinsmobility 	stopTime 	1800
scalar IntersectionExampleScenario.node[626].veinsmobility 	minSpeed 	5.6500000953674
scalar IntersectionExampleScenario.node[626].veinsmobility 	maxSpeed 	15.64999961853
scalar IntersectionExampleScenario.node[626].veinsmobility 	totalDistance 	261.67712402344
scalar IntersectionExampleScenario.node[626].veinsmobility 	totalCO2Emission 	63.290685877657
scalar IntersectionExampleScenario.node[627].appl 	VehicleRemoved 	0
scalar IntersectionExampleScenario.node[627].appl 	ArrivedAtDest 	0
scalar IntersectionExampleScenario.node[627].appl 	IntersectionEnterTime 	1780
scalar IntersectionExampleScenario.node[627].appl 	IntersectionExitTime 	-1
scalar IntersectionExampleScenario.node[627].appl 	NumberOfCollisions 	0
scalar IntersectionExampleScenario.node[627].nic.phy80211p 	busyTime 	0
scalar IntersectionExampleScenario.node[627].nic.mac1609_4 	ReceivedUnicastPackets 	0
scalar IntersectionExampleScenario.node[627].nic.mac1609_4 	ReceivedBroadcasts 	0
scalar IntersectionExampleScenario.node[627].nic.mac1609_4 	SentPackets 	0
scalar IntersectionExampleScenario.node[627].nic.mac1609_4 	SNIRLostPackets 	0
scalar IntersectionExampleScenario.node[627].nic.mac1609_4 	RXTXLostPackets 	0
scalar IntersectionExampleScenario.node[627].nic.mac1609_4 	TotalLostPackets 	0
scalar IntersectionExampleScenario.node[627].nic.mac1609_4 	DroppedPacketsInMac 	0
scalar IntersectionExampleScenario.node[627].nic.mac1609_4 	TooLittleTime 	0
scalar IntersectionExampleScenario.node[627].nic.mac1609_4 	TimesIntoBackoff 	0
scalar IntersectionExampleScenario.node[627].nic.mac1609_4 	SlotsBackoff 	0
scalar IntersectionExampleScenario.node[627].nic.mac1609_4 	NumInternalContention 	0
scalar IntersectionExampleScenario.node[627].nic.mac1609_4 	totalBusyTime 	0
scalar IntersectionExampleScenario.node[627].veinsmobility 	startTime 	1780
scalar IntersectionExampleScenario.node[627].veinsmobility 	totalTime 	20
scalar IntersectionExampleScenario.node[627].veinsmobility 	stopTime 	1800
scalar IntersectionExampleScenario.node[627].veinsmobility 	minSpeed 	5.6500000953674
scalar IntersectionExampleScenario.node[627].veinsmobility 	maxSpeed 	15.64999961853
scalar IntersectionExampleScenario.node[627].veinsmobility 	totalDistance 	256.4545211792
scalar IntersectionExampleScenario.node[627].veinsmobility 	totalCO2Emission 	58.024362000593
scalar IntersectionExampleScenario.node[628].appl 	VehicleRemoved 	0
scalar IntersectionExampleScenario.node[628].appl 	ArrivedAtDest 	0
scalar IntersectionExampleScenario.node[628].appl 	IntersectionEnterTime 	1782.5
scalar IntersectionExampleScenario.node[628].appl 	IntersectionExitTime 	-1
scalar IntersectionExampleScenario.node[628].appl 	NumberOfCollisions 	0
scalar IntersectionExampleScenario.node[628].nic.phy80211p 	busyTime 	0
scalar IntersectionExampleScenario.node[628].nic.mac1609_4 	ReceivedUnicastPackets 	0
scalar IntersectionExampleScenario.node[628].nic.mac1609_4 	ReceivedBroadcasts 	0
scalar IntersectionExampleScenario.node[628].nic.mac1609_4 	SentPackets 	0
scalar IntersectionExampleScenario.node[628].nic.mac1609_4 	SNIRLostPackets 	0
scalar IntersectionExampleScenario.node[628].nic.mac1609_4 	RXTXLostPackets 	0
scalar IntersectionExampleScenario.node[628].nic.mac1609_4 	TotalLostPackets 	0
scalar IntersectionExampleScenario.node[628].nic.mac1609_4 	DroppedPacketsInMac 	0
scalar IntersectionExampleScenario.node[628].nic.mac1609_4 	TooLittleTime 	0
scalar IntersectionExampleScenario.node[628].nic.mac1609_4 	TimesIntoBackoff 	0
scalar IntersectionExampleScenario.node[628].nic.mac1609_4 	SlotsBackoff 	0
scalar IntersectionExampleScenario.node[628].nic.mac1609_4 	NumInternalContention 	0
scalar IntersectionExampleScenario.node[628].nic.mac1609_4 	totalBusyTime 	0
scalar IntersectionExampleScenario.node[628].veinsmobility 	startTime 	1782.5
scalar IntersectionExampleScenario.node[628].veinsmobility 	totalTime 	17.5
scalar IntersectionExampleScenario.node[628].veinsmobility 	stopTime 	1800
scalar IntersectionExampleScenario.node[628].veinsmobility 	minSpeed 	5.6500000953674
scalar IntersectionExampleScenario.node[628].veinsmobility 	maxSpeed 	15.993790626526
scalar IntersectionExampleScenario.node[628].veinsmobility 	totalDistance 	215.74249267578
scalar IntersectionExampleScenario.node[628].veinsmobility 	totalCO2Emission 	52.388257073933
scalar IntersectionExampleScenario.node[629].appl 	VehicleRemoved 	0
scalar IntersectionExampleScenario.node[629].appl 	ArrivedAtDest 	0
scalar IntersectionExampleScenario.node[629].appl 	IntersectionEnterTime 	1785
scalar IntersectionExampleScenario.node[629].appl 	IntersectionExitTime 	-1
scalar IntersectionExampleScenario.node[629].appl 	NumberOfCollisions 	0
scalar IntersectionExampleScenario.node[629].nic.phy80211p 	busyTime 	0
scalar IntersectionExampleScenario.node[629].nic.mac1609_4 	ReceivedUnicastPackets 	0
scalar IntersectionExampleScenario.node[629].nic.mac1609_4 	ReceivedBroadcasts 	0
scalar IntersectionExampleScenario.node[629].nic.mac1609_4 	SentPackets 	0
scalar IntersectionExampleScenario.node[629].nic.mac1609_4 	SNIRLostPackets 	0
scalar IntersectionExampleScenario.node[629].nic.mac1609_4 	RXTXLostPackets 	0
scalar IntersectionExampleScenario.node[629].nic.mac1609_4 	TotalLostPackets 	0
scalar IntersectionExampleScenario.node[629].nic.mac1609_4 	DroppedPacketsInMac 	0
scalar IntersectionExampleScenario.node[629].nic.mac1609_4 	TooLittleTime 	0
scalar IntersectionExampleScenario.node[629].nic.mac1609_4 	TimesIntoBackoff 	0
scalar IntersectionExampleScenario.node[629].nic.mac1609_4 	SlotsBackoff 	0
scalar IntersectionExampleScenario.node[629].nic.mac1609_4 	NumInternalContention 	0
scalar IntersectionExampleScenario.node[629].nic.mac1609_4 	totalBusyTime 	0
scalar IntersectionExampleScenario.node[629].veinsmobility 	startTime 	1785
scalar IntersectionExampleScenario.node[629].veinsmobility 	totalTime 	15
scalar IntersectionExampleScenario.node[629].veinsmobility 	stopTime 	1800
scalar IntersectionExampleScenario.node[629].veinsmobility 	minSpeed 	5.6500000953674
scalar IntersectionExampleScenario.node[629].veinsmobility 	maxSpeed 	15.64999961853
scalar IntersectionExampleScenario.node[629].veinsmobility 	totalDistance 	189.50473022461
scalar IntersectionExampleScenario.node[629].veinsmobility 	totalCO2Emission 	50.072232647924
scalar IntersectionExampleScenario.node[630].appl 	VehicleRemoved 	0
scalar IntersectionExampleScenario.node[630].appl 	ArrivedAtDest 	0
scalar IntersectionExampleScenario.node[630].appl 	IntersectionEnterTime 	1788.75
scalar IntersectionExampleScenario.node[630].appl 	IntersectionExitTime 	-1
scalar IntersectionExampleScenario.node[630].appl 	NumberOfCollisions 	0
scalar IntersectionExampleScenario.node[630].nic.phy80211p 	busyTime 	0
scalar IntersectionExampleScenario.node[630].nic.mac1609_4 	ReceivedUnicastPackets 	0
scalar IntersectionExampleScenario.node[630].nic.mac1609_4 	ReceivedBroadcasts 	0
scalar IntersectionExampleScenario.node[630].nic.mac1609_4 	SentPackets 	0
scalar IntersectionExampleScenario.node[630].nic.mac1609_4 	SNIRLostPackets 	0
scalar IntersectionExampleScenario.node[630].nic.mac1609_4 	RXTXLostPackets 	0
scalar IntersectionExampleScenario.node[630].nic.mac1609_4 	TotalLostPackets 	0
scalar IntersectionExampleScenario.node[630].nic.mac1609_4 	DroppedPacketsInMac 	0
scalar IntersectionExampleScenario.node[630].nic.mac1609_4 	TooLittleTime 	0
scalar IntersectionExampleScenario.node[630].nic.mac1609_4 	TimesIntoBackoff 	0
scalar IntersectionExampleScenario.node[630].nic.mac1609_4 	SlotsBackoff 	0
scalar IntersectionExampleScenario.node[630].nic.mac1609_4 	NumInternalContention 	0
scalar IntersectionExampleScenario.node[630].nic.mac1609_4 	totalBusyTime 	0
scalar IntersectionExampleScenario.node[630].veinsmobility 	startTime 	1788.75
scalar IntersectionExampleScenario.node[630].veinsmobility 	totalTime 	11.25
scalar IntersectionExampleScenario.node[630].veinsmobility 	stopTime 	1800
scalar IntersectionExampleScenario.node[630].veinsmobility 	minSpeed 	5.6500000953674
scalar IntersectionExampleScenario.node[630].veinsmobility 	maxSpeed 	15.655890464783
scalar IntersectionExampleScenario.node[630].veinsmobility 	totalDistance 	153.22261810303
scalar IntersectionExampleScenario.node[630].veinsmobility 	totalCO2Emission 	49.016163506254
scalar IntersectionExampleScenario.node[631].appl 	VehicleRemoved 	0
scalar IntersectionExampleScenario.node[631].appl 	ArrivedAtDest 	0
scalar IntersectionExampleScenario.node[631].appl 	IntersectionEnterTime 	1795.75
scalar IntersectionExampleScenario.node[631].appl 	IntersectionExitTime 	-1
scalar IntersectionExampleScenario.node[631].appl 	NumberOfCollisions 	0
scalar IntersectionExampleScenario.node[631].nic.phy80211p 	busyTime 	0
scalar IntersectionExampleScenario.node[631].nic.mac1609_4 	ReceivedUnicastPackets 	0
scalar IntersectionExampleScenario.node[631].nic.mac1609_4 	ReceivedBroadcasts 	0
scalar IntersectionExampleScenario.node[631].nic.mac1609_4 	SentPackets 	0
scalar IntersectionExampleScenario.node[631].nic.mac1609_4 	SNIRLostPackets 	0
scalar IntersectionExampleScenario.node[631].nic.mac1609_4 	RXTXLostPackets 	0
scalar IntersectionExampleScenario.node[631].nic.mac1609_4 	TotalLostPackets 	0
scalar IntersectionExampleScenario.node[631].nic.mac1609_4 	DroppedPacketsInMac 	0
scalar IntersectionExampleScenario.node[631].nic.mac1609_4 	TooLittleTime 	0
scalar IntersectionExampleScenario.node[631].nic.mac1609_4 	TimesIntoBackoff 	0
scalar IntersectionExampleScenario.node[631].nic.mac1609_4 	SlotsBackoff 	0
scalar IntersectionExampleScenario.node[631].nic.mac1609_4 	NumInternalContention 	0
scalar IntersectionExampleScenario.node[631].nic.mac1609_4 	totalBusyTime 	0
scalar IntersectionExampleScenario.node[631].veinsmobility 	startTime 	1795.75
scalar IntersectionExampleScenario.node[631].veinsmobility 	totalTime 	4.25
scalar IntersectionExampleScenario.node[631].veinsmobility 	stopTime 	1800
scalar IntersectionExampleScenario.node[631].veinsmobility 	minSpeed 	5.6500000953674
scalar IntersectionExampleScenario.node[631].veinsmobility 	maxSpeed 	15.64999961853
scalar IntersectionExampleScenario.node[631].veinsmobility 	totalDistance 	43.934364318848
scalar IntersectionExampleScenario.node[631].veinsmobility 	totalCO2Emission 	33.562634268961
scalar IntersectionExampleScenario.node[632].appl 	VehicleRemoved 	0
scalar IntersectionExampleScenario.node[632].appl 	ArrivedAtDest 	0
scalar IntersectionExampleScenario.node[632].appl 	IntersectionEnterTime 	1797.75
scalar IntersectionExampleScenario.node[632].appl 	IntersectionExitTime 	-1
scalar IntersectionExampleScenario.node[632].appl 	NumberOfCollisions 	0
scalar IntersectionExampleScenario.node[632].nic.phy80211p 	busyTime 	0
scalar IntersectionExampleScenario.node[632].nic.mac1609_4 	ReceivedUnicastPackets 	0
scalar IntersectionExampleScenario.node[632].nic.mac1609_4 	ReceivedBroadcasts 	0
scalar IntersectionExampleScenario.node[632].nic.mac1609_4 	SentPackets 	0
scalar IntersectionExampleScenario.node[632].nic.mac1609_4 	SNIRLostPackets 	0
scalar IntersectionExampleScenario.node[632].nic.mac1609_4 	RXTXLostPackets 	0
scalar IntersectionExampleScenario.node[632].nic.mac1609_4 	TotalLostPackets 	0
scalar IntersectionExampleScenario.node[632].nic.mac1609_4 	DroppedPacketsInMac 	0
scalar IntersectionExampleScenario.node[632].nic.mac1609_4 	TooLittleTime 	0
scalar IntersectionExampleScenario.node[632].nic.mac1609_4 	TimesIntoBackoff 	0
scalar IntersectionExampleScenario.node[632].nic.mac1609_4 	SlotsBackoff 	0
scalar IntersectionExampleScenario.node[632].nic.mac1609_4 	NumInternalContention 	0
scalar IntersectionExampleScenario.node[632].nic.mac1609_4 	totalBusyTime 	0
scalar IntersectionExampleScenario.node[632].veinsmobility 	startTime 	1797.75
scalar IntersectionExampleScenario.node[632].veinsmobility 	totalTime 	2.25
scalar IntersectionExampleScenario.node[632].veinsmobility 	stopTime 	1800
scalar IntersectionExampleScenario.node[632].veinsmobility 	minSpeed 	5.6500000953674
scalar IntersectionExampleScenario.node[632].veinsmobility 	maxSpeed 	10.64999961853
scalar IntersectionExampleScenario.node[632].veinsmobility 	totalDistance 	17.63436126709
scalar IntersectionExampleScenario.node[632].veinsmobility 	totalCO2Emission 	13.355361796212
scalar IntersectionExampleScenario.node[633].appl 	VehicleRemoved 	0
scalar IntersectionExampleScenario.node[633].appl 	ArrivedAtDest 	0
scalar IntersectionExampleScenario.node[633].appl 	IntersectionEnterTime 	1799.25
scalar IntersectionExampleScenario.node[633].appl 	IntersectionExitTime 	-1
scalar IntersectionExampleScenario.node[633].appl 	NumberOfCollisions 	0
scalar IntersectionExampleScenario.node[633].nic.phy80211p 	busyTime 	0
scalar IntersectionExampleScenario.node[633].nic.mac1609_4 	ReceivedUnicastPackets 	0
scalar IntersectionExampleScenario.node[633].nic.mac1609_4 	ReceivedBroadcasts 	0
scalar IntersectionExampleScenario.node[633].nic.mac1609_4 	SentPackets 	0
scalar IntersectionExampleScenario.node[633].nic.mac1609_4 	SNIRLostPackets 	0
scalar IntersectionExampleScenario.node[633].nic.mac1609_4 	RXTXLostPackets 	0
scalar IntersectionExampleScenario.node[633].nic.mac1609_4 	TotalLostPackets 	0
scalar IntersectionExampleScenario.node[633].nic.mac1609_4 	DroppedPacketsInMac 	0
scalar IntersectionExampleScenario.node[633].nic.mac1609_4 	TooLittleTime 	0
scalar IntersectionExampleScenario.node[633].nic.mac1609_4 	TimesIntoBackoff 	0
scalar IntersectionExampleScenario.node[633].nic.mac1609_4 	SlotsBackoff 	0
scalar IntersectionExampleScenario.node[633].nic.mac1609_4 	NumInternalContention 	0
scalar IntersectionExampleScenario.node[633].nic.mac1609_4 	totalBusyTime 	0
scalar IntersectionExampleScenario.node[633].veinsmobility 	startTime 	1799.25
scalar IntersectionExampleScenario.node[633].veinsmobility 	totalTime 	0.75
scalar IntersectionExampleScenario.node[633].veinsmobility 	stopTime 	1800
scalar IntersectionExampleScenario.node[633].veinsmobility 	minSpeed 	5.6500000953674
scalar IntersectionExampleScenario.node[633].veinsmobility 	maxSpeed 	6.9000000953674
scalar IntersectionExampleScenario.node[633].veinsmobility 	totalDistance 	4.471923828125
scalar IntersectionExampleScenario.node[633].veinsmobility 	totalCO2Emission 	2.7116680206665
