file 24403301 1591398580                                        
version 2
run nodebug-26-20200605-19:05:16-18076
attr configname nodebug
attr datetime 20200605-19:05:16
attr experiment nodebug
attr inifile omnetpp.ini
attr iterationvars ""
attr iterationvars2 $repetition=26
attr measurement ""
attr network "\"org.car2x.veins.modules.application.ExtTraCIScenarioManagerLaunchd.IntersectionExampleScenario\""
attr processid 18076
attr repetition 26
attr replication #26
attr resultdir results
attr runnumber 26
attr seedset 26
param **.coreDebug false
param **.debug false
param *.**.nic.mac1609_4.bitrate 18Mbps
param *.**.nic.mac1609_4.txPower 20mW
param *.**.nic.mac1609_4.useServiceChannel false
param *.**.nic.phy80211p.analogueModels "xmldoc(\"config.xml\")"
param *.**.nic.phy80211p.decider "xmldoc(\"config.xml\")"
param *.**.nic.phy80211p.sensitivity -89dBm
param *.**.nic.phy80211p.thermalNoise -110dBm
param *.**.nic.phy80211p.usePropagationDelay true
param *.**.nic.phy80211p.useThermalNoise true
param *.annotations.draw false
param *.connectionManager.alpha 2.0
param *.connectionManager.carrierFrequency "5.890e9 Hz"
param *.connectionManager.pMax 20mW
param *.connectionManager.sat -89dBm
param *.connectionManager.sendDirect true
param *.manager.autoShutdown true
param *.manager.host "\"localhost\""
param *.manager.launchConfig "xmldoc(\"paramics.launchd.xml\")"
param *.manager.margin 25
param *.manager.moduleDisplayString "\"\""
param *.manager.moduleName "\"node\""
param *.manager.moduleType "\"org.car2x.veins.nodes.Car\""
param *.manager.port 9999
param *.manager.updateInterval 250ms
param *.node[*0].veinsmobility.accidentCount 0
param *.node[*0].veinsmobility.accidentDuration 30s
param *.node[*0].veinsmobility.accidentStart 75s
param *.node[*].appl.LiderSelectZoneRadio 55.0
param *.node[*].appl.ShareDataZoneRadio 110.0
param *.node[*].appl.TiempoSemaforo 30.0
param *.node[*].appl.beaconInterval 1s
param *.node[*].appl.beaconPriority 3
param *.node[*].appl.dataOnSch false
param *.node[*].appl.dataPriority 2
param *.node[*].appl.debug false
param *.node[*].appl.headerLength "256 bit"
param *.node[*].appl.maxOffset 0.005s
param *.node[*].appl.sendBeacons false
param *.node[*].appl.sendData true
param *.node[*].applType "\"Dummy\""
param *.node[*].mobilityType "\"TraCIMobility\""
param *.node[*].mobilityType.debug true
param *.node[*].veinsmobility.x 0
param *.node[*].veinsmobility.y 0
param *.node[*].veinsmobility.z 1.895
param *.node[*].veinsmobilityType "\"org.car2x.veins.modules.mobility.traci.TraCIMobility\""
param *.node[*].veinsmobilityType.debug true
param *.playgroundSizeX 8500m
param *.playgroundSizeY 8500m
param *.playgroundSizeZ 50m
param *.world.use2D false
param *.world.useTorus false

vector 41331  IntersectionExampleScenario.manager  vehiclesinsim  ETV
attr type  int
vector 41332  IntersectionExampleScenario.manager  realtime  ETV
attr type  int
attr unit  s
vector 41335  IntersectionExampleScenario.node[0].veinsmobility  posx  ETV
vector 41336  IntersectionExampleScenario.node[0].veinsmobility  posy  ETV
vector 41337  IntersectionExampleScenario.node[0].veinsmobility  speed  ETV
vector 41338  IntersectionExampleScenario.node[0].veinsmobility  acceleration  ETV
vector 41339  IntersectionExampleScenario.node[0].veinsmobility  co2emission  ETV
vector 41342  IntersectionExampleScenario.node[1].veinsmobility  posx  ETV
vector 41343  IntersectionExampleScenario.node[1].veinsmobility  posy  ETV
vector 41344  IntersectionExampleScenario.node[1].veinsmobility  speed  ETV
vector 41345  IntersectionExampleScenario.node[1].veinsmobility  acceleration  ETV
vector 41346  IntersectionExampleScenario.node[1].veinsmobility  co2emission  ETV
vector 41349  IntersectionExampleScenario.node[2].veinsmobility  posx  ETV
vector 41350  IntersectionExampleScenario.node[2].veinsmobility  posy  ETV
vector 41351  IntersectionExampleScenario.node[2].veinsmobility  speed  ETV
vector 41352  IntersectionExampleScenario.node[2].veinsmobility  acceleration  ETV
vector 41353  IntersectionExampleScenario.node[2].veinsmobility  co2emission  ETV
vector 41356  IntersectionExampleScenario.node[3].veinsmobility  posx  ETV
vector 41357  IntersectionExampleScenario.node[3].veinsmobility  posy  ETV
vector 41358  IntersectionExampleScenario.node[3].veinsmobility  speed  ETV
vector 41359  IntersectionExampleScenario.node[3].veinsmobility  acceleration  ETV
vector 41360  IntersectionExampleScenario.node[3].veinsmobility  co2emission  ETV
vector 41363  IntersectionExampleScenario.node[4].veinsmobility  posx  ETV
vector 41364  IntersectionExampleScenario.node[4].veinsmobility  posy  ETV
vector 41365  IntersectionExampleScenario.node[4].veinsmobility  speed  ETV
vector 41366  IntersectionExampleScenario.node[4].veinsmobility  acceleration  ETV
vector 41367  IntersectionExampleScenario.node[4].veinsmobility  co2emission  ETV
vector 41370  IntersectionExampleScenario.node[5].veinsmobility  posx  ETV
vector 41371  IntersectionExampleScenario.node[5].veinsmobility  posy  ETV
vector 41372  IntersectionExampleScenario.node[5].veinsmobility  speed  ETV
vector 41373  IntersectionExampleScenario.node[5].veinsmobility  acceleration  ETV
vector 41374  IntersectionExampleScenario.node[5].veinsmobility  co2emission  ETV
vector 41377  IntersectionExampleScenario.node[6].veinsmobility  posx  ETV
vector 41378  IntersectionExampleScenario.node[6].veinsmobility  posy  ETV
vector 41379  IntersectionExampleScenario.node[6].veinsmobility  speed  ETV
vector 41380  IntersectionExampleScenario.node[6].veinsmobility  acceleration  ETV
vector 41381  IntersectionExampleScenario.node[6].veinsmobility  co2emission  ETV
vector 41384  IntersectionExampleScenario.node[7].veinsmobility  posx  ETV
vector 41385  IntersectionExampleScenario.node[7].veinsmobility  posy  ETV
vector 41386  IntersectionExampleScenario.node[7].veinsmobility  speed  ETV
vector 41387  IntersectionExampleScenario.node[7].veinsmobility  acceleration  ETV
vector 41388  IntersectionExampleScenario.node[7].veinsmobility  co2emission  ETV
vector 41391  IntersectionExampleScenario.node[8].veinsmobility  posx  ETV
vector 41392  IntersectionExampleScenario.node[8].veinsmobility  posy  ETV
vector 41398  IntersectionExampleScenario.node[9].veinsmobility  posx  ETV
vector 41399  IntersectionExampleScenario.node[9].veinsmobility  posy  ETV
vector 41393  IntersectionExampleScenario.node[8].veinsmobility  speed  ETV
vector 41400  IntersectionExampleScenario.node[9].veinsmobility  speed  ETV
vector 41394  IntersectionExampleScenario.node[8].veinsmobility  acceleration  ETV
vector 41395  IntersectionExampleScenario.node[8].veinsmobility  co2emission  ETV
vector 41401  IntersectionExampleScenario.node[9].veinsmobility  acceleration  ETV
vector 41402  IntersectionExampleScenario.node[9].veinsmobility  co2emission  ETV
vector 41405  IntersectionExampleScenario.node[10].veinsmobility  posx  ETV
vector 41406  IntersectionExampleScenario.node[10].veinsmobility  posy  ETV
vector 41407  IntersectionExampleScenario.node[10].veinsmobility  speed  ETV
vector 41408  IntersectionExampleScenario.node[10].veinsmobility  acceleration  ETV
vector 41409  IntersectionExampleScenario.node[10].veinsmobility  co2emission  ETV
vector 41412  IntersectionExampleScenario.node[11].veinsmobility  posx  ETV
vector 41413  IntersectionExampleScenario.node[11].veinsmobility  posy  ETV
vector 41414  IntersectionExampleScenario.node[11].veinsmobility  speed  ETV
vector 41415  IntersectionExampleScenario.node[11].veinsmobility  acceleration  ETV
vector 41416  IntersectionExampleScenario.node[11].veinsmobility  co2emission  ETV
vector 41419  IntersectionExampleScenario.node[12].veinsmobility  posx  ETV
vector 41420  IntersectionExampleScenario.node[12].veinsmobility  posy  ETV
vector 41421  IntersectionExampleScenario.node[12].veinsmobility  speed  ETV
vector 41422  IntersectionExampleScenario.node[12].veinsmobility  acceleration  ETV
vector 41423  IntersectionExampleScenario.node[12].veinsmobility  co2emission  ETV
vector 41426  IntersectionExampleScenario.node[13].veinsmobility  posx  ETV
vector 41427  IntersectionExampleScenario.node[13].veinsmobility  posy  ETV
vector 41428  IntersectionExampleScenario.node[13].veinsmobility  speed  ETV
vector 41429  IntersectionExampleScenario.node[13].veinsmobility  acceleration  ETV
vector 41430  IntersectionExampleScenario.node[13].veinsmobility  co2emission  ETV
vector 41433  IntersectionExampleScenario.node[14].veinsmobility  posx  ETV
vector 41434  IntersectionExampleScenario.node[14].veinsmobility  posy  ETV
vector 41435  IntersectionExampleScenario.node[14].veinsmobility  speed  ETV
vector 41436  IntersectionExampleScenario.node[14].veinsmobility  acceleration  ETV
vector 41437  IntersectionExampleScenario.node[14].veinsmobility  co2emission  ETV
vector 41440  IntersectionExampleScenario.node[15].veinsmobility  posx  ETV
vector 41441  IntersectionExampleScenario.node[15].veinsmobility  posy  ETV
vector 41442  IntersectionExampleScenario.node[15].veinsmobility  speed  ETV
vector 41443  IntersectionExampleScenario.node[15].veinsmobility  acceleration  ETV
vector 41444  IntersectionExampleScenario.node[15].veinsmobility  co2emission  ETV
vector 41447  IntersectionExampleScenario.node[16].veinsmobility  posx  ETV
vector 41448  IntersectionExampleScenario.node[16].veinsmobility  posy  ETV
vector 41454  IntersectionExampleScenario.node[17].veinsmobility  posx  ETV
vector 41455  IntersectionExampleScenario.node[17].veinsmobility  posy  ETV
vector 41449  IntersectionExampleScenario.node[16].veinsmobility  speed  ETV
vector 41456  IntersectionExampleScenario.node[17].veinsmobility  speed  ETV
vector 41450  IntersectionExampleScenario.node[16].veinsmobility  acceleration  ETV
vector 41451  IntersectionExampleScenario.node[16].veinsmobility  co2emission  ETV
vector 41457  IntersectionExampleScenario.node[17].veinsmobility  acceleration  ETV
vector 41458  IntersectionExampleScenario.node[17].veinsmobility  co2emission  ETV
vector 41461  IntersectionExampleScenario.node[18].veinsmobility  posx  ETV
vector 41462  IntersectionExampleScenario.node[18].veinsmobility  posy  ETV
vector 41463  IntersectionExampleScenario.node[18].veinsmobility  speed  ETV
vector 41464  IntersectionExampleScenario.node[18].veinsmobility  acceleration  ETV
vector 41465  IntersectionExampleScenario.node[18].veinsmobility  co2emission  ETV
41339	10505 5886 16 2896 2.75 52.5 200 0.973 11.450879080643 559.61308734256 2793.1429626243
41338	16391 5418 16 2896 2.75 52.5 200 -6.7711477279663 4 36.98334312439 452.58212473492
41337	21809 5740 13 2896 2.5 52.5 201 0 15.375 2197.6686828136 30446.01081592
41336	27549 6480 10 2896 2.25 52.5 202 237.87945556641 486.85000610352 89831.812316895 41003863.796891
41335	34029 6474 10 2896 2.25 52.5 202 483.14999389648 785.82187652588 112599.71353912 64730670.076962
41346	40503 4819 182 3175 16.25 54.75 155 0.973 11.990504229548 536.83231047313 3367.8600444247
41345	45322 4636 182 3175 16.25 54.75 155 -3.3449401855469 2.5 39.699392318726 290.72942802144
41344	49958 4819 177 3175 16 54.75 156 5.6500000953674 16.125 2209.0246086121 32070.41744625
41343	54777 5112 172 3175 15.75 54.75 157 486.85000610352 486.85000610352 76435.450958252 37212599.76555
41342	59889 5102 172 3175 15.75 54.75 157 238.73443603516 785.82187652588 82266.190956116 47149622.59125
vector 41468  IntersectionExampleScenario.node[19].veinsmobility  posx  ETV
vector 41469  IntersectionExampleScenario.node[19].veinsmobility  posy  ETV
vector 41470  IntersectionExampleScenario.node[19].veinsmobility  speed  ETV
vector 41471  IntersectionExampleScenario.node[19].veinsmobility  acceleration  ETV
vector 41472  IntersectionExampleScenario.node[19].veinsmobility  co2emission  ETV
41360	65392 5081 266 3638 19.25 58.75 159 0.973 11.54047740176 469.81387297111 2359.4695344697
41359	70473 4842 266 3638 19.25 58.75 159 -3.3998680114746 2.5 37.492597579956 183.83073010212
41358	75315 4987 257 3638 19 58.75 160 5.6500000953674 15.5 2268.1688365936 32743.087066611
41357	80302 5256 248 3638 18.75 58.75 161 486.85000610352 486.85000610352 78382.850982666 38160691.479322
41356	85558 5231 248 3638 18.75 58.75 161 236.71771240234 798.59687805176 84930.58290863 49276371.183163
vector 41475  IntersectionExampleScenario.node[20].veinsmobility  posx  ETV
vector 41476  IntersectionExampleScenario.node[20].veinsmobility  posy  ETV
vector 41482  IntersectionExampleScenario.node[21].veinsmobility  posx  ETV
vector 41483  IntersectionExampleScenario.node[21].veinsmobility  posy  ETV
vector 41477  IntersectionExampleScenario.node[20].veinsmobility  speed  ETV
vector 41484  IntersectionExampleScenario.node[21].veinsmobility  speed  ETV
vector 41478  IntersectionExampleScenario.node[20].veinsmobility  acceleration  ETV
vector 41479  IntersectionExampleScenario.node[20].veinsmobility  co2emission  ETV
vector 41485  IntersectionExampleScenario.node[21].veinsmobility  acceleration  ETV
vector 41486  IntersectionExampleScenario.node[21].veinsmobility  co2emission  ETV
vector 41489  IntersectionExampleScenario.node[22].veinsmobility  posx  ETV
vector 41490  IntersectionExampleScenario.node[22].veinsmobility  posy  ETV
vector 41491  IntersectionExampleScenario.node[22].veinsmobility  speed  ETV
vector 41492  IntersectionExampleScenario.node[22].veinsmobility  acceleration  ETV
vector 41493  IntersectionExampleScenario.node[22].veinsmobility  co2emission  ETV
41353	91992 6209 206 4833 17.25 69.25 209 0.973 11.450879080643 566.87849679093 2796.1677227422
41352	98201 5694 206 4833 17.25 69.25 209 -8.2128305435181 4 36.813589096069 483.09835472119
41351	103895 5995 199 4833 17 69.25 210 0 15.375 2179.3116796017 30171.351539771
41350	109890 6891 192 4833 16.75 69.25 211 483.14999389648 732.66677856445 110510.96920776 58958831.573732
41349	116781 6866 192 4833 16.75 69.25 211 184.17810058594 486.85000610352 87557.784332275 38328216.946812
vector 41496  IntersectionExampleScenario.node[23].veinsmobility  posx  ETV
vector 41497  IntersectionExampleScenario.node[23].veinsmobility  posy  ETV
41367	123801 5610 441 4941 24 70.25 186 0.973 11.54047740176 543.13291549273 2799.8627179127
41366	129411 5700 441 4941 24 70.25 186 -2.5998764038086 2.5 38.511121749878 307.39358913916
41365	135111 5973 430 4941 23.75 70.25 187 1.6607292890549 15.5 2214.7813843489 30172.937534444
41364	141084 6165 419 4941 23.5 70.25 188 483.14999389648 483.14999389648 90832.198852539 43885576.321208
41363	147249 6112 419 4941 23.5 70.25 188 184.17810058594 732.94624328613 84353.081832886 41984065.737071
vector 41503  IntersectionExampleScenario.node[24].veinsmobility  posx  ETV
vector 41504  IntersectionExampleScenario.node[24].veinsmobility  posy  ETV
vector 41498  IntersectionExampleScenario.node[23].veinsmobility  speed  ETV
vector 41499  IntersectionExampleScenario.node[23].veinsmobility  acceleration  ETV
vector 41500  IntersectionExampleScenario.node[23].veinsmobility  co2emission  ETV
vector 41505  IntersectionExampleScenario.node[24].veinsmobility  speed  ETV
vector 41506  IntersectionExampleScenario.node[24].veinsmobility  acceleration  ETV
vector 41507  IntersectionExampleScenario.node[24].veinsmobility  co2emission  ETV
41388	154009 5300 843 5372 31 74 173 0.973 11.648172402475 570.44859167763 3359.0295615846
41387	159309 4898 843 5372 31 74 173 -3.1685523986816 2.5 38.341367721558 371.22979006312
41386	164207 5411 826 5372 30.75 74 174 5.6500000953674 15.64999961853 2186.9814138412 29189.224445632
41385	169618 5757 809 5372 30.5 74 175 235.80340576172 483.14999389648 76287.367126465 34222826.355645
41384	175375 5736 809 5372 30.5 74 175 184.17810058594 483.18463134766 69755.626159668 29561354.113212
vector 41510  IntersectionExampleScenario.node[25].veinsmobility  posx  ETV
vector 41511  IntersectionExampleScenario.node[25].veinsmobility  posy  ETV
vector 41512  IntersectionExampleScenario.node[25].veinsmobility  speed  ETV
vector 41513  IntersectionExampleScenario.node[25].veinsmobility  acceleration  ETV
vector 41514  IntersectionExampleScenario.node[25].veinsmobility  co2emission  ETV
41402	181512 5380 970 5565 32.75 75.75 173 0.973 11.648172402475 538.97411327835 2996.0603666852
41401	186892 5236 970 5565 32.75 75.75 173 -4.5 2.5 38.171613693237 307.38607253667
41400	192128 5446 949 5565 32.5 75.75 174 5.6500000953674 15.64999961853 2291.1548566818 31469.394133296
41399	197574 5769 928 5565 32.25 75.75 175 483.14999389648 735.02093505859 93104.809280396 50551771.250801
41398	203343 5753 928 5565 32.25 75.75 175 164.94219970703 486.87936401367 68712.41116333 29075206.993009
vector 41517  IntersectionExampleScenario.node[26].veinsmobility  posx  ETV
vector 41518  IntersectionExampleScenario.node[26].veinsmobility  posy  ETV
vector 41519  IntersectionExampleScenario.node[26].veinsmobility  speed  ETV
vector 41520  IntersectionExampleScenario.node[26].veinsmobility  acceleration  ETV
vector 41521  IntersectionExampleScenario.node[26].veinsmobility  co2emission  ETV
41381	209497 6067 599 5745 27 77.25 202 0.973 11.648172402475 568.25655260613 2905.4596978475
41380	215564 5671 599 5745 27 77.25 202 -8.4908542633057 4 38.001859664917 488.16021245119
41379	221235 5861 584 5745 26.75 77.25 203 0 15.64999961853 2172.5753586292 30408.735714519
41378	227096 6698 569 5745 26.5 77.25 204 486.63604736328 785.82187652588 113701.10959625 65297295.174387
41377	233794 6640 569 5745 26.5 77.25 204 237.98760986328 483.14999389648 90406.769561768 41068366.099514
41395	240434 5599 970 5891 32.75 78.5 184 0.973 11.54047740176 532.68139724718 2752.6105476456
41394	246033 5634 970 5891 32.75 78.5 184 -2.72607421875 2.5000019073486 37.32285118103 304.8819096929
41393	251667 5920 949 5891 32.5 78.5 185 1.9228076934814 15.5 2214.525737524 29893.33273789
41392	257587 6113 928 5891 32.25 78.5 186 237.13494873047 785.82187652588 96903.649406433 54675026.014239
41391	263700 6135 928 5891 32.25 78.5 186 483.14999389648 483.14999389648 89865.898864746 43418708.488004
vector 41524  IntersectionExampleScenario.node[27].veinsmobility  posx  ETV
vector 41525  IntersectionExampleScenario.node[27].veinsmobility  posy  ETV
vector 41526  IntersectionExampleScenario.node[27].veinsmobility  speed  ETV
vector 41527  IntersectionExampleScenario.node[27].veinsmobility  acceleration  ETV
vector 41528  IntersectionExampleScenario.node[27].veinsmobility  co2emission  ETV
41374	270236 6956 478 6558 24.75 84.5 240 0.973 11.450879080643 599.97203746452 2836.5055834928
41373	277192 6266 478 6558 24.75 84.5 240 -8.4870567321777 4 37.15309715271 478.32449572734
41372	283458 6634 465 6558 24.5 84.5 241 0 15.375 2198.746417284 30558.207844133
41371	290092 7945 452 6558 24.25 84.5 242 237.33026123047 486.85000610352 109291.25869751 50476012.013649
41370	298037 7939 452 6558 24.25 84.5 242 483.14999389648 785.82187652588 132512.78795624 74640551.05707
41437	305976 5463 1913 6899 43.75 87.75 177 0.973 11.36141391502 537.70304595225 2901.0044241187
41436	311439 5479 1913 6899 43.75 87.75 177 -2.8812370300293 2.5 36.643835067749 319.54445626191
41435	316918 5570 1888 6899 43.5 87.75 178 5.3571076393127 15.25 2192.4570589066 28926.775140996
41434	322488 5900 1863 6899 43.25 87.75 179 486.85000610352 735.1162109375 95677.75328064 52144127.033462
41433	328388 5902 1863 6899 43.25 87.75 179 486.85000610352 785.82187652588 101944.1919632 59848068.246759
41444	334290 5368 2292 7088 47.5 89.75 170 0.973 11.450879080643 545.94089878499 3086.9892225966
41443	339658 5211 2292 7088 47.5 89.75 170 -4.4142227172852 2.5 37.15309715271 358.79381269085
41442	344869 5360 2265 7088 47.25 89.75 171 5.6500000953674 15.375 2238.5722813606 30437.822384999
41441	350229 5673 2238 7088 47 89.75 172 237.21026611328 486.85000610352 75198.000701904 33873417.093352
41440	355902 5667 2238 7088 47 89.75 172 483.14999389648 793.78281402588 98732.162528992 58597005.640674
vector 41531  IntersectionExampleScenario.node[28].veinsmobility  posx  ETV
vector 41532  IntersectionExampleScenario.node[28].veinsmobility  posy  ETV
vector 41538  IntersectionExampleScenario.node[29].veinsmobility  posx  ETV
vector 41539  IntersectionExampleScenario.node[29].veinsmobility  posy  ETV
vector 41533  IntersectionExampleScenario.node[28].veinsmobility  speed  ETV
vector 41540  IntersectionExampleScenario.node[29].veinsmobility  speed  ETV
vector 41534  IntersectionExampleScenario.node[28].veinsmobility  acceleration  ETV
vector 41535  IntersectionExampleScenario.node[28].veinsmobility  co2emission  ETV
vector 41541  IntersectionExampleScenario.node[29].veinsmobility  acceleration  ETV
vector 41542  IntersectionExampleScenario.node[29].veinsmobility  co2emission  ETV
vector 41545  IntersectionExampleScenario.node[30].veinsmobility  posx  ETV
vector 41546  IntersectionExampleScenario.node[30].veinsmobility  posy  ETV
vector 41547  IntersectionExampleScenario.node[30].veinsmobility  speed  ETV
vector 41548  IntersectionExampleScenario.node[30].veinsmobility  acceleration  ETV
vector 41549  IntersectionExampleScenario.node[30].veinsmobility  co2emission  ETV
41423	362772 6095 1747 7392 42 92.75 204 0.96333723109819 12.099024792222 589.92307095126 3207.3072133542
41422	368867 5738 1747 7392 42 92.75 204 -6.7176465988159 4 40.208654403687 481.76720974402
41421	374605 5906 1724 7392 41.75 92.75 205 0 16.27499961853 2195.6667265892 31787.622487583
41420	380511 6768 1701 7392 41.5 92.75 206 184.17810058594 486.85000610352 85616.752746582 37531142.145959
41419	387279 6798 1701 7392 41.5 92.75 206 238.72613525391 486.85000610352 92245.137329102 42321664.714595
41465	394077 5537 2698 7658 51 95.5 179 0.973 11.200708441096 510.60379818295 2571.0608310022
41464	399614 5442 2698 7658 51 95.5 179 -2.0417213439941 2.5 35.455564498901 258.82529814345
41463	405056 5725 2665 7658 50.75 95.5 180 4.1005530357361 15.02499961853 2219.1885061264 29224.604443975
41462	410781 5931 2632 7658 50.5 95.5 181 184.17810058594 733.81384277344 81215.052154541 40746967.248469
41461	416712 5973 2632 7658 50.5 95.5 181 486.85000610352 486.85000610352 88119.851104736 42901150.048182
vector 41552  IntersectionExampleScenario.node[31].veinsmobility  posx  ETV
vector 41553  IntersectionExampleScenario.node[31].veinsmobility  posy  ETV
vector 41554  IntersectionExampleScenario.node[31].veinsmobility  speed  ETV
vector 41555  IntersectionExampleScenario.node[31].veinsmobility  acceleration  ETV
vector 41556  IntersectionExampleScenario.node[31].veinsmobility  co2emission  ETV
vector 41559  IntersectionExampleScenario.node[32].veinsmobility  posx  ETV
vector 41560  IntersectionExampleScenario.node[32].veinsmobility  posy  ETV
vector 41566  IntersectionExampleScenario.node[33].veinsmobility  posx  ETV
vector 41567  IntersectionExampleScenario.node[33].veinsmobility  posy  ETV
vector 41573  IntersectionExampleScenario.node[34].veinsmobility  posx  ETV
vector 41574  IntersectionExampleScenario.node[34].veinsmobility  posy  ETV
vector 41561  IntersectionExampleScenario.node[32].veinsmobility  speed  ETV
vector 41562  IntersectionExampleScenario.node[32].veinsmobility  acceleration  ETV
vector 41563  IntersectionExampleScenario.node[32].veinsmobility  co2emission  ETV
vector 41568  IntersectionExampleScenario.node[33].veinsmobility  speed  ETV
vector 41575  IntersectionExampleScenario.node[34].veinsmobility  speed  ETV
vector 41569  IntersectionExampleScenario.node[33].veinsmobility  acceleration  ETV
vector 41570  IntersectionExampleScenario.node[33].veinsmobility  co2emission  ETV
vector 41576  IntersectionExampleScenario.node[34].veinsmobility  acceleration  ETV
vector 41577  IntersectionExampleScenario.node[34].veinsmobility  co2emission  ETV
41409	424289 7224 1345 8149 37.25 100.75 255 0.973 11.648172402475 620.56299201005 2915.9487731326
41408	431513 6872 1345 8149 37.25 100.75 255 -8.1007499694824 4 39.529638290405 477.60823123225
41407	438385 6975 1324 8149 37 100.75 256 0 15.64999961853 2228.9076018333 31245.196398202
41406	445360 8481 1303 8149 36.75 100.75 257 483.14999389648 732.75672912598 132409.84742737 69324009.049876
41405	453841 8465 1303 8149 36.75 100.75 257 172.11639404297 486.85000610352 108302.81298828 47946159.815092
vector 41580  IntersectionExampleScenario.node[35].veinsmobility  posx  ETV
vector 41581  IntersectionExampleScenario.node[35].veinsmobility  posy  ETV
vector 41582  IntersectionExampleScenario.node[35].veinsmobility  speed  ETV
vector 41583  IntersectionExampleScenario.node[35].veinsmobility  acceleration  ETV
vector 41584  IntersectionExampleScenario.node[35].veinsmobility  co2emission  ETV
41416	462707 7700 1575 8366 40 102.75 252 0.973 11.648172402475 635.98087200549 3020.1071627192
41415	470407 7452 1575 8366 40 102.75 252 -4.5 2.5 38.341367721558 450.13753289406
41414	477859 7609 1554 8366 39.75 102.75 253 0 15.64999961853 2265.6585163893 31412.409225218
41413	485468 8395 1533 8366 39.5 102.75 254 236.94891357422 483.14999389648 114540.17993164 52726411.593185
41412	493863 8364 1533 8366 39.5 102.75 254 163.923828125 483.14999389648 105429.3682251 46138988.383895
41430	502227 7531 1840 8501 43 104 245 0.973 11.648172402475 623.40900058596 3013.6794747494
41429	509758 7780 1840 8501 43 104 245 -3.8026647567749 2.5 39.020376205444 369.60650617454
41428	517538 7923 1817 8501 42.75 104 246 0 15.64999961853 2302.7135962006 31588.809226786
41427	525461 8167 1793 8501 42.5 104 247 483.14999389648 483.14999389648 119338.04849243 57658177.400737
41426	533628 8140 1793 8501 42.5 104 247 161.27593994141 732.16223144531 109360.58894348 53048628.041214
vector 41587  IntersectionExampleScenario.node[36].veinsmobility  posx  ETV
vector 41588  IntersectionExampleScenario.node[36].veinsmobility  posy  ETV
vector 41589  IntersectionExampleScenario.node[36].veinsmobility  speed  ETV
vector 41590  IntersectionExampleScenario.node[36].veinsmobility  acceleration  ETV
vector 41591  IntersectionExampleScenario.node[36].veinsmobility  co2emission  ETV
41458	542169 6932 2570 8875 50 107.5 231 0.973 11.200708441096 563.891496371 2631.2667818761
41457	549101 7232 2570 8875 50 107.5 231 -3.7666189670563 2.5 35.625318527222 307.84258681917
41456	556333 7475 2539 8875 49.75 107.5 232 0 15.02499961853 2222.5843229704 28170.97789662
41455	563808 7720 2508 8875 49.5 107.5 233 483.14999389648 483.14999389648 112573.94857788 54390102.568306
41454	571528 7679 2508 8875 49.5 107.5 233 184.17810058594 734.93634033203 104292.01557922 51026085.51437
vector 41594  IntersectionExampleScenario.node[37].veinsmobility  posx  ETV
vector 41595  IntersectionExampleScenario.node[37].veinsmobility  posy  ETV
vector 41596  IntersectionExampleScenario.node[37].veinsmobility  speed  ETV
vector 41601  IntersectionExampleScenario.node[38].veinsmobility  posx  ETV
vector 41602  IntersectionExampleScenario.node[38].veinsmobility  posy  ETV
vector 41597  IntersectionExampleScenario.node[37].veinsmobility  acceleration  ETV
vector 41598  IntersectionExampleScenario.node[37].veinsmobility  co2emission  ETV
vector 41603  IntersectionExampleScenario.node[38].veinsmobility  speed  ETV
vector 41604  IntersectionExampleScenario.node[38].veinsmobility  acceleration  ETV
vector 41605  IntersectionExampleScenario.node[38].veinsmobility  co2emission  ETV
41472	580009 6187 3551 9062 58 109.25 206 0.973 11.810082123732 587.79399984552 3140.2194617967
41471	586196 5829 3551 9062 58 109.25 206 -7.2660932540894 4 38.511121749878 500.84526202318
41470	592025 5978 3522 9062 57.75 109.25 207 0 15.875 2181.3956477642 30739.787398888
41469	598003 6888 3493 9062 57.5 109.25 208 486.63604736328 785.82187652588 115642.20670319 66229744.889568
41468	604891 6824 3493 9062 57.5 109.25 208 235.74822998047 483.14999389648 92267.004882812 41956938.420361
41479	611715 6173 3942 9171 61.5 110.25 196 0.973 11.648172402475 579.83383990246 2910.1777628501
41478	617888 6085 3942 9171 61.5 110.25 196 -4.5 2.5000009536743 40.038900375366 445.8318047281
41477	623973 6336 3913 9171 61.25 110.25 197 0 15.721883773804 2241.3485563453 31834.013183456
41476	630309 6567 3884 9171 61 110.25 198 483.13284301758 795.46562957764 111356.4575882 64675140.971984
41475	636876 6564 3884 9171 61 110.25 198 483.14999389648 732.02847290039 103803.77198792 55432209.201836
vector 41608  IntersectionExampleScenario.node[39].veinsmobility  posx  ETV
vector 41609  IntersectionExampleScenario.node[39].veinsmobility  posy  ETV
vector 41610  IntersectionExampleScenario.node[39].veinsmobility  speed  ETV
41507	643672 5228 5029 9389 71 112.25 166 0.973 11.648172402475 547.24845121729 3234.7624572951
41506	648900 4959 5029 9389 71 112.25 166 -4.989013671875 2.5000019073486 38.511121749878 329.98269877059
41505	653859 5311 5000 9389 70.75 112.25 167 5.6500000953674 15.64999961853 2224.5336918831 30889.947651099
41504	659170 5575 4970 9389 70.5 112.25 168 235.064453125 785.82187652588 87809.16822052 50076793.433984
41503	664745 5594 4970 9389 70.5 112.25 168 483.14999389648 483.14999389648 81169.198974609 39216897.989165
vector 41611  IntersectionExampleScenario.node[39].veinsmobility  acceleration  ETV
vector 41612  IntersectionExampleScenario.node[39].veinsmobility  co2emission  ETV
vector 41615  IntersectionExampleScenario.node[40].veinsmobility  posx  ETV
vector 41616  IntersectionExampleScenario.node[40].veinsmobility  posy  ETV
vector 41617  IntersectionExampleScenario.node[40].veinsmobility  speed  ETV
vector 41618  IntersectionExampleScenario.node[40].veinsmobility  acceleration  ETV
vector 41619  IntersectionExampleScenario.node[40].veinsmobility  co2emission  ETV
41451	670909 7728 2570 9949 50 117 269 0.973 11.200708441096 628.74657227085 2902.3434451908
41450	678637 7166 2570 9949 50 117 269 -28.568996429443 4 35.455564498901 1162.8356708655
41449	685803 7383 2539 9949 49.75 117 270 0 15.02499961853 2261.5085954666 30282.332240521
41448	693186 8945 2508 9949 49.5 117 271 486.85000610352 734.4461517334 140595.49971008 74091318.547467
41447	702131 9005 2508 9949 49.5 117 271 486.63604736328 805.39610290527 149312.06182098 84772352.854395
vector 41622  IntersectionExampleScenario.node[41].veinsmobility  posx  ETV
vector 41623  IntersectionExampleScenario.node[41].veinsmobility  posy  ETV
vector 41624  IntersectionExampleScenario.node[41].veinsmobility  speed  ETV
vector 41625  IntersectionExampleScenario.node[41].veinsmobility  acceleration  ETV
vector 41626  IntersectionExampleScenario.node[41].veinsmobility  co2emission  ETV
41493	711537 6834 4115 10191 63 119 225 0.973 11.648172402475 582.43460662659 2811.0400238443
41492	718371 7237 4115 10191 63 119 225 -3.9381833076477 2.5 38.511121749878 323.51141991648
41491	725608 7266 4086 10191 62.75 119 226 0 15.64999961853 2189.4565884154 28815.763168696
41490	732874 7555 4057 10191 62.5 119 227 486.85000610352 734.14950561523 118765.63471985 63191367.281314
41489	740429 7558 4057 10191 62.5 119 227 486.71282958984 785.82187652588 126163.54837799 72032406.358014
vector 41629  IntersectionExampleScenario.node[42].veinsmobility  posx  ETV
vector 41630  IntersectionExampleScenario.node[42].veinsmobility  posy  ETV
vector 41631  IntersectionExampleScenario.node[42].veinsmobility  speed  ETV
vector 41632  IntersectionExampleScenario.node[42].veinsmobility  acceleration  ETV
vector 41633  IntersectionExampleScenario.node[42].veinsmobility  co2emission  ETV
vector 41636  IntersectionExampleScenario.node[43].veinsmobility  posx  ETV
vector 41637  IntersectionExampleScenario.node[43].veinsmobility  posy  ETV
vector 41638  IntersectionExampleScenario.node[43].veinsmobility  speed  ETV
vector 41639  IntersectionExampleScenario.node[43].veinsmobility  acceleration  ETV
vector 41640  IntersectionExampleScenario.node[43].veinsmobility  co2emission  ETV
41500	748789 6338 5000 10623 70.75 122.25 207 0.973 11.200708441096 545.50380619171 2621.9766978562
41499	755127 6284 5000 10623 70.75 122.25 207 -4.5 2.5 35.625318527222 350.00130442834
41498	761411 6667 4970 10623 70.5 122.25 208 0.87729024887085 15.02499961853 2180.9556720257 27156.095261044
41497	768078 6995 4941 10623 70.25 122.25 209 486.85000610352 732.49598693848 110260.71601868 59212878.907056
41496	775073 6996 4941 10623 70.25 122.25 209 486.82830810547 785.82187652588 117820.99100494 68281356.995948
41521	782069 5816 5714 10793 77 123.5 187 0.973 11.450879080643 541.84624830333 2855.816628209
41520	787885 5961 5714 10793 77 123.5 187 -4.2266387939453 2.5000019073486 37.492597579956 326.05719608622
41519	793846 6026 5683 10793 76.75 123.5 188 4.578152179718 15.375 2211.0057492256 28732.293561221
41518	799872 6346 5652 10793 76.5 123.5 189 236.07208251953 486.85000610352 83442.145172119 37882898.344945
41517	806218 6348 5652 10793 76.5 123.5 189 483.14999389648 785.82187652588 107298.9948349 62738388.610452
41486	812566 7520 3942 11019 61.5 125.25 256 0.973 11.648172402475 640.33419357864 3068.8804022646
41485	820086 6792 3942 11019 61.5 125.25 256 -45.400691986084 4 38.341367721558 2378.0186942777
41484	826878 7024 3913 11019 61.25 125.25 257 0 15.64999961853 2208.2963933945 31874.411761394
41483	833902 8608 3884 11019 61 125.25 258 184.17810058594 732.96601867676 118080.27758789 58211062.884659
41482	842510 8647 3884 11019 61 125.25 258 486.85000610352 486.85000610352 125607.30157471 61151915.538292
vector 41643  IntersectionExampleScenario.node[44].veinsmobility  posx  ETV
vector 41644  IntersectionExampleScenario.node[44].veinsmobility  posy  ETV
vector 41645  IntersectionExampleScenario.node[44].veinsmobility  speed  ETV
vector 41646  IntersectionExampleScenario.node[44].veinsmobility  acceleration  ETV
vector 41647  IntersectionExampleScenario.node[44].veinsmobility  co2emission  ETV
vector 41650  IntersectionExampleScenario.node[45].veinsmobility  posx  ETV
vector 41651  IntersectionExampleScenario.node[45].veinsmobility  posy  ETV
vector 41652  IntersectionExampleScenario.node[45].veinsmobility  speed  ETV
vector 41653  IntersectionExampleScenario.node[45].veinsmobility  acceleration  ETV
vector 41654  IntersectionExampleScenario.node[45].veinsmobility  co2emission  ETV
vector 41657  IntersectionExampleScenario.node[46].veinsmobility  posx  ETV
vector 41658  IntersectionExampleScenario.node[46].veinsmobility  posy  ETV
vector 41659  IntersectionExampleScenario.node[46].veinsmobility  speed  ETV
vector 41660  IntersectionExampleScenario.node[46].veinsmobility  acceleration  ETV
vector 41661  IntersectionExampleScenario.node[46].veinsmobility  co2emission  ETV
41542	852360 5349 7210 11793 91 131.25 162 0.973 11.372200971088 511.82076603137 2814.7118083029
41541	857709 5098 7210 11793 91 131.25 162 -3.6203022003174 2.5 37.15309715271 297.03694475282
41540	862807 5240 7184 11793 90.75 131.25 163 5.6500000953674 15.26508140564 2186.9038043022 30580.726722772
41539	868047 5574 7157 11793 90.5 131.25 164 184.17810058594 483.14999389648 65212.881744385 27693780.987401
41538	873621 5588 7157 11793 90.5 131.25 164 486.85000610352 733.95210266113 88238.22277832 48424813.752777
41577	879209 5265 8095 12682 100.25 139 156 0.973 11.54047740176 464.76754451477 2351.2520163557
41576	884474 5176 8095 12682 100.25 139 156 -3.0837745666504 2.5 37.32285118103 180.9740562095
41575	889650 5184 8068 12682 100 139 157 5.6500000953674 15.5 2217.7017784119 31909.281738951
41574	894834 5457 8041 12682 99.75 139 158 483.14999389648 483.14999389648 76337.699035645 36882558.823143
41573	900291 5422 8041 12682 99.75 139 158 184.17810058594 733.50563049316 70935.922073364 36045012.446161
vector 41664  IntersectionExampleScenario.node[47].veinsmobility  posx  ETV
vector 41665  IntersectionExampleScenario.node[47].veinsmobility  posy  ETV
vector 41666  IntersectionExampleScenario.node[47].veinsmobility  speed  ETV
vector 41667  IntersectionExampleScenario.node[47].veinsmobility  acceleration  ETV
vector 41668  IntersectionExampleScenario.node[47].veinsmobility  co2emission  ETV
vector 41671  IntersectionExampleScenario.node[48].veinsmobility  posx  ETV
vector 41672  IntersectionExampleScenario.node[48].veinsmobility  posy  ETV
vector 41673  IntersectionExampleScenario.node[48].veinsmobility  speed  ETV
vector 41674  IntersectionExampleScenario.node[48].veinsmobility  acceleration  ETV
vector 41675  IntersectionExampleScenario.node[48].veinsmobility  co2emission  ETV
41514	906515 7715 5565 12967 75.75 141.75 265 0.973 11.36141391502 635.43890183106 3171.5999217588
41513	914230 7256 5565 12967 75.75 141.75 265 -22.334125518799 4 35.964826583862 910.42344478821
41512	921486 7362 5536 12967 75.5 141.75 266 0 15.25 2179.4433336258 29786.002593541
41511	928848 9073 5507 12967 75.25 141.75 267 486.63604736328 785.82187652588 145388.50298309 81287118.075833
41510	937921 9006 5507 12967 75.25 141.75 267 236.85040283203 483.14999389648 120510.38253784 55514473.603533
41556	946927 5955 7879 13181 98 144 185 0.973 11.200708441096 518.76888136055 2612.6165743823
41555	952882 5958 7879 13181 98 144 185 -2.0900039672852 2.5 35.285810470581 273.66264051429
41554	958840 6143 7856 13181 97.75 144 186 3.4350545406342 15.02499961853 2210.5329446793 28575.456670474
41553	964983 6444 7833 13181 97.5 144 187 483.14999389648 785.82187652588 105931.28929901 61870702.204325
41552	971427 6448 7833 13181 97.5 144 187 483.14999389648 733.60650634766 99209.92767334 53694531.299364
vector 41678  IntersectionExampleScenario.node[49].veinsmobility  posx  ETV
vector 41679  IntersectionExampleScenario.node[49].veinsmobility  posy  ETV
41584	978029 5724 8366 13333 102.75 145.75 173 0.973 11.200708441096 536.84493946388 2766.180290726
41583	983753 5547 8366 13333 102.75 145.75 173 -4.4654960632324 2.5 38.511121749878 329.19658683931
41582	989300 5753 8339 13333 102.5 145.75 174 4.9586052894592 15.308553695679 2197.5104942322 29726.160773443
41581	995053 6058 8311 13333 102.25 145.75 175 482.94787597656 785.82187652588 99768.770072937 58662483.239213
41580	1001111 6057 8311 13333 102.25 145.75 175 483.14999389648 731.63403320312 92842.571762085 50234684.707717
vector 41680  IntersectionExampleScenario.node[49].veinsmobility  speed  ETV
vector 41681  IntersectionExampleScenario.node[49].veinsmobility  acceleration  ETV
vector 41682  IntersectionExampleScenario.node[49].veinsmobility  co2emission  ETV
41528	1007415 7723 6384 13590 83 148.75 264 0.973 11.200708441096 615.87570267717 2869.0966237378
41527	1015138 7415 6384 13590 83 148.75 264 -7.5535264015198 4 36.134572982788 458.71541767552
41526	1022553 7610 6355 13590 82.75 148.75 265 0 15.02499961853 2198.6685487032 28733.012153466
41525	1030163 9098 6326 13590 82.5 148.75 266 237.55419921875 486.85000610352 120845.17221069 56057897.831532
41524	1039261 9091 6326 13590 82.5 148.75 266 483.14999389648 785.82187652588 145141.42293549 81330342.980234
41535	1048352 7426 7210 13611 91 149 233 0.973 11.990504229548 611.47449386733 3168.9845237226
41534	1055778 7765 7210 13611 91 149 233 -3.7683906555176 2.5000004768372 39.699392318726 385.16774030855
41533	1063543 7858 7184 13611 90.75 149 234 0 16.125 2217.2979890956 30870.190024417
41532	1071401 8078 7157 13611 90.5 149 235 486.85000610352 486.85000610352 114409.75143433 55700388.184103
41531	1079479 8054 7157 13611 90.5 149 235 236.36486816406 785.82187652588 121604.6966629 67034067.264619
vector 41685  IntersectionExampleScenario.node[50].veinsmobility  posx  ETV
vector 41686  IntersectionExampleScenario.node[50].veinsmobility  posy  ETV
vector 41687  IntersectionExampleScenario.node[50].veinsmobility  speed  ETV
vector 41688  IntersectionExampleScenario.node[50].veinsmobility  acceleration  ETV
vector 41689  IntersectionExampleScenario.node[50].veinsmobility  co2emission  ETV
vector 41692  IntersectionExampleScenario.node[51].veinsmobility  posx  ETV
vector 41693  IntersectionExampleScenario.node[51].veinsmobility  posy  ETV
vector 41699  IntersectionExampleScenario.node[52].veinsmobility  posx  ETV
vector 41700  IntersectionExampleScenario.node[52].veinsmobility  posy  ETV
vector 41694  IntersectionExampleScenario.node[51].veinsmobility  speed  ETV
vector 41701  IntersectionExampleScenario.node[52].veinsmobility  speed  ETV
vector 41695  IntersectionExampleScenario.node[51].veinsmobility  acceleration  ETV
vector 41696  IntersectionExampleScenario.node[51].veinsmobility  co2emission  ETV
vector 41702  IntersectionExampleScenario.node[52].veinsmobility  acceleration  ETV
vector 41703  IntersectionExampleScenario.node[52].veinsmobility  co2emission  ETV
41570	1088736 6585 8095 13899 100.25 152.25 209 0.973 11.200708441096 553.08616311737 2658.6237157081
41569	1095321 6774 8095 13899 100.25 152.25 209 -3.9083888530731 2.5 37.15309715271 315.50928562343
41568	1102095 7009 8068 13899 100 152.25 210 0 15.02499961853 2203.9083508849 28511.542949889
41567	1109104 7295 8041 13899 99.75 152.25 211 237.9482421875 486.85000610352 94229.835357666 43148688.362176
41566	1116399 7302 8041 13899 99.75 152.25 211 483.14999389648 785.82187652588 118342.8408432 68266829.05557
41598	1123701 5734 9004 13999 108.75 153.25 179 0.973 11.648172402475 532.76382194141 2912.8083386386
41597	1129435 5703 9004 13999 108.75 153.25 179 -3.4591541290283 2.5 38.511121749878 295.11078703616
41596	1135138 6029 8977 13999 108.5 153.25 180 4.8758282661438 15.64999961853 2209.6906352043 29426.931870992
41595	1141167 6299 8950 13999 108.25 153.25 181 486.85000610352 486.85000610352 88119.851104736 42901150.048182
41594	1147466 6281 8950 13999 108.25 153.25 181 238.75646972656 785.82187652588 95104.832496643 54089644.05016
vector 41706  IntersectionExampleScenario.node[53].veinsmobility  posx  ETV
vector 41707  IntersectionExampleScenario.node[53].veinsmobility  posy  ETV
41619	1153901 5577 9567 14299 113.75 156.25 171 0.97223939240464 11.810082123732 536.47855248202 3131.8690242689
41618	1159478 5564 9567 14299 113.75 156.25 171 -3.7097549438477 2.5 38.680875778198 341.26401042336
41617	1165042 5667 9536 14299 113.5 156.25 172 5.6500000953674 15.875 2179.7048873901 29339.643970474
41616	1170709 6033 9505 14299 113.25 156.25 173 486.85000610352 731.86755371094 92284.098175049 50163935.941583
41615	1176742 6029 9505 14299 113.25 156.25 173 486.85000610352 785.82187652588 98826.754173279 58202914.319186
vector 41708  IntersectionExampleScenario.node[53].veinsmobility  speed  ETV
vector 41709  IntersectionExampleScenario.node[53].veinsmobility  acceleration  ETV
vector 41710  IntersectionExampleScenario.node[53].veinsmobility  co2emission  ETV
vector 41713  IntersectionExampleScenario.node[54].veinsmobility  posx  ETV
vector 41714  IntersectionExampleScenario.node[54].veinsmobility  posy  ETV
vector 41715  IntersectionExampleScenario.node[54].veinsmobility  speed  ETV
vector 41716  IntersectionExampleScenario.node[54].veinsmobility  acceleration  ETV
vector 41717  IntersectionExampleScenario.node[54].veinsmobility  co2emission  ETV
41549	1183419 8076 7339 14508 92.25 158.25 265 0.973 10.916047529558 606.86452085839 2593.7347551514
41548	1191495 7242 7339 14508 92.25 158.25 265 -7.4533796310425 4 34.606801986694 457.8675265519
41547	1198737 7675 7312 14508 92 158.25 266 0 14.625 2269.9807856083 30408.998542013
41546	1206412 9188 7285 14508 91.75 158.25 267 162.90466308594 483.36395263672 111538.38122559 49147315.270325
41545	1215600 9147 7285 14508 91.75 158.25 267 486.85000610352 735.21826171875 138820.64353943 73345108.973247
41563	1224747 7627 8068 14561 100 158.75 236 0.973 11.178073597036 587.16911959846 2608.7530139145
41562	1232374 7992 8068 14561 100 158.75 236 -3.6709175109863 2.5000019073486 37.15309715271 329.24897647149
41561	1240366 8174 8041 14561 99.75 158.75 237 0 14.99326133728 2209.3172067925 29462.167020269
41560	1248540 8215 8017 14561 99.5 158.75 238 184.17810058594 731.7657623291 107655.91741943 52889049.523873
41559	1256755 8257 8017 14561 99.5 158.75 238 486.85000610352 486.85000610352 115870.30145264 56411456.969432
vector 41720  IntersectionExampleScenario.node[55].veinsmobility  posx  ETV
vector 41721  IntersectionExampleScenario.node[55].veinsmobility  posy  ETV
vector 41722  IntersectionExampleScenario.node[55].veinsmobility  speed  ETV
vector 41723  IntersectionExampleScenario.node[55].veinsmobility  acceleration  ETV
vector 41724  IntersectionExampleScenario.node[55].veinsmobility  co2emission  ETV
41605	1265413 6637 9062 14837 109.25 161.5 210 0.973 11.200708441096 556.16972231921 2678.7770543159
41604	1272050 6736 9062 14837 109.25 161.5 210 -2.1209259033203 2.5 37.492597579956 296.36829380688
41603	1278786 7033 9033 14837 109 161.5 211 0.98663133382797 15.049049377441 2193.0259708762 28148.676958304
41602	1285819 7349 9004 14837 108.75 161.5 212 184.17810058594 483.27215576172 86559.98727417 37200123.060107
41601	1293168 7380 9004 14837 108.75 161.5 212 486.85000610352 734.99786376953 111642.92752075 59847194.951068
41612	1300548 6555 9418 14937 112.5 162.5 201 0.95328698177265 11.200708441096 598.54865810641 2965.221622732
41611	1307103 6707 9418 14937 112.5 162.5 201 -4.5 2.5 43.260900497437 348.4443495157
41610	1313810 6734 9389 14937 112.25 162.5 202 2.8158555030823 16.479095458984 2236.8910558224 30117.517894695
41609	1320544 7037 9360 14937 112 162.5 203 172.9296875 483.1711730957 81364.45602417 34555369.005226
41608	1327581 7081 9360 14937 112 162.5 203 486.85000610352 734.69735717773 106707.58201599 57072141.448254
41647	1334662 5538 11116 15305 126 166.5 163 0.973 11.36141391502 502.61361299761 2626.4667498687
41646	1340200 5012 11116 15305 126 166.5 163 -2.9943046569824 2.5 37.32285118103 265.59682532031
41645	1345212 5416 11083 15305 125.75 166.5 164 5.6500000953674 15.25 2190.0073680878 30538.900464597
41644	1350628 5765 11050 15305 125.5 166.5 165 235.28527832031 483.14999389648 71294.496124268 31763245.039753
41643	1356393 5746 11050 15305 125.5 166.5 165 184.17810058594 483.14999389648 65703.457794189 27929500.060417
vector 41727  IntersectionExampleScenario.node[56].veinsmobility  posx  ETV
vector 41728  IntersectionExampleScenario.node[56].veinsmobility  posy  ETV
vector 41729  IntersectionExampleScenario.node[56].veinsmobility  speed  ETV
vector 41730  IntersectionExampleScenario.node[56].veinsmobility  acceleration  ETV
vector 41731  IntersectionExampleScenario.node[56].veinsmobility  co2emission  ETV
41591	1362540 8106 8689 15878 105.75 173.25 271 0.973 11.648172402475 660.72195313376 3266.2769628347
41590	1370646 7526 8689 15878 105.75 173.25 271 -16.579334259033 4 38.171613693237 727.93110285636
41589	1378172 7822 8662 15878 105.5 173.25 272 0 15.64999961853 2225.9086112976 30122.10564081
41588	1385994 9503 8635 15878 105.25 173.25 273 486.63604736328 798.59687805176 149614.9943161 84324520.995179
41587	1395497 9432 8635 15878 105.25 173.25 273 237.46997070312 483.14999389648 123731.16192627 57167563.417909
vector 41734  IntersectionExampleScenario.node[57].veinsmobility  posx  ETV
vector 41735  IntersectionExampleScenario.node[57].veinsmobility  posy  ETV
41633	1405083 7058 10351 16026 120.25 175 220 0.973 11.200708441096 559.24273506122 2651.2473217185
41632	1412141 7367 10351 16026 120.25 175 220 -3.8765723705292 2.5000019073486 35.795072555542 324.6978522443
41631	1419508 7579 10318 16026 120 175 221 0 15.02499961853 2213.7892027181 28638.027683183
41630	1427087 7728 10284 16026 119.75 175 222 236.88671875 785.82187652588 115215.59183502 64077004.916282
41629	1434815 7769 10284 16026 119.75 175 222 483.14999389648 483.14999389648 107259.29864502 51822329.485682
vector 41736  IntersectionExampleScenario.node[57].veinsmobility  speed  ETV
vector 41737  IntersectionExampleScenario.node[57].veinsmobility  acceleration  ETV
vector 41738  IntersectionExampleScenario.node[57].veinsmobility  co2emission  ETV
vector 41741  IntersectionExampleScenario.node[58].veinsmobility  posx  ETV
vector 41742  IntersectionExampleScenario.node[58].veinsmobility  posy  ETV
41640	1442985 7247 10553 16302 121.75 178 226 0.973 11.36141391502 593.64124060094 2872.1077956742
41639	1450232 7424 10553 16302 121.75 178 226 -4.5 2.5000009536743 36.813589096069 455.82238544523
41638	1457656 7639 10518 16302 121.5 178 227 0.080486536026001 15.25 2261.5913478881 28842.51140147
41637	1465295 7968 10483 16302 121.25 178 228 486.85000610352 806.11563110352 129359.83786774 75611168.60267
41636	1473263 7966 10483 16302 121.25 178 228 237.71252441406 483.14999389648 101836.52963257 46540570.719835
vector 41743  IntersectionExampleScenario.node[58].veinsmobility  speed  ETV
vector 41744  IntersectionExampleScenario.node[58].veinsmobility  acceleration  ETV
vector 41745  IntersectionExampleScenario.node[58].veinsmobility  co2emission  ETV
41654	1481476 6565 11501 16528 129 180.25 206 0.973 11.810082123732 577.29832341152 3043.7296572694
41653	1488041 6374 11501 16528 129 180.25 206 -7.2814230918884 4 38.511121749878 479.0603217431
41652	1494415 6351 11468 16528 128.75 180.25 207 0 15.875 2181.9666303396 30771.651177532
41651	1500766 7207 11435 16528 128.5 180.25 208 486.85000610352 734.25172424316 109492.99497986 58666148.755127
41650	1507973 7273 11435 16528 128.5 180.25 208 486.63604736328 785.82187652588 115638.59461212 66225926.608567
vector 41748  IntersectionExampleScenario.node[59].veinsmobility  posx  ETV
vector 41749  IntersectionExampleScenario.node[59].veinsmobility  posy  ETV
vector 41750  IntersectionExampleScenario.node[59].veinsmobility  speed  ETV
vector 41751  IntersectionExampleScenario.node[59].veinsmobility  acceleration  ETV
vector 41752  IntersectionExampleScenario.node[59].veinsmobility  co2emission  ETV
41661	1515647 6806 11727 16652 130.75 181.5 204 0.97223939240464 11.648172402475 579.46061442083 2868.6789751141
41660	1522453 6569 11727 16652 130.75 181.5 204 -4.5 2.5000001043081 38.680875778198 430.95627409025
41659	1529022 6953 11694 16652 130.5 181.5 205 0 15.64999961853 2279.4897919297 31874.734453003
41658	1535975 7209 11661 16652 130.25 181.5 206 238.03771972656 486.85000610352 91999.181488037 42126440.31774
41657	1543184 7190 11661 16652 130.25 181.5 206 482.94003295898 805.05782318115 116339.51293182 67950188.430195
vector 41755  IntersectionExampleScenario.node[60].veinsmobility  posx  ETV
vector 41756  IntersectionExampleScenario.node[60].veinsmobility  posy  ETV
vector 41757  IntersectionExampleScenario.node[60].veinsmobility  speed  ETV
vector 41758  IntersectionExampleScenario.node[60].veinsmobility  acceleration  ETV
vector 41759  IntersectionExampleScenario.node[60].veinsmobility  co2emission  ETV
41626	1550775 8504 10098 17377 118.25 189.5 286 0.973 11.450879080643 661.74436251918 3134.5707322859
41625	1559279 8242 10098 17377 118.25 189.5 286 -32.881896972656 4 37.15309715271 1461.7209470053
41624	1567521 8450 10067 17377 118 189.5 287 0 15.375 2215.8207321167 28473.873237489
41623	1575971 10041 10036 17377 117.75 189.5 288 184.17810058594 733.24285888672 130876.93600464 63761716.339297
41622	1586012 10080 10036 17377 117.75 189.5 288 486.85000610352 486.85000610352 140212.80175781 68262603.391582
vector 41762  IntersectionExampleScenario.node[61].veinsmobility  posx  ETV
vector 41763  IntersectionExampleScenario.node[61].veinsmobility  posy  ETV
vector 41769  IntersectionExampleScenario.node[62].veinsmobility  posx  ETV
vector 41770  IntersectionExampleScenario.node[62].veinsmobility  posy  ETV
vector 41764  IntersectionExampleScenario.node[61].veinsmobility  speed  ETV
vector 41771  IntersectionExampleScenario.node[62].veinsmobility  speed  ETV
vector 41765  IntersectionExampleScenario.node[61].veinsmobility  acceleration  ETV
vector 41766  IntersectionExampleScenario.node[61].veinsmobility  co2emission  ETV
vector 41772  IntersectionExampleScenario.node[62].veinsmobility  acceleration  ETV
vector 41773  IntersectionExampleScenario.node[62].veinsmobility  co2emission  ETV
41675	1596894 7262 12841 18106 140.5 197.75 230 0.973 11.00486315618 569.95246852259 2566.4628155854
41674	1604156 6628 12841 18106 140.5 197.75 230 -7.0648303031921 4 34.77654838562 437.73045877993
41673	1610784 7011 12814 18106 140.25 197.75 231 0 14.75 2179.1719316244 29228.932077828
41672	1617795 8112 12787 18106 140 197.75 232 483.14999389648 732.69612121582 120949.5771637 64193447.678157
41671	1625907 8094 12787 18106 140 197.75 232 184.17810058594 486.85000610352 97185.334136963 42790009.951483
41682	1634001 6812 13379 18127 146.25 198 208 0.973 11.990504229548 583.90496529407 2920.3128724751
41681	1640813 6983 13379 18127 146.25 198 208 -3.9181938171387 2.5 39.869146347046 380.81292828636
41680	1647796 7141 13356 18127 146 198 209 0 16.125 2218.5397374835 31204.556173608
41679	1654937 7349 13333 18127 145.75 198 210 483.14999389648 483.14999389648 101461.49871826 49021122.486456
41678	1662286 7298 13333 18127 145.75 198 210 184.17810058594 734.02372741699 94751.780136108 46874341.865402
vector 41776  IntersectionExampleScenario.node[63].veinsmobility  posx  ETV
vector 41777  IntersectionExampleScenario.node[63].veinsmobility  posy  ETV
vector 41778  IntersectionExampleScenario.node[63].veinsmobility  speed  ETV
vector 41779  IntersectionExampleScenario.node[63].veinsmobility  acceleration  ETV
vector 41780  IntersectionExampleScenario.node[63].veinsmobility  co2emission  ETV
vector 41783  IntersectionExampleScenario.node[64].veinsmobility  posx  ETV
vector 41784  IntersectionExampleScenario.node[64].veinsmobility  posy  ETV
vector 41785  IntersectionExampleScenario.node[64].veinsmobility  speed  ETV
vector 41786  IntersectionExampleScenario.node[64].veinsmobility  acceleration  ETV
vector 41787  IntersectionExampleScenario.node[64].veinsmobility  co2emission  ETV
vector 41790  IntersectionExampleScenario.node[65].veinsmobility  posx  ETV
vector 41791  IntersectionExampleScenario.node[65].veinsmobility  posy  ETV
41703	1670540 6320 13849 18404 151.75 201 198 0.973 11.810082123732 565.16170689388 3058.1142988038
41702	1676860 6457 13849 18404 151.75 201 198 -4.3263626098633 2.5 38.511121749878 347.94983280996
41701	1683317 6614 13824 18404 151.5 201 199 1.9917645454407 15.875 2191.5783772469 28393.609336489
41700	1689931 6992 13799 18404 151.25 201 200 235.0771484375 483.14999389648 88353.715820312 40054080.007703
41699	1696923 6976 13799 18404 151.25 201 200 184.17810058594 483.16271972656 81030.007751465 34641025.346862
vector 41792  IntersectionExampleScenario.node[65].veinsmobility  speed  ETV
vector 41793  IntersectionExampleScenario.node[65].veinsmobility  acceleration  ETV
vector 41794  IntersectionExampleScenario.node[65].veinsmobility  co2emission  ETV
vector 41797  IntersectionExampleScenario.node[66].veinsmobility  posx  ETV
vector 41798  IntersectionExampleScenario.node[66].veinsmobility  posy  ETV
vector 41799  IntersectionExampleScenario.node[66].veinsmobility  speed  ETV
vector 41800  IntersectionExampleScenario.node[66].veinsmobility  acceleration  ETV
vector 41801  IntersectionExampleScenario.node[66].veinsmobility  co2emission  ETV
vector 41804  IntersectionExampleScenario.node[67].veinsmobility  posx  ETV
vector 41805  IntersectionExampleScenario.node[67].veinsmobility  posy  ETV
vector 41806  IntersectionExampleScenario.node[67].veinsmobility  speed  ETV
vector 41807  IntersectionExampleScenario.node[67].veinsmobility  acceleration  ETV
vector 41808  IntersectionExampleScenario.node[67].veinsmobility  co2emission  ETV
41668	1704948 7824 12761 18794 139.75 204.75 261 0.973 12.099024792222 676.79952578967 3705.7894100263
41667	1712772 7158 12761 18794 139.75 204.75 261 -13.403636932373 4 40.038900375366 678.7885464911
41666	1719930 7520 12734 18794 139.5 204.75 262 0 16.27499961853 2169.6044979095 30222.825677552
41665	1727450 9192 12707 18794 139.25 204.75 263 486.63604736328 785.82187652588 143256.09999847 80087753.537428
41664	1736642 9136 12707 18794 139.25 204.75 263 239.04711914062 483.14999389648 119229.80450439 55089002.126861
vector 41811  IntersectionExampleScenario.node[68].veinsmobility  posx  ETV
vector 41812  IntersectionExampleScenario.node[68].veinsmobility  posy  ETV
vector 41813  IntersectionExampleScenario.node[68].veinsmobility  speed  ETV
vector 41814  IntersectionExampleScenario.node[68].veinsmobility  acceleration  ETV
vector 41815  IntersectionExampleScenario.node[68].veinsmobility  co2emission  ETV
vector 41818  IntersectionExampleScenario.node[69].veinsmobility  posx  ETV
vector 41819  IntersectionExampleScenario.node[69].veinsmobility  posy  ETV
vector 41820  IntersectionExampleScenario.node[69].veinsmobility  speed  ETV
vector 41825  IntersectionExampleScenario.node[70].veinsmobility  posx  ETV
vector 41826  IntersectionExampleScenario.node[70].veinsmobility  posy  ETV
vector 41821  IntersectionExampleScenario.node[69].veinsmobility  acceleration  ETV
vector 41822  IntersectionExampleScenario.node[69].veinsmobility  co2emission  ETV
vector 41827  IntersectionExampleScenario.node[70].veinsmobility  speed  ETV
vector 41828  IntersectionExampleScenario.node[70].veinsmobility  acceleration  ETV
vector 41829  IntersectionExampleScenario.node[70].veinsmobility  co2emission  ETV
41689	1746981 7655 13715 19539 150.25 212 248 0.973 11.810082123732 628.83818292777 3109.1819115014
41688	1754636 6801 13715 19539 150.25 212 248 -18.685497283936 4 39.699392318726 777.65006193129
41687	1761437 7173 13694 19539 150 212 249 0 15.875 2180.2801961899 31471.008958371
41686	1768610 8680 13673 19539 149.75 212 250 486.85000610352 733.87629699707 129775.36233521 68429498.526019
41685	1777290 8743 13673 19539 149.75 212 250 486.63604736328 785.82187652588 136417.02539825 76483489.629485
41696	1786033 8296 13849 19733 151.75 213.75 249 0.973 11.450879080643 621.14197585746 2871.9591287835
41695	1794329 8115 13849 19733 151.75 213.75 249 -4.5 2.5000019073486 37.32285118103 427.6893887517
41694	1802444 8481 13824 19733 151.5 213.75 250 0 15.375 2283.346930177 31334.805176309
41693	1810925 8777 13799 19733 151.25 213.75 251 237.83312988281 486.85000610352 113727.82974243 52650585.156281
41692	1819702 8758 13799 19733 151.25 213.75 251 483.13339233398 806.11563110352 139365.34738159 79798409.035113
41710	1828460 7554 14352 19840 156.75 214.75 233 0.973 11.990504229548 623.87117903564 3088.9596883166
41709	1836014 7837 14352 19840 156.75 214.75 233 -4.2994346618652 2.5 41.227170944214 384.74959467347
41708	1843851 7991 14326 19840 156.5 214.75 234 0 16.125 2255.7779504601 31269.278820941
41707	1851842 8227 14299 19840 156.25 214.75 235 486.85000610352 486.85000610352 114409.75143433 55700388.184103
41706	1860069 8207 14299 19840 156.25 214.75 235 235.7529296875 794.70073699951 123187.36542511 68830511.231209
vector 41832  IntersectionExampleScenario.node[71].veinsmobility  posx  ETV
vector 41833  IntersectionExampleScenario.node[71].veinsmobility  posy  ETV
vector 41839  IntersectionExampleScenario.node[72].veinsmobility  posx  ETV
vector 41840  IntersectionExampleScenario.node[72].veinsmobility  posy  ETV
vector 41834  IntersectionExampleScenario.node[71].veinsmobility  speed  ETV
vector 41835  IntersectionExampleScenario.node[71].veinsmobility  acceleration  ETV
vector 41836  IntersectionExampleScenario.node[71].veinsmobility  co2emission  ETV
vector 41841  IntersectionExampleScenario.node[72].veinsmobility  speed  ETV
vector 41842  IntersectionExampleScenario.node[72].veinsmobility  acceleration  ETV
vector 41843  IntersectionExampleScenario.node[72].veinsmobility  co2emission  ETV
41738	1869078 5643 16072 20154 175.5 217.75 170 0.973 11.648172402475 532.14583927995 2936.4408532712
41737	1874721 5504 16072 20154 175.5 217.75 170 -3.364631652832 2.5 38.341367721558 283.08400198246
41736	1880225 5756 16049 20154 175.25 217.75 171 5.6500000953674 15.64999961853 2221.3059773445 30290.303376477
41735	1885981 6020 16026 20154 175 217.75 172 486.85000610352 486.85000610352 83738.201049805 40767943.692195
41734	1892001 6008 16026 20154 175 217.75 172 235.51184082031 785.82187652588 89952.212394714 51226535.444367
vector 41846  IntersectionExampleScenario.node[73].veinsmobility  posx  ETV
vector 41847  IntersectionExampleScenario.node[73].veinsmobility  posy  ETV
vector 41853  IntersectionExampleScenario.node[74].veinsmobility  posx  ETV
vector 41854  IntersectionExampleScenario.node[74].veinsmobility  posy  ETV
vector 41848  IntersectionExampleScenario.node[73].veinsmobility  speed  ETV
vector 41849  IntersectionExampleScenario.node[73].veinsmobility  acceleration  ETV
vector 41850  IntersectionExampleScenario.node[73].veinsmobility  co2emission  ETV
vector 41855  IntersectionExampleScenario.node[74].veinsmobility  speed  ETV
vector 41856  IntersectionExampleScenario.node[74].veinsmobility  acceleration  ETV
vector 41857  IntersectionExampleScenario.node[74].veinsmobility  co2emission  ETV
41717	1898811 7738 14481 20499 158 220.75 252 0.973 12.099024792222 642.88482590467 3184.1398020032
41716	1906549 7040 14481 20499 158 220.75 252 -35.650939941406 4 40.378400802612 1631.1561049939
41715	1913589 7243 14454 20499 157.75 220.75 253 0 16.27499961853 2195.3445291519 32356.504840962
41714	1920832 8865 14427 20499 157.5 220.75 254 184.17810058594 486.85000610352 108328.32571411 48273553.065501
41713	1929697 8885 14427 20499 157.5 220.75 254 238.55029296875 486.85000610352 115618.1633606 53702473.745378
vector 41860  IntersectionExampleScenario.node[75].veinsmobility  posx  ETV
vector 41861  IntersectionExampleScenario.node[75].veinsmobility  posy  ETV
vector 41862  IntersectionExampleScenario.node[75].veinsmobility  speed  ETV
vector 41863  IntersectionExampleScenario.node[75].veinsmobility  acceleration  ETV
vector 41864  IntersectionExampleScenario.node[75].veinsmobility  co2emission  ETV
41724	1938983 8116 14837 20841 161.5 223.5 249 0.973 10.756497587458 581.69541551504 2469.5677408622
41723	1947099 8279 14837 20841 161.5 223.5 249 -3.7262954711914 2.5000009536743 33.927785873413 316.51924003498
41722	1955378 8611 14812 20841 161.25 223.5 250 0 14.39999961853 2256.3324902467 28716.930235032
41721	1963989 8741 14786 20841 161 223.5 251 174.53436279297 734.33786010742 113031.04153442 55548628.822596
41720	1972730 8784 14786 20841 161 223.5 251 486.85000610352 486.85000610352 122199.35153198 59492755.039191
vector 41867  IntersectionExampleScenario.node[76].veinsmobility  posx  ETV
vector 41868  IntersectionExampleScenario.node[76].veinsmobility  posy  ETV
vector 41869  IntersectionExampleScenario.node[76].veinsmobility  speed  ETV
vector 41870  IntersectionExampleScenario.node[76].veinsmobility  acceleration  ETV
vector 41871  IntersectionExampleScenario.node[76].veinsmobility  co2emission  ETV
vector 41874  IntersectionExampleScenario.node[77].veinsmobility  posx  ETV
vector 41875  IntersectionExampleScenario.node[77].veinsmobility  posy  ETV
vector 41876  IntersectionExampleScenario.node[77].veinsmobility  speed  ETV
vector 41877  IntersectionExampleScenario.node[77].veinsmobility  acceleration  ETV
vector 41878  IntersectionExampleScenario.node[77].veinsmobility  co2emission  ETV
41731	1982316 7158 15855 21602 173 229.5 227 0.973 11.36141391502 585.20491569527 2815.6975510729
41730	1989474 6810 15855 21602 173 229.5 227 -7.502908706665 4 37.15309715271 468.79349049786
41729	1996284 6848 15832 21602 172.75 229.5 228 0 15.25 2177.1053085327 30128.158571482
41728	2003132 7950 15809 21602 172.5 229.5 229 236.84155273438 483.14999389648 102304.01028442 46765731.482699
41727	2011082 7986 15809 21602 172.5 229.5 229 184.17810058594 483.36395263672 95855.743621826 42137097.215229
41759	2019068 5753 17085 21698 186.25 230.25 177 0.973 11.990504229548 541.74474460472 3005.6049712769
41758	2024821 5839 17085 21698 186.25 230.25 177 -2.1361312866211 2.5 39.529638290405 297.40587932452
41757	2030660 5979 17062 21698 186 230.25 178 3.2018046379089 16.125 2217.2195219994 30517.466742547
41756	2036639 6265 17039 21698 185.75 230.25 179 483.14999389648 483.14999389648 86483.848907471 41784671.071789
41755	2042904 6231 17039 21698 185.75 230.25 179 184.17810058594 732.98783874512 79969.529815674 39816217.153873
vector 41881  IntersectionExampleScenario.node[78].veinsmobility  posx  ETV
vector 41882  IntersectionExampleScenario.node[78].veinsmobility  posy  ETV
vector 41883  IntersectionExampleScenario.node[78].veinsmobility  speed  ETV
vector 41884  IntersectionExampleScenario.node[78].veinsmobility  acceleration  ETV
vector 41885  IntersectionExampleScenario.node[78].veinsmobility  co2emission  ETV
41773	2049536 5239 17826 22145 194.75 233.75 157 0.97223939240464 11.78005768901 520.25007785058 3184.6094037801
41772	2054775 4987 17826 22145 194.75 233.75 157 -3.3498649597168 2.5 38.680875778198 265.96436184892
41771	2059762 5304 17801 22145 194.5 233.75 158 5.6500000953674 15.833322525024 2211.483751297 31649.877740493
41770	2065066 5567 17776 22145 194.25 233.75 159 483.14999389648 483.14999389648 76820.849029541 37115992.739745
41769	2070633 5536 17776 22145 194.25 233.75 159 184.17810058594 731.69825744629 70942.487686157 35761194.261171
vector 41888  IntersectionExampleScenario.node[79].veinsmobility  posx  ETV
vector 41889  IntersectionExampleScenario.node[79].veinsmobility  posy  ETV
vector 41890  IntersectionExampleScenario.node[79].veinsmobility  speed  ETV
vector 41891  IntersectionExampleScenario.node[79].veinsmobility  acceleration  ETV
vector 41892  IntersectionExampleScenario.node[79].veinsmobility  co2emission  ETV
41745	2076570 7368 16352 22598 178.5 237.25 236 0.973 11.648172402475 607.40291236005 2992.5168025118
41744	2083938 6737 16352 22598 178.5 237.25 236 -7.03919506073 4 38.341367721558 481.63103295482
41743	2090675 7071 16327 22598 178.25 237.25 237 0 15.64999961853 2212.4081838131 31409.619262413
41742	2097746 8314 16302 22598 178 237.25 238 236.58178710938 785.82187652588 122221.24040985 66935621.625408
41741	2106060 8329 16302 22598 178 237.25 238 483.14999389648 483.14999389648 114989.69854736 55557272.151317
vector 41895  IntersectionExampleScenario.node[80].veinsmobility  posx  ETV
vector 41896  IntersectionExampleScenario.node[80].veinsmobility  posy  ETV
vector 41897  IntersectionExampleScenario.node[80].veinsmobility  speed  ETV
vector 41898  IntersectionExampleScenario.node[80].veinsmobility  acceleration  ETV
vector 41899  IntersectionExampleScenario.node[80].veinsmobility  co2emission  ETV
vector 41902  IntersectionExampleScenario.node[81].veinsmobility  posx  ETV
vector 41903  IntersectionExampleScenario.node[81].veinsmobility  posy  ETV
vector 41904  IntersectionExampleScenario.node[81].veinsmobility  speed  ETV
vector 41905  IntersectionExampleScenario.node[81].veinsmobility  acceleration  ETV
vector 41906  IntersectionExampleScenario.node[81].veinsmobility  co2emission  ETV
vector 41909  IntersectionExampleScenario.node[82].veinsmobility  posx  ETV
vector 41910  IntersectionExampleScenario.node[82].veinsmobility  posy  ETV
vector 41911  IntersectionExampleScenario.node[82].veinsmobility  speed  ETV
vector 41912  IntersectionExampleScenario.node[82].veinsmobility  acceleration  ETV
vector 41913  IntersectionExampleScenario.node[82].veinsmobility  co2emission  ETV
vector 41916  IntersectionExampleScenario.node[83].veinsmobility  posx  ETV
vector 41917  IntersectionExampleScenario.node[83].veinsmobility  posy  ETV
vector 41918  IntersectionExampleScenario.node[83].veinsmobility  speed  ETV
vector 41919  IntersectionExampleScenario.node[83].veinsmobility  acceleration  ETV
vector 41920  IntersectionExampleScenario.node[83].veinsmobility  co2emission  ETV
vector 41923  IntersectionExampleScenario.node[84].veinsmobility  posx  ETV
vector 41924  IntersectionExampleScenario.node[84].veinsmobility  posy  ETV
vector 41930  IntersectionExampleScenario.node[85].veinsmobility  posx  ETV
vector 41931  IntersectionExampleScenario.node[85].veinsmobility  posy  ETV
vector 41925  IntersectionExampleScenario.node[84].veinsmobility  speed  ETV
vector 41926  IntersectionExampleScenario.node[84].veinsmobility  acceleration  ETV
vector 41927  IntersectionExampleScenario.node[84].veinsmobility  co2emission  ETV
vector 41932  IntersectionExampleScenario.node[85].veinsmobility  speed  ETV
vector 41933  IntersectionExampleScenario.node[85].veinsmobility  acceleration  ETV
vector 41934  IntersectionExampleScenario.node[85].veinsmobility  co2emission  ETV
vector 41937  IntersectionExampleScenario.node[86].veinsmobility  posx  ETV
vector 41938  IntersectionExampleScenario.node[86].veinsmobility  posy  ETV
vector 41939  IntersectionExampleScenario.node[86].veinsmobility  speed  ETV
vector 41940  IntersectionExampleScenario.node[86].veinsmobility  acceleration  ETV
vector 41941  IntersectionExampleScenario.node[86].veinsmobility  co2emission  ETV
41794	2117196 5754 18454 23714 201.5 245.5 177 0.973 12.099024792222 556.02395337322 3171.1272496788
41793	2122950 5406 18454 23714 201.5 245.5 177 -2.1759452819824 2.5 41.396924972534 310.17743309427
41792	2128356 5929 18429 23714 201.25 245.5 178 3.1923451423645 16.27499961853 2210.8431253433 30707.925039483
41791	2134285 6254 18404 23714 201 245.5 179 236.47534179688 486.85000610352 79091.072662354 35925389.66347
41790	2140539 6254 18404 23714 201 245.5 179 483.11968994141 785.82187652588 101414.30007172 59236749.282133
41752	2146793 7929 16652 23714 181.5 245.5 257 0.973 10.756497587458 596.675591037 2631.1409964558
41751	2154722 7383 16652 23714 181.5 245.5 257 -7.1798486709595 4 33.758031845093 490.1504700556
41750	2162105 7657 16627 23714 181.25 245.5 258 0 14.39999961853 2215.8535370827 29448.190220069
41749	2169762 9064 16602 23714 181 245.5 259 486.85000610352 486.85000610352 126094.15158081 61388938.466735
41748	2178826 9045 16602 23714 181 245.5 259 235.42834472656 785.82187652588 132565.50323486 72294259.10942
vector 41944  IntersectionExampleScenario.node[87].veinsmobility  posx  ETV
vector 41945  IntersectionExampleScenario.node[87].veinsmobility  posy  ETV
vector 41946  IntersectionExampleScenario.node[87].veinsmobility  speed  ETV
vector 41947  IntersectionExampleScenario.node[87].veinsmobility  acceleration  ETV
vector 41948  IntersectionExampleScenario.node[87].veinsmobility  co2emission  ETV
41829	2188272 5161 19394 24234 210.75 249 154 0.973 12.099024792222 525.97562139502 3120.1415763377
41828	2193433 5108 19394 24234 210.75 249 154 -3.5245399475098 2.5 40.378400802612 257.84104419861
41827	2198541 5200 19365 24234 210.5 249 155 5.6500000953674 16.27499961853 2219.5884771347 32528.281654722
41826	2203741 5460 19336 24234 210.25 249 156 486.85000610352 486.85000610352 75948.600952148 36975576.837107
41825	2209201 5437 19336 24234 210.25 249 156 236.21575927734 785.82187652588 81497.251213074 46652733.064999
41766	2214638 7527 17826 24962 194.75 254.25 239 0.973 10.916047529558 578.41969498962 2559.3296201743
41765	2222165 6731 17826 24962 194.75 254.25 239 -9.268856048584 4 34.606801986694 476.05911329532
41764	2228896 7180 17801 24962 194.5 254.25 240 0 14.625 2183.7568573952 29158.5670466
41763	2236076 8413 17776 24962 194.25 254.25 241 184.17810058594 483.36395263672 101180.52035522 44553642.635446
41762	2244489 8374 17776 24962 194.25 254.25 241 486.85000610352 735.21826171875 126162.54338074 67182512.833729
vector 41951  IntersectionExampleScenario.node[88].veinsmobility  posx  ETV
vector 41952  IntersectionExampleScenario.node[88].veinsmobility  posy  ETV
vector 41953  IntersectionExampleScenario.node[88].veinsmobility  speed  ETV
vector 41954  IntersectionExampleScenario.node[88].veinsmobility  acceleration  ETV
vector 41955  IntersectionExampleScenario.node[88].veinsmobility  co2emission  ETV
41801	2253264 6890 18553 25201 202.5 256 215 0.973 11.648172402475 570.41805512037 2794.1977412914
41800	2260154 7224 18553 25201 202.5 256 215 -3.916960477829 2.5 38.511121749878 322.7292386057
41799	2267378 7286 18528 25201 202.25 256 216 0 15.64999961853 2189.2995128892 29078.554107068
41798	2274664 7569 18503 25201 202 256 217 184.17810058594 483.29608154297 89512.270294189 38816071.209413
41797	2282233 7558 18503 25201 202 256 217 486.85000610352 734.11668395996 113895.93920898 60819516.280906
vector 41958  IntersectionExampleScenario.node[89].veinsmobility  posx  ETV
vector 41959  IntersectionExampleScenario.node[89].veinsmobility  posy  ETV
vector 41960  IntersectionExampleScenario.node[89].veinsmobility  speed  ETV
vector 41965  IntersectionExampleScenario.node[90].veinsmobility  posx  ETV
vector 41966  IntersectionExampleScenario.node[90].veinsmobility  posy  ETV
vector 41961  IntersectionExampleScenario.node[89].veinsmobility  acceleration  ETV
vector 41962  IntersectionExampleScenario.node[89].veinsmobility  co2emission  ETV
vector 41967  IntersectionExampleScenario.node[90].veinsmobility  speed  ETV
41815	2290424 6317 19207 25489 209 258 197 0.973 11.450879080643 551.64345384073 2809.1185006591
41814	2296741 6319 19207 25489 209 258 197 -2.9897384643555 2.5000009536743 37.32285118103 331.60245634601
41813	2303060 6655 19182 25489 208.75 258 198 2.7010734081268 15.375 2205.4473006725 28177.360532281
41812	2309715 6930 19157 25489 208.5 258 199 184.17810058594 486.85000610352 80590.186279297 34494857.391752
41811	2316645 6957 19157 25489 208.5 258 199 237.28662109375 486.85000610352 88372.416381836 40296491.461937
vector 41968  IntersectionExampleScenario.node[90].veinsmobility  acceleration  ETV
vector 41969  IntersectionExampleScenario.node[90].veinsmobility  co2emission  ETV
41836	2323771 5502 20096 25723 217.25 259.5 170 0.973 11.54047740176 501.9143567539 2741.7446995693
41835	2329273 5447 20096 25723 217.25 259.5 170 -2.8660888671875 2.5 37.15309715271 244.81941475658
41834	2334720 5741 20067 25723 217 259.5 171 5.6500000953674 15.5 2217.0765390396 29825.43892848
41833	2340461 5997 20040 25723 216.75 259.5 172 184.17810058594 733.12521362305 76835.803924561 38543901.419234
41832	2346458 6020 20040 25723 216.75 259.5 172 486.85000610352 486.85000610352 83738.201049805 40767943.692195
41787	2352478 7516 18266 25915 199.5 260.75 246 0.973 11.648172402475 625.30899796513 3091.1569089448
41786	2359994 6889 18266 25915 199.5 260.75 246 -42.296463012695 4 40.208654403687 2119.9572591925
41785	2366883 7047 18242 25915 199.25 260.75 247 0 15.739540100098 2112.7342700958 31084.436945163
41784	2373930 8680 18217 25915 199 260.75 248 483.14999389648 483.14999389648 119821.19848633 57891611.317339
41783	2382610 8655 18217 25915 199 260.75 248 208.07971191406 731.8525390625 115089.81556702 56956994.414572
41780	2391265 8422 18194 26198 198.75 262.75 257 0.973 11.65545238648 637.13338697427 3011.8651049049
41779	2399687 8429 18194 26198 198.75 262.75 257 -4.5 2.5 38.001859664917 456.77016458584
41778	2408116 8407 18171 26198 198.5 262.75 258 0 15.660129547119 2202.6816568002 29813.51645717
41777	2416523 9048 18148 26198 198.25 262.75 259 237.98400878906 483.14999389648 116981.82577515 53909043.529795
41776	2425571 9046 18148 26198 198.25 262.75 259 177.97814941406 483.14999389648 107697.98257446 47113020.472046
41808	2434617 8144 18632 26652 203.25 266 252 0.973 11.200708441096 595.68642898975 2660.748624982
41807	2442761 8315 18632 26652 203.25 266 252 -3.9441618919373 2.5 35.795072555542 332.46089634359
41806	2451076 8508 18605 26652 203 266 253 0 15.02499961853 2228.0194680542 28221.147929497
41805	2459584 8871 18578 26652 202.75 266 254 236.93304443359 483.14999389648 114194.88458252 52449829.106074
41804	2468455 8864 18578 26652 202.75 266 254 172.97296142578 483.18478393555 104797.81759644 45396518.711554
vector 41972  IntersectionExampleScenario.node[91].veinsmobility  posx  ETV
vector 41973  IntersectionExampleScenario.node[91].veinsmobility  posy  ETV
vector 41974  IntersectionExampleScenario.node[91].veinsmobility  speed  ETV
vector 41979  IntersectionExampleScenario.node[92].veinsmobility  posx  ETV
vector 41980  IntersectionExampleScenario.node[92].veinsmobility  posy  ETV
vector 41975  IntersectionExampleScenario.node[91].veinsmobility  acceleration  ETV
vector 41976  IntersectionExampleScenario.node[91].veinsmobility  co2emission  ETV
vector 41981  IntersectionExampleScenario.node[92].veinsmobility  speed  ETV
vector 41982  IntersectionExampleScenario.node[92].veinsmobility  acceleration  ETV
vector 41983  IntersectionExampleScenario.node[92].veinsmobility  co2emission  ETV
41822	2478121 7307 19336 27051 210.25 268.75 235 0.973 12.099024792222 630.31559207806 3133.7291901793
41821	2485428 6938 19336 27051 210.25 268.75 235 -9.2126445770264 4 41.396924972534 514.23600399638
41820	2492366 6994 19309 27051 210 268.75 236 0 16.27499961853 2215.0792930126 32534.034307548
41819	2499360 8284 19282 27051 209.75 268.75 237 236.47241210938 785.82187652588 121734.63674164 66570358.117294
41818	2507644 8296 19282 27051 209.75 268.75 237 483.14999389648 483.14999389648 114506.54855347 55323838.234715
vector 41986  IntersectionExampleScenario.node[93].veinsmobility  posx  ETV
vector 41987  IntersectionExampleScenario.node[93].veinsmobility  posy  ETV
vector 41988  IntersectionExampleScenario.node[93].veinsmobility  speed  ETV
vector 41989  IntersectionExampleScenario.node[93].veinsmobility  acceleration  ETV
vector 41990  IntersectionExampleScenario.node[93].veinsmobility  co2emission  ETV
vector 41993  IntersectionExampleScenario.node[94].veinsmobility  posx  ETV
vector 41994  IntersectionExampleScenario.node[94].veinsmobility  posy  ETV
vector 42000  IntersectionExampleScenario.node[95].veinsmobility  posx  ETV
vector 42001  IntersectionExampleScenario.node[95].veinsmobility  posy  ETV
vector 41995  IntersectionExampleScenario.node[94].veinsmobility  speed  ETV
vector 42007  IntersectionExampleScenario.node[96].veinsmobility  posx  ETV
vector 42008  IntersectionExampleScenario.node[96].veinsmobility  posy  ETV
vector 41996  IntersectionExampleScenario.node[94].veinsmobility  acceleration  ETV
vector 41997  IntersectionExampleScenario.node[94].veinsmobility  co2emission  ETV
vector 42002  IntersectionExampleScenario.node[95].veinsmobility  speed  ETV
vector 42003  IntersectionExampleScenario.node[95].veinsmobility  acceleration  ETV
vector 42004  IntersectionExampleScenario.node[95].veinsmobility  co2emission  ETV
vector 42009  IntersectionExampleScenario.node[96].veinsmobility  speed  ETV
vector 42010  IntersectionExampleScenario.node[96].veinsmobility  acceleration  ETV
vector 42011  IntersectionExampleScenario.node[96].veinsmobility  co2emission  ETV
vector 42014  IntersectionExampleScenario.node[97].veinsmobility  posx  ETV
vector 42015  IntersectionExampleScenario.node[97].veinsmobility  posy  ETV
vector 42016  IntersectionExampleScenario.node[97].veinsmobility  speed  ETV
vector 42017  IntersectionExampleScenario.node[97].veinsmobility  acceleration  ETV
vector 42018  IntersectionExampleScenario.node[97].veinsmobility  co2emission  ETV
41857	2517945 6931 20437 28038 220.25 275.5 222 0.973 12.353032912318 626.40392251265 3426.4994282699
41856	2524876 6611 20437 28038 220.25 275.5 222 -9.1091890335083 4 42.415441513062 535.40304864568
41855	2531487 6609 20406 28038 220 275.5 223 0 16.625 2207.0851590633 32925.373276654
41854	2538096 7838 20375 28038 219.75 275.5 224 235.60009765625 486.85000610352 101073.43572998 46656243.451815
41853	2545934 7830 20375 28038 219.75 275.5 224 483.14999389648 785.82187652588 122958.92710114 69481218.590333
41864	2553764 7475 20624 28343 221.75 277.5 224 0.973 11.810082123732 610.47861789066 3091.4801098128
41863	2561239 7285 20624 28343 221.75 277.5 224 -4.5 2.5000002384186 39.699392318726 451.11591433029
41862	2568524 7569 20593 28343 221.5 277.5 225 0 15.875 2268.5611702008 32068.025424966
41861	2576093 7892 20561 28343 221.25 277.5 226 486.85000610352 733.89680480957 118090.33222961 62740672.725232
41860	2583985 7897 20561 28343 221.25 277.5 226 486.85000610352 806.11563110352 126651.85166168 73263210.531786
vector 42021  IntersectionExampleScenario.node[98].veinsmobility  posx  ETV
vector 42022  IntersectionExampleScenario.node[98].veinsmobility  posy  ETV
vector 42023  IntersectionExampleScenario.node[98].veinsmobility  speed  ETV
vector 42024  IntersectionExampleScenario.node[98].veinsmobility  acceleration  ETV
vector 42025  IntersectionExampleScenario.node[98].veinsmobility  co2emission  ETV
vector 42028  IntersectionExampleScenario.node[99].veinsmobility  posx  ETV
vector 42029  IntersectionExampleScenario.node[99].veinsmobility  posy  ETV
[...]
vector 45637  IntersectionExampleScenario.node[614].veinsmobility  co2emission  ETV
vector 45642  IntersectionExampleScenario.node[615].veinsmobility  speed  ETV
vector 45643  IntersectionExampleScenario.node[615].veinsmobility  acceleration  ETV
vector 45644  IntersectionExampleScenario.node[615].veinsmobility  co2emission  ETV
45441	23796182 9171 203714 212424 1717.5 1789.25 288 0.973 11.648172402475 684.62671334952 3270.8783330296
45440	23805353 8761 203714 212424 1717.5 1789.25 288 -14.48851776123 4 38.511121749878 713.32191893932
45439	23814114 9108 203685 212424 1717.25 1789.25 289 0 15.64999961853 2204.2725756168 28607.307979042
45438	23823222 10705 203656 212424 1717 1789.25 290 184.17810058594 486.85000610352 123586.17529297 54783841.786342
45437	23833927 10724 203656 212424 1717 1789.25 290 236.75640869141 486.85003662109 132797.54656982 61966113.53136
vector 45647  IntersectionExampleScenario.node[616].veinsmobility  posx  ETV
vector 45648  IntersectionExampleScenario.node[616].veinsmobility  posy  ETV
vector 45654  IntersectionExampleScenario.node[617].veinsmobility  posx  ETV
vector 45655  IntersectionExampleScenario.node[617].veinsmobility  posy  ETV
vector 45649  IntersectionExampleScenario.node[616].veinsmobility  speed  ETV
vector 45656  IntersectionExampleScenario.node[617].veinsmobility  speed  ETV
vector 45650  IntersectionExampleScenario.node[616].veinsmobility  acceleration  ETV
vector 45651  IntersectionExampleScenario.node[616].veinsmobility  co2emission  ETV
vector 45657  IntersectionExampleScenario.node[617].veinsmobility  acceleration  ETV
vector 45658  IntersectionExampleScenario.node[617].veinsmobility  co2emission  ETV
45504	23845463 7487 206310 212892 1738 1792.75 220 0.973 11.200708441096 555.75639689511 2607.2837064338
45503	23852950 7793 206310 212892 1738 1792.75 220 -3.787828207016 2.5 35.455564498901 309.50528480544
45502	23860743 7972 206275 212892 1737.75 1792.75 221 0 15.02499961853 2202.321675811 28183.996158848
45501	23868715 8172 206240 212892 1737.5 1792.75 222 184.17810058594 486.99496459961 91668.013031006 39816259.915037
45500	23876887 8204 206240 212892 1737.5 1792.75 222 236.96624755859 486.85000610352 99290.936553955 45526239.705757
vector 45661  IntersectionExampleScenario.node[618].veinsmobility  posx  ETV
vector 45662  IntersectionExampleScenario.node[618].veinsmobility  posy  ETV
vector 45663  IntersectionExampleScenario.node[618].veinsmobility  speed  ETV
vector 45664  IntersectionExampleScenario.node[618].veinsmobility  acceleration  ETV
vector 45665  IntersectionExampleScenario.node[618].veinsmobility  co2emission  ETV
45483	23885497 8976 204967 213543 1727.25 1797.25 281 0.973 11.648172402475 666.54383429832 3231.6399926486
45482	23894473 8552 204967 213543 1727.25 1797.25 281 -7.7729911804199 4 38.511121749878 545.5028116415
45481	23903025 8911 204934 213543 1727 1797.25 282 0 15.64999961853 2216.2266469002 29293.587209843
45480	23911936 10471 204901 213543 1726.75 1797.25 283 483.14999389648 483.14999389648 136731.44827271 66061798.398415
45479	23922407 10431 204901 213543 1726.75 1797.25 283 184.17810058594 733.9766998291 128861.67463684 62885052.161109
vector 45668  IntersectionExampleScenario.node[619].veinsmobility  posx  ETV
vector 45669  IntersectionExampleScenario.node[619].veinsmobility  posy  ETV
vector 45670  IntersectionExampleScenario.node[619].veinsmobility  speed  ETV
vector 45671  IntersectionExampleScenario.node[619].veinsmobility  acceleration  ETV
vector 45672  IntersectionExampleScenario.node[619].veinsmobility  co2emission  ETV
vector 45675  IntersectionExampleScenario.node[620].veinsmobility  posx  ETV
vector 45676  IntersectionExampleScenario.node[620].veinsmobility  posy  ETV
vector 45677  IntersectionExampleScenario.node[620].veinsmobility  speed  ETV
vector 45678  IntersectionExampleScenario.node[620].veinsmobility  acceleration  ETV
vector 45679  IntersectionExampleScenario.node[620].veinsmobility  co2emission  ETV
vector 45682  IntersectionExampleScenario.node[621].veinsmobility  posx  ETV
vector 45683  IntersectionExampleScenario.node[621].veinsmobility  posy  ETV
vector 45689  IntersectionExampleScenario.node[622].veinsmobility  posx  ETV
vector 45690  IntersectionExampleScenario.node[622].veinsmobility  posy  ETV
vector 45684  IntersectionExampleScenario.node[621].veinsmobility  speed  ETV
45490	23934041 8675 206075 213834 1736.25 1799.25 253 0.97223939240464 11.648172402475 666.10861466523 3549.930088127
45489	23942716 8769 206075 213834 1736.25 1799.25 253 -4.5 2.5 38.680875778198 489.1531793281
45488	23951485 9035 206042 213834 1736 1799.25 254 0 15.64999961853 2219.6748519335 30558.269278783
45487	23960520 9435 206011 213834 1735.75 1799.25 255 483.14999389648 483.14999389648 123203.2484436 59525648.733554
45486	23969955 9376 206011 213834 1735.75 1799.25 255 184.17810058594 734.32209777832 115724.01434326 56701317.805469
vector 45685  IntersectionExampleScenario.node[621].veinsmobility  acceleration  ETV
vector 45686  IntersectionExampleScenario.node[621].veinsmobility  co2emission  ETV
vector 45691  IntersectionExampleScenario.node[622].veinsmobility  speed  ETV
vector 45696  IntersectionExampleScenario.node[623].veinsmobility  posx  ETV
vector 45697  IntersectionExampleScenario.node[623].veinsmobility  posy  ETV
vector 45692  IntersectionExampleScenario.node[622].veinsmobility  acceleration  ETV
vector 45693  IntersectionExampleScenario.node[622].veinsmobility  co2emission  ETV
vector 45698  IntersectionExampleScenario.node[623].veinsmobility  speed  ETV
45511	23979987 7640 206770 213960 1741.25 1800 236 0.973 11.200708441096 586.67745991832 2803.4909078479
45510	23987627 7320 206770 213960 1741.25 1800 236 -32.523391723633 4 38.341581344604 1421.6887975626
45509	23994947 7335 206733 213960 1741 1800 237 0 15.541487693787 1837.9129581451 25535.846385181
45508	24002282 8794 206696 213960 1740.75 1800 238 330.43011474609 785.82187652588 127480.05898285 71012366.236848
45507	24011076 8805 206696 213960 1740.75 1800 238 483.14999389648 483.14999389648 114989.69854736 55557272.151317
45518	24019881 7618 207180 213960 1744.25 1800 224 0.973 11.200708441096 563.75080810085 2676.6801720535
45517	24027499 8165 207180 213960 1744.25 1800 224 -3.7302443981171 2.5 37.15309715271 314.15740187121
45516	24035664 8180 207145 213960 1744 1800 225 0 15.318357467651 2115.0970231593 27475.19589545
45515	24043844 8361 207110 213960 1743.75 1800 226 483.14999389648 483.14999389648 109191.89862061 52756065.152091
45514	24052205 8330 207110 213960 1743.75 1800 226 184.17810058594 708.04090881348 99694.440856934 47677716.438899
45532	24060535 6376 207985 213960 1750.5 1800 199 0.973 11.450879080643 511.36744327149 2686.6942788577
45531	24066911 5796 207985 213960 1750.5 1800 199 -7.0903749465942 4 37.464002609253 471.73251758031
45530	24072707 6063 207954 213960 1750.25 1800 200 0 15.375 1524.4867844582 20505.654889949
45529	24078770 7434 207922 213960 1750 1800 201 424.14898681641 486.85000610352 97231.282684326 47057410.789341
45528	24086204 7419 207922 213960 1750 1800 201 483.14999389648 803.92188262939 114393.26782227 67248347.028145
45539	24093623 5517 208941 213960 1759 1800 165 0.973 11.990504229548 484.67555910035 2867.3922564085
45538	24099140 5838 208941 213960 1759 1800 165 -3.9854674339294 2.5000019073486 41.774229049683 363.78484212531
45537	24104978 5973 208914 213960 1758.75 1800 166 0 16.125 1399.9561107345 18024.630906878
45536	24110951 6178 208889 213960 1758.5 1800 167 486.85000610352 486.85000610352 81303.951019287 39582829.04998
45535	24117129 6161 208889 213960 1758.5 1800 167 440.88781738281 785.82187652588 96071.987876892 56891279.358703
45546	24123290 5576 208968 213960 1759.25 1800 164 0.973 11.200708441096 472.0776598759 2390.6150921443
45545	24128866 6076 208968 213960 1759.25 1800 164 -2.135440826416 2.5 37.154386520386 260.55727057728
45544	24134942 6086 208941 213960 1759 1800 165 1.8603026866913 15.12077999115 1721.2344875336 21546.023527282
45543	24141028 6132 208914 213960 1758.75 1800 166 360.42184448242 785.82187652588 93795.013420105 55186569.314004
45542	24147160 6141 208914 213960 1758.75 1800 166 483.14999389648 483.14999389648 80202.898986816 38750030.155961
45553	24153301 5517 209080 213960 1760.25 1800 160 0.973 11.648172402475 517.59791674849 3026.4202220271
45552	24158818 5530 209080 213960 1760.25 1800 160 -3.7293033599854 2.5 37.662370681763 358.65799154443
45551	24164348 5632 209051 213960 1760 1800 161 5.6425728797913 15.64999961853 1922.7883934975 24858.879053853
45550	24169980 5989 209022 213960 1759.75 1800 162 302.08477783203 483.14999389648 73725.757476807 33968645.652208
45549	24175969 5963 209022 213960 1759.75 1800 162 184.17810058594 483.14999389648 63365.5652771 26420585.51241
45560	24181932 4644 209572 213960 1764.75 1800 142 0.973 10.087457651579 335.70543434146 1451.8818885868
45559	24186576 4725 209572 213960 1764.75 1800 142 -4.5 2.5 -22.60000038147 390.03127763005
45558	24191301 4799 209545 213960 1764.5 1800 143 0 14.693218231201 1120.043036974 13174.873007311
45557	24196100 5328 209517 213960 1764.25 1800 144 483.14999389648 483.14999389648 69573.599121094 33614483.990713
45556	24201428 5295 209517 213960 1764.25 1800 144 184.17810058594 465.20236206055 52032.147399902 20258475.511275
45567	24206723 4569 209706 213960 1766 1800 137 0.973 9.2297945184169 293.31696914831 1160.1931865013
45566	24211292 5131 209706 213960 1766 1800 137 -4.5 2.5 -22.038476169109 254.44683692795
45565	24216423 5083 209679 213960 1765.75 1800 138 0 14.610496520996 1178.0148927644 14010.046569049
45564	24221506 5142 209652 213960 1765.5 1800 139 483.14999389648 483.14999389648 67157.849151611 32447314.407702
45563	24226648 5122 209652 213960 1765.5 1800 139 162.90466308594 457.9719543457 48014.419830322 18086290.290811
45574	24231770 4170 209791 213960 1766.75 1800 134 0.973 11.200708441096 298.86432566982 1474.4949669969
45573	24235940 4238 209791 213960 1766.75 1800 134 -6.6904458999634 2.5 -22.60000038147 323.22673136136
45572	24240178 4333 209762 213960 1766.5 1800 135 0 15.02499961853 1018.16857934 12669.355073751
45571	24244511 5032 209733 213960 1766.25 1800 136 483.14999389648 483.14999389648 65708.399169922 31747012.657895
45570	24249543 5006 209733 213960 1766.25 1800 136 216.078125 471.60000610352 53241.480651855 21901494.930811
45581	24254549 3202 210733 213960 1775.25 1800 100 0.973 10.756497587458 249.56000561657 1227.5011431301
45580	24257751 3723 210733 213960 1775.25 1800 100 -3.0391883850098 2.5 -14.297524452209 171.69048975777
45579	24261474 3724 210706 213960 1775 1800 101 2.0756189823151 14.996584892273 1045.0287058353 12984.617372191
45578	24265198 3773 210679 213960 1774.75 1800 102 483.14999389648 483.14999389648 49281.299377441 23810259.493422
45577	24268971 3746 210679 213960 1774.75 1800 102 184.17810058594 445.17184448242 34119.742401123 12201282.368801
45588	24272717 3297 210842 213960 1776.25 1800 96 0.973 12.099024792222 330.67067527936 2106.7143241207
45587	24276014 3218 210842 213960 1776.25 1800 96 -2.9710922241211 2.5 21.39999961853 220.38165120397
45586	24279232 3441 210815 213960 1776 1800 97 5.6500000953674 16.27499961853 1257.6662492752 17037.660072993
45585	24282673 3625 210787 213960 1775.75 1800 98 486.85000610352 486.85000610352 47711.300598145 23228246.987413
45584	24286298 3612 210787 213960 1775.75 1800 98 474.61178588867 785.82187652588 61621.64995575 39673154.693914
45595	24289910 3183 210927 213960 1777 1800 93 0.973 11.648172402475 267.54658182256 1442.5885814391
45594	24293093 3196 210927 213960 1777 1800 93 -7.4922728538513 2.5 -22.60000038147 324.91070143135
45593	24296289 3376 210898 213960 1776.75 1800 94 0 15.64999961853 1146.8507221937 16064.5228903
45592	24299665 3486 210869 213960 1776.5 1800 95 184.17810058594 471.60000610352 31953.735168457 11631697.608036
45591	24303151 3514 210869 213960 1776.5 1800 95 486.85000610352 486.85000610352 46250.750579834 22517178.202084
45602	24306665 2690 211395 213960 1781 1800 77 0.973 12.325337049972 267.14252302456 1746.5713512417
45601	24309355 2789 211395 213960 1781 1800 77 -3.148250579834 2.5 24.193044662476 159.5376455882
45600	24312144 2869 211364 213960 1780.75 1800 78 5.6500000953674 16.588695526123 1143.9483776093 17331.989547416
45599	24315013 2922 211333 213960 1780.5 1800 79 486.85000610352 486.85000610352 38461.150482178 18724811.346996
45598	24317935 2918 211333 213960 1780.5 1800 79 503.60919189453 785.82187652588 51761.505149841 34526452.230305
45609	24320853 2396 211745 213960 1784 1800 65 2.0947737808434 11.648172402475 242.31639952931 1427.2132626354
45608	24323249 2119 211745 213960 1784 1800 65 -0.03271484375 2.5 39.869146347046 100.00243678713
45607	24325368 2428 211716 213960 1783.75 1800 66 5.6500000953674 15.64999961853 946.39511966705 14041.704672585
45606	24327796 2471 211687 213960 1783.5 1800 67 554.45379638672 785.82187652588 45616.897819519 31405417.27996
45605	24330267 2478 211687 213960 1783.5 1800 67 483.14999389648 483.14999389648 32371.049591064 15640072.412346
45616	24332745 2105 211807 213960 1784.5 1800 63 0.973 11.648172402475 205.90392519079 1321.2067747836
45615	24334850 2211 211807 213960 1784.5 1800 63 -2.2396659851074 2.5 17.046770095825 132.56949645213
45614	24337061 2353 211776 213960 1784.25 1800 64 5.6500000953674 15.64999961853 841.1100025177 11476.785825337
45613	24339414 2403 211745 213960 1784 1800 65 483.14999389648 483.14999389648 31404.749603271 15173204.579141
45612	24341817 2381 211745 213960 1784 1800 65 184.17810058594 391.232421875 18347.480010986 5462821.9222964
45623	24344198 2003 212052 213960 1786.5 1800 55 0.973 10.756497587458 188.97071360531 1077.7539098952
45622	24346201 2035 212052 213960 1786.5 1800 55 -0.48024749755859 2.5 33.079030990601 88.027159307447
45621	24348236 2059 212021 213960 1786.25 1800 56 5.6500000953674 14.39999961853 722.5256357193 9601.4315146022
45620	24350295 2083 211990 213960 1786 1800 57 184.17810058594 360.19464111328 15070.898681641 4156149.9542679
45619	24352378 2107 211990 213960 1786 1800 57 486.85000610352 486.85000610352 27750.4503479 13510306.921251
45630	24354485 1830 212180 213960 1787.5 1800 51 0.973 11.102955002194 188.13667496346 1158.3703265657
45629	24356315 1816 212180 213960 1787.5 1800 51 -1.8187217712402 2.5 35.456548690796 94.326363739692
45628	24358131 1922 212147 213960 1787.25 1800 52 5.1953196525574 15.077545166016 622.33006954193 8049.2140286523
45627	24360053 1958 212114 213960 1787 1800 53 644.66044616699 795.46562957764 38818.724327087 28550508.968385
45626	24362011 1959 212114 213960 1787 1800 53 483.14999389648 483.14999389648 25606.949676514 12371997.579915
45637	24363970 1805 212249 213960 1788 1800 49 0.97223939240464 11.648172402475 201.42853131128 1328.2237232594
45636	24365775 1746 212249 213960 1788 1800 49 -0.32978057861328 2.5 38.680967330933 100.24857608838
45635	24367521 1835 212214 213960 1787.75 1800 50 5.6500000953674 15.64999961853 687.60643196106 9863.4076639501
45634	24369356 1875 212180 213960 1787.5 1800 51 603.56848144531 770.58750915527 35523.562683105 24884202.392173
45633	24371231 1886 212180 213960 1787.5 1800 51 483.14999389648 483.14999389648 24640.649688721 11905129.746711
45644	24373117 1767 212284 213960 1788.25 1800 48 2.0743169786213 10.756497587458 202.46792122582 1177.798467884
45643	24374884 1670 212284 213960 1788.25 1800 48 -0.037029266357422 2.5 39.702024459839 88.694447348917
45642	24376554 1798 212249 213960 1788 1800 49 5.6500000953674 15.611875534058 670.07509422302 9565.1931707052
45641	24378352 1826 212214 213960 1787.75 1800 50 164.94219970703 327.27960205078 11809.940612793 2918578.5436774
45640	24380178 1849 212214 213960 1787.75 1800 50 486.85000610352 486.85000610352 24342.500305176 11851146.42215
45651	24382027 1106 212892 213960 1792.75 1800 30 2.0705924192679 11.200708441096 158.94417587314 1144.5413673343
45650	24383133 984 212892 213960 1792.75 1800 30 -0.029376983642578 2.5 38.516077041626 94.07042630461
45649	24384117 1135 212857 213960 1792.5 1800 31 5.6500000953674 15.307156562805 394.34763240814 5337.1485736556
45648	24385252 1180 212822 213960 1792.25 1800 32 702.0555267334 795.54747009277 24208.569351196 18342263.632104
45647	24386432 1184 212822 213960 1792.25 1800 32 483.14999389648 483.14999389648 15460.799804688 7469885.3312695
45658	24387616 1104 212892 213960 1792.75 1800 30 2.1505280638255 11.648172402475 166.20945745217 1262.9814833095
45657	24388720 980 212892 213960 1792.75 1800 30 -0.020156860351562 2.5 40.210561752319 100.08459705057
45656	24389700 1135 212857 213960 1792.5 1800 31 5.6500000953674 15.722317695618 400.95944404602 5541.8554098305
45655	24390835 1181 212822 213960 1792.25 1800 32 171.97772216797 266.95635986328 6763.4175415039 1458400.0750061
45654	24392016 1184 212822 213960 1792.25 1800 32 486.85000610352 486.85000610352 15579.200195312 7584733.7101758
45665	24393200 884 213106 213960 1794.25 1800 24 0.97223939240464 11.648172402475 147.37442295021 1211.3264401799
45664	24394084 727 213106 213960 1794.25 1800 24 -0.32978057861328 2.5 38.812929153442 100.24608466904
45663	24394811 912 213069 213960 1794 1800 25 5.6500000953674 15.64999961853 304.50203418732 3992.6474705509
45662	24395723 961 213032 213960 1793.75 1800 26 486.85000610352 486.85000610352 12658.100158691 6162596.1395178
45661	24396684 961 213032 213960 1793.75 1800 26 714.85090637207 785.82187652588 19683.805122375 14915050.330569
45672	24397645 329 213649 213960 1798 1800 9 5.2162187258585 8.5795037135332 62.00095089838 437.72442123158
45671	24397974 235 213649 213960 1798 1800 9 2.4999980926514 2.5 22.499998092651 56.24999046326
45670	24398209 366 213614 213960 1797.75 1800 10 5.6500000953674 11.27499961853 84.624998092651 748.36558556557
45669	24398575 394 213578 213960 1797.5 1800 11 184.17810058594 201.8125 2104.7561645508 403103.53486123
45668	24398969 406 213578 213960 1797.5 1800 11 486.85000610352 486.85000610352 5355.3500671387 2607252.2128729
45679	24399375 220 213758 213960 1798.75 1800 6 5.2162187258585 7.303684162087 37.542735715336 237.95938883636
45678	24399595 161 213758 213960 1798.75 1800 6 2.4999980926514 2.5 14.999998092651 37.49999046326
45677	24399756 258 213721 213960 1798.5 1800 7 5.6500000953674 9.3999996185303 52.674999237061 407.31685994148
45676	24400014 284 213684 213960 1798.25 1800 8 161.1796875 171.52966308594 1322.9280395508 218871.18353276
45675	24400298 296 213684 213960 1798.25 1800 8 486.85000610352 486.85000610352 3894.8000488281 1896183.4275439
45686	24400594 110 213875 213960 1799.5 1800 3 5.2162187258585 6.0461819274774 16.892854010144 95.467258699338
45685	24400704 74 213875 213960 1799.5 1800 3 2.5 2.5 7.5 18.75
45684	24400778 148 213834 213960 1799.25 1800 4 5.6500000953674 7.5250000953674 26.35000038147 175.53375502586
45683	24400926 183 213795 213960 1799 1800 5 486.85000610352 486.85000610352 2434.2500305176 1185114.642215
45682	24401109 183 213795 213960 1799 1800 5 781.35000610352 785.82187652588 3920.4781417847 3074044.631164
45693	24401292 73 213916 213960 1799.75 1800 2 5.2162187258585 5.6304533568076 10.846672082666 58.910942799184
45692	24401365 49 213916 213960 1799.75 1800 2 2.5 2.5 5 12.5
45691	24401414 110 213875 213960 1799.5 1800 3 5.6500000953674 6.9000000953674 18.825000286102 118.90812859058
45690	24401524 148 213834 213960 1799.25 1800 4 483.14999389648 483.14999389648 1932.5999755859 933735.66640869
45689	24401672 148 213834 213960 1799.25 1800 4 184.17810058594 187.00311279297 740.87182617188 137228.20185051
45698	24401820 35 213960 213960 1800 1800 1 5.6500000953674 5.6500000953674 5.6500000953674 31.922501077652
45697	24401855 73 213916 213960 1799.75 1800 2 152.38513183594 152.38513183594 304.77026367188 46442.456809312
45696	24401928 73 213916 213960 1799.75 1800 2 486.85000610352 486.85000610352 973.70001220703 474045.85688599
41331	24402001 641 0 213959 0 1800 31 0 28 616 13142
41332	24402642 659 0 213959 0 1800 31 0 264 4070 727986
