version 2
run nodebug-26-20200605-19:05:16-18076
attr configname nodebug
attr datetime 20200605-19:05:16
attr experiment nodebug
attr inifile omnetpp.ini
attr iterationvars ""
attr iterationvars2 $repetition=26
attr measurement ""
attr network "\"org.car2x.veins.modules.application.ExtTraCIScenarioManagerLaunchd.IntersectionExampleScenario\""
attr processid 18076
attr repetition 26
attr replication #26
attr resultdir results
attr runnumber 26
attr seedset 26
param **.coreDebug false
param **.debug false
param *.**.nic.mac1609_4.bitrate 18Mbps
param *.**.nic.mac1609_4.txPower 20mW
param *.**.nic.mac1609_4.useServiceChannel false
param *.**.nic.phy80211p.analogueModels "xmldoc(\"config.xml\")"
param *.**.nic.phy80211p.decider "xmldoc(\"config.xml\")"
param *.**.nic.phy80211p.sensitivity -89dBm
param *.**.nic.phy80211p.thermalNoise -110dBm
param *.**.nic.phy80211p.usePropagationDelay true
param *.**.nic.phy80211p.useThermalNoise true
param *.annotations.draw false
param *.connectionManager.alpha 2.0
param *.connectionManager.carrierFrequency "5.890e9 Hz"
param *.connectionManager.pMax 20mW
param *.connectionManager.sat -89dBm
param *.connectionManager.sendDirect true
param *.manager.autoShutdown true
param *.manager.host "\"localhost\""
param *.manager.launchConfig "xmldoc(\"paramics.launchd.xml\")"
param *.manager.margin 25
param *.manager.moduleDisplayString "\"\""
param *.manager.moduleName "\"node\""
param *.manager.moduleType "\"org.car2x.veins.nodes.Car\""
param *.manager.port 9999
param *.manager.updateInterval 250ms
param *.node[*0].veinsmobility.accidentCount 0
param *.node[*0].veinsmobility.accidentDuration 30s
param *.node[*0].veinsmobility.accidentStart 75s
param *.node[*].appl.LiderSelectZoneRadio 55.0
param *.node[*].appl.ShareDataZoneRadio 110.0
param *.node[*].appl.TiempoSemaforo 30.0
param *.node[*].appl.beaconInterval 1s
param *.node[*].appl.beaconPriority 3
param *.node[*].appl.dataOnSch false
param *.node[*].appl.dataPriority 2
param *.node[*].appl.debug false
param *.node[*].appl.headerLength "256 bit"
param *.node[*].appl.maxOffset 0.005s
param *.node[*].appl.sendBeacons false
param *.node[*].appl.sendData true
param *.node[*].applType "\"Dummy\""
param *.node[*].mobilityType "\"TraCIMobility\""
param *.node[*].mobilityType.debug true
param *.node[*].veinsmobility.x 0
param *.node[*].veinsmobility.y 0
param *.node[*].veinsmobility.z 1.895
param *.node[*].veinsmobilityType "\"org.car2x.veins.modules.mobility.traci.TraCIMobility\""
param *.node[*].veinsmobilityType.debug true
param *.playgroundSizeX 8500m
param *.playgroundSizeY 8500m
param *.playgroundSizeZ 50m
param *.world.use2D false
param *.world.useTorus false

scalar IntersectionExampleScenario.node[0].appl 	VehicleRemoved 	0
scalar IntersectionExampleScenario.node[0].appl 	ArrivedAtDest 	1
scalar IntersectionExampleScenario.node[0].appl 	IntersectionEnterTime 	2.25
scalar IntersectionExampleScenario.node[0].appl 	IntersectionExitTime 	36.348652592482
scalar IntersectionExampleScenario.node[0].appl 	NumberOfCollisions 	0
scalar IntersectionExampleScenario.node[0].nic.phy80211p 	busyTime 	0
scalar IntersectionExampleScenario.node[0].nic.mac1609_4 	ReceivedUnicastPackets 	0
scalar IntersectionExampleScenario.node[0].nic.mac1609_4 	ReceivedBroadcasts 	0
scalar IntersectionExampleScenario.node[0].nic.mac1609_4 	SentPackets 	0
scalar IntersectionExampleScenario.node[0].nic.mac1609_4 	SNIRLostPackets 	0
scalar IntersectionExampleScenario.node[0].nic.mac1609_4 	RXTXLostPackets 	0
scalar IntersectionExampleScenario.node[0].nic.mac1609_4 	TotalLostPackets 	0
scalar IntersectionExampleScenario.node[0].nic.mac1609_4 	DroppedPacketsInMac 	0
scalar IntersectionExampleScenario.node[0].nic.mac1609_4 	TooLittleTime 	0
scalar IntersectionExampleScenario.node[0].nic.mac1609_4 	TimesIntoBackoff 	0
scalar IntersectionExampleScenario.node[0].nic.mac1609_4 	SlotsBackoff 	0
scalar IntersectionExampleScenario.node[0].nic.mac1609_4 	NumInternalContention 	0
scalar IntersectionExampleScenario.node[0].nic.mac1609_4 	totalBusyTime 	0
scalar IntersectionExampleScenario.node[0].veinsmobility 	startTime 	2.25
scalar IntersectionExampleScenario.node[0].veinsmobility 	totalTime 	50.25
scalar IntersectionExampleScenario.node[0].veinsmobility 	stopTime 	52.75
scalar IntersectionExampleScenario.node[0].veinsmobility 	minSpeed 	0
scalar IntersectionExampleScenario.node[0].veinsmobility 	maxSpeed 	15.375
scalar IntersectionExampleScenario.node[0].veinsmobility 	totalDistance 	548.74360765567
scalar IntersectionExampleScenario.node[0].veinsmobility 	totalCO2Emission 	139.90327183564
scalar IntersectionExampleScenario.node[1].appl 	VehicleRemoved 	0
scalar IntersectionExampleScenario.node[1].appl 	ArrivedAtDest 	1
scalar IntersectionExampleScenario.node[1].appl 	IntersectionEnterTime 	15.75
scalar IntersectionExampleScenario.node[1].appl 	IntersectionExitTime 	39.312024017534
scalar IntersectionExampleScenario.node[1].appl 	NumberOfCollisions 	0
scalar IntersectionExampleScenario.node[1].nic.phy80211p 	busyTime 	0
scalar IntersectionExampleScenario.node[1].nic.mac1609_4 	ReceivedUnicastPackets 	0
scalar IntersectionExampleScenario.node[1].nic.mac1609_4 	ReceivedBroadcasts 	0
scalar IntersectionExampleScenario.node[1].nic.mac1609_4 	SentPackets 	0
scalar IntersectionExampleScenario.node[1].nic.mac1609_4 	SNIRLostPackets 	0
scalar IntersectionExampleScenario.node[1].nic.mac1609_4 	RXTXLostPackets 	0
scalar IntersectionExampleScenario.node[1].nic.mac1609_4 	TotalLostPackets 	0
scalar IntersectionExampleScenario.node[1].nic.mac1609_4 	DroppedPacketsInMac 	0
scalar IntersectionExampleScenario.node[1].nic.mac1609_4 	TooLittleTime 	0
scalar IntersectionExampleScenario.node[1].nic.mac1609_4 	TimesIntoBackoff 	0
scalar IntersectionExampleScenario.node[1].nic.mac1609_4 	SlotsBackoff 	0
scalar IntersectionExampleScenario.node[1].nic.mac1609_4 	NumInternalContention 	0
scalar IntersectionExampleScenario.node[1].nic.mac1609_4 	totalBusyTime 	0
scalar IntersectionExampleScenario.node[1].veinsmobility 	startTime 	15.75
scalar IntersectionExampleScenario.node[1].veinsmobility 	totalTime 	39
scalar IntersectionExampleScenario.node[1].veinsmobility 	stopTime 	55
scalar IntersectionExampleScenario.node[1].veinsmobility 	minSpeed 	5.6500000953674
scalar IntersectionExampleScenario.node[1].veinsmobility 	maxSpeed 	16.125
scalar IntersectionExampleScenario.node[1].veinsmobility 	totalDistance 	550.98117828369
scalar IntersectionExampleScenario.node[1].veinsmobility 	totalCO2Emission 	134.20807761828
scalar IntersectionExampleScenario.node[3].appl 	VehicleRemoved 	0
scalar IntersectionExampleScenario.node[3].appl 	ArrivedAtDest 	1
scalar IntersectionExampleScenario.node[3].appl 	IntersectionEnterTime 	18.75
scalar IntersectionExampleScenario.node[3].appl 	IntersectionExitTime 	42.536689938745
scalar IntersectionExampleScenario.node[3].appl 	NumberOfCollisions 	0
scalar IntersectionExampleScenario.node[3].nic.phy80211p 	busyTime 	0
scalar IntersectionExampleScenario.node[3].nic.mac1609_4 	ReceivedUnicastPackets 	0
scalar IntersectionExampleScenario.node[3].nic.mac1609_4 	ReceivedBroadcasts 	0
scalar IntersectionExampleScenario.node[3].nic.mac1609_4 	SentPackets 	0
scalar IntersectionExampleScenario.node[3].nic.mac1609_4 	SNIRLostPackets 	0
scalar IntersectionExampleScenario.node[3].nic.mac1609_4 	RXTXLostPackets 	0
scalar IntersectionExampleScenario.node[3].nic.mac1609_4 	TotalLostPackets 	0
scalar IntersectionExampleScenario.node[3].nic.mac1609_4 	DroppedPacketsInMac 	0
scalar IntersectionExampleScenario.node[3].nic.mac1609_4 	TooLittleTime 	0
scalar IntersectionExampleScenario.node[3].nic.mac1609_4 	TimesIntoBackoff 	0
scalar IntersectionExampleScenario.node[3].nic.mac1609_4 	SlotsBackoff 	0
scalar IntersectionExampleScenario.node[3].nic.mac1609_4 	NumInternalContention 	0
scalar IntersectionExampleScenario.node[3].nic.mac1609_4 	totalBusyTime 	0
scalar IntersectionExampleScenario.node[3].veinsmobility 	startTime 	18.75
scalar IntersectionExampleScenario.node[3].veinsmobility 	totalTime 	40
scalar IntersectionExampleScenario.node[3].veinsmobility 	stopTime 	59
scalar IntersectionExampleScenario.node[3].veinsmobility 	minSpeed 	5.6500000953674
scalar IntersectionExampleScenario.node[3].veinsmobility 	maxSpeed 	15.5
scalar IntersectionExampleScenario.node[3].veinsmobility 	totalDistance 	565.63496398926
scalar IntersectionExampleScenario.node[3].veinsmobility 	totalCO2Emission 	117.45346824278
scalar IntersectionExampleScenario.node[2].appl 	VehicleRemoved 	0
scalar IntersectionExampleScenario.node[2].appl 	ArrivedAtDest 	1
scalar IntersectionExampleScenario.node[2].appl 	IntersectionEnterTime 	16.75
scalar IntersectionExampleScenario.node[2].appl 	IntersectionExitTime 	52.817353282997
scalar IntersectionExampleScenario.node[2].appl 	NumberOfCollisions 	0
scalar IntersectionExampleScenario.node[2].nic.phy80211p 	busyTime 	0
scalar IntersectionExampleScenario.node[2].nic.mac1609_4 	ReceivedUnicastPackets 	0
scalar IntersectionExampleScenario.node[2].nic.mac1609_4 	ReceivedBroadcasts 	0
scalar IntersectionExampleScenario.node[2].nic.mac1609_4 	SentPackets 	0
scalar IntersectionExampleScenario.node[2].nic.mac1609_4 	SNIRLostPackets 	0
scalar IntersectionExampleScenario.node[2].nic.mac1609_4 	RXTXLostPackets 	0
scalar IntersectionExampleScenario.node[2].nic.mac1609_4 	TotalLostPackets 	0
scalar IntersectionExampleScenario.node[2].nic.mac1609_4 	DroppedPacketsInMac 	0
scalar IntersectionExampleScenario.node[2].nic.mac1609_4 	TooLittleTime 	0
scalar IntersectionExampleScenario.node[2].nic.mac1609_4 	TimesIntoBackoff 	0
scalar IntersectionExampleScenario.node[2].nic.mac1609_4 	SlotsBackoff 	0
scalar IntersectionExampleScenario.node[2].nic.mac1609_4 	NumInternalContention 	0
scalar IntersectionExampleScenario.node[2].nic.mac1609_4 	totalBusyTime 	0
scalar IntersectionExampleScenario.node[2].veinsmobility 	startTime 	16.75
scalar IntersectionExampleScenario.node[2].veinsmobility 	totalTime 	52.5
scalar IntersectionExampleScenario.node[2].veinsmobility 	stopTime 	69.5
scalar IntersectionExampleScenario.node[2].veinsmobility 	minSpeed 	0
scalar IntersectionExampleScenario.node[2].veinsmobility 	maxSpeed 	15.375
scalar IntersectionExampleScenario.node[2].veinsmobility 	totalDistance 	549.2184231801
scalar IntersectionExampleScenario.node[2].veinsmobility 	totalCO2Emission 	141.71962419773
scalar IntersectionExampleScenario.node[4].appl 	VehicleRemoved 	0
scalar IntersectionExampleScenario.node[4].appl 	ArrivedAtDest 	1
scalar IntersectionExampleScenario.node[4].appl 	IntersectionEnterTime 	23.5
scalar IntersectionExampleScenario.node[4].appl 	IntersectionExitTime 	54.310686543933
scalar IntersectionExampleScenario.node[4].appl 	NumberOfCollisions 	0
scalar IntersectionExampleScenario.node[4].nic.phy80211p 	busyTime 	0
scalar IntersectionExampleScenario.node[4].nic.mac1609_4 	ReceivedUnicastPackets 	0
scalar IntersectionExampleScenario.node[4].nic.mac1609_4 	ReceivedBroadcasts 	0
scalar IntersectionExampleScenario.node[4].nic.mac1609_4 	SentPackets 	0
scalar IntersectionExampleScenario.node[4].nic.mac1609_4 	SNIRLostPackets 	0
scalar IntersectionExampleScenario.node[4].nic.mac1609_4 	RXTXLostPackets 	0
scalar IntersectionExampleScenario.node[4].nic.mac1609_4 	TotalLostPackets 	0
scalar IntersectionExampleScenario.node[4].nic.mac1609_4 	DroppedPacketsInMac 	0
scalar IntersectionExampleScenario.node[4].nic.mac1609_4 	TooLittleTime 	0
scalar IntersectionExampleScenario.node[4].nic.mac1609_4 	TimesIntoBackoff 	0
scalar IntersectionExampleScenario.node[4].nic.mac1609_4 	SlotsBackoff 	0
scalar IntersectionExampleScenario.node[4].nic.mac1609_4 	NumInternalContention 	0
scalar IntersectionExampleScenario.node[4].nic.mac1609_4 	totalBusyTime 	0
scalar IntersectionExampleScenario.node[4].veinsmobility 	startTime 	23.5
scalar IntersectionExampleScenario.node[4].veinsmobility 	totalTime 	46.75
scalar IntersectionExampleScenario.node[4].veinsmobility 	stopTime 	70.5
scalar IntersectionExampleScenario.node[4].veinsmobility 	minSpeed 	1.6607292890549
scalar IntersectionExampleScenario.node[4].veinsmobility 	maxSpeed 	15.5
scalar IntersectionExampleScenario.node[4].veinsmobility 	totalDistance 	552.58758544922
scalar IntersectionExampleScenario.node[4].veinsmobility 	totalCO2Emission 	135.78322887318
scalar IntersectionExampleScenario.node[7].appl 	VehicleRemoved 	0
scalar IntersectionExampleScenario.node[7].appl 	ArrivedAtDest 	1
scalar IntersectionExampleScenario.node[7].appl 	IntersectionEnterTime 	30.5
scalar IntersectionExampleScenario.node[7].appl 	IntersectionExitTime 	57.365412431944
scalar IntersectionExampleScenario.node[7].appl 	NumberOfCollisions 	0
scalar IntersectionExampleScenario.node[7].nic.phy80211p 	busyTime 	0
scalar IntersectionExampleScenario.node[7].nic.mac1609_4 	ReceivedUnicastPackets 	0
scalar IntersectionExampleScenario.node[7].nic.mac1609_4 	ReceivedBroadcasts 	0
scalar IntersectionExampleScenario.node[7].nic.mac1609_4 	SentPackets 	0
scalar IntersectionExampleScenario.node[7].nic.mac1609_4 	SNIRLostPackets 	0
scalar IntersectionExampleScenario.node[7].nic.mac1609_4 	RXTXLostPackets 	0
scalar IntersectionExampleScenario.node[7].nic.mac1609_4 	TotalLostPackets 	0
scalar IntersectionExampleScenario.node[7].nic.mac1609_4 	DroppedPacketsInMac 	0
scalar IntersectionExampleScenario.node[7].nic.mac1609_4 	TooLittleTime 	0
scalar IntersectionExampleScenario.node[7].nic.mac1609_4 	TimesIntoBackoff 	0
scalar IntersectionExampleScenario.node[7].nic.mac1609_4 	SlotsBackoff 	0
scalar IntersectionExampleScenario.node[7].nic.mac1609_4 	NumInternalContention 	0
scalar IntersectionExampleScenario.node[7].nic.mac1609_4 	totalBusyTime 	0
scalar IntersectionExampleScenario.node[7].veinsmobility 	startTime 	30.5
scalar IntersectionExampleScenario.node[7].veinsmobility 	totalTime 	43.5
scalar IntersectionExampleScenario.node[7].veinsmobility 	stopTime 	74.25
scalar IntersectionExampleScenario.node[7].veinsmobility 	minSpeed 	5.6500000953674
scalar IntersectionExampleScenario.node[7].veinsmobility 	maxSpeed 	15.64999961853
scalar IntersectionExampleScenario.node[7].veinsmobility 	totalDistance 	545.75928632479
scalar IntersectionExampleScenario.node[7].veinsmobility 	totalCO2Emission 	142.61214791941
scalar IntersectionExampleScenario.node[9].appl 	VehicleRemoved 	0
scalar IntersectionExampleScenario.node[9].appl 	ArrivedAtDest 	1
scalar IntersectionExampleScenario.node[9].appl 	IntersectionEnterTime 	32.25
scalar IntersectionExampleScenario.node[9].appl 	IntersectionExitTime 	59.301132436638
scalar IntersectionExampleScenario.node[9].appl 	NumberOfCollisions 	0
scalar IntersectionExampleScenario.node[9].nic.phy80211p 	busyTime 	0
scalar IntersectionExampleScenario.node[9].nic.mac1609_4 	ReceivedUnicastPackets 	0
scalar IntersectionExampleScenario.node[9].nic.mac1609_4 	ReceivedBroadcasts 	0
scalar IntersectionExampleScenario.node[9].nic.mac1609_4 	SentPackets 	0
scalar IntersectionExampleScenario.node[9].nic.mac1609_4 	SNIRLostPackets 	0
scalar IntersectionExampleScenario.node[9].nic.mac1609_4 	RXTXLostPackets 	0
scalar IntersectionExampleScenario.node[9].nic.mac1609_4 	TotalLostPackets 	0
scalar IntersectionExampleScenario.node[9].nic.mac1609_4 	DroppedPacketsInMac 	0
scalar IntersectionExampleScenario.node[9].nic.mac1609_4 	TooLittleTime 	0
scalar IntersectionExampleScenario.node[9].nic.mac1609_4 	TimesIntoBackoff 	0
scalar IntersectionExampleScenario.node[9].nic.mac1609_4 	SlotsBackoff 	0
scalar IntersectionExampleScenario.node[9].nic.mac1609_4 	NumInternalContention 	0
scalar IntersectionExampleScenario.node[9].nic.mac1609_4 	totalBusyTime 	0
scalar IntersectionExampleScenario.node[9].veinsmobility 	startTime 	32.25
scalar IntersectionExampleScenario.node[9].veinsmobility 	totalTime 	43.5
scalar IntersectionExampleScenario.node[9].veinsmobility 	stopTime 	76
scalar IntersectionExampleScenario.node[9].veinsmobility 	minSpeed 	5.6500000953674
scalar IntersectionExampleScenario.node[9].veinsmobility 	maxSpeed 	15.64999961853
scalar IntersectionExampleScenario.node[9].veinsmobility 	totalDistance 	571.5412033361
scalar IntersectionExampleScenario.node[9].veinsmobility 	totalCO2Emission 	134.74352831959
scalar IntersectionExampleScenario.node[6].appl 	VehicleRemoved 	0
scalar IntersectionExampleScenario.node[6].appl 	ArrivedAtDest 	1
scalar IntersectionExampleScenario.node[6].appl 	IntersectionEnterTime 	26.5
scalar IntersectionExampleScenario.node[6].appl 	IntersectionExitTime 	60.536882946442
scalar IntersectionExampleScenario.node[6].appl 	NumberOfCollisions 	0
scalar IntersectionExampleScenario.node[6].nic.phy80211p 	busyTime 	0
scalar IntersectionExampleScenario.node[6].nic.mac1609_4 	ReceivedUnicastPackets 	0
scalar IntersectionExampleScenario.node[6].nic.mac1609_4 	ReceivedBroadcasts 	0
scalar IntersectionExampleScenario.node[6].nic.mac1609_4 	SentPackets 	0
scalar IntersectionExampleScenario.node[6].nic.mac1609_4 	SNIRLostPackets 	0
scalar IntersectionExampleScenario.node[6].nic.mac1609_4 	RXTXLostPackets 	0
scalar IntersectionExampleScenario.node[6].nic.mac1609_4 	TotalLostPackets 	0
scalar IntersectionExampleScenario.node[6].nic.mac1609_4 	DroppedPacketsInMac 	0
scalar IntersectionExampleScenario.node[6].nic.mac1609_4 	TooLittleTime 	0
scalar IntersectionExampleScenario.node[6].nic.mac1609_4 	TimesIntoBackoff 	0
scalar IntersectionExampleScenario.node[6].nic.mac1609_4 	SlotsBackoff 	0
scalar IntersectionExampleScenario.node[6].nic.mac1609_4 	NumInternalContention 	0
scalar IntersectionExampleScenario.node[6].nic.mac1609_4 	totalBusyTime 	0
scalar IntersectionExampleScenario.node[6].veinsmobility 	startTime 	26.5
scalar IntersectionExampleScenario.node[6].veinsmobility 	totalTime 	50.75
scalar IntersectionExampleScenario.node[6].veinsmobility 	stopTime 	77.5
scalar IntersectionExampleScenario.node[6].veinsmobility 	minSpeed 	0
scalar IntersectionExampleScenario.node[6].veinsmobility 	maxSpeed 	15.64999961853
scalar IntersectionExampleScenario.node[6].veinsmobility 	totalDistance 	543.37075711638
scalar IntersectionExampleScenario.node[6].veinsmobility 	totalCO2Emission 	142.06413815153
scalar IntersectionExampleScenario.node[8].appl 	VehicleRemoved 	0
scalar IntersectionExampleScenario.node[8].appl 	ArrivedAtDest 	1
scalar IntersectionExampleScenario.node[8].appl 	IntersectionEnterTime 	32.25
scalar IntersectionExampleScenario.node[8].appl 	IntersectionExitTime 	62.335324214248
scalar IntersectionExampleScenario.node[8].appl 	NumberOfCollisions 	0
scalar IntersectionExampleScenario.node[8].nic.phy80211p 	busyTime 	0
scalar IntersectionExampleScenario.node[8].nic.mac1609_4 	ReceivedUnicastPackets 	0
scalar IntersectionExampleScenario.node[8].nic.mac1609_4 	ReceivedBroadcasts 	0
scalar IntersectionExampleScenario.node[8].nic.mac1609_4 	SentPackets 	0
scalar IntersectionExampleScenario.node[8].nic.mac1609_4 	SNIRLostPackets 	0
scalar IntersectionExampleScenario.node[8].nic.mac1609_4 	RXTXLostPackets 	0
scalar IntersectionExampleScenario.node[8].nic.mac1609_4 	TotalLostPackets 	0
scalar IntersectionExampleScenario.node[8].nic.mac1609_4 	DroppedPacketsInMac 	0
scalar IntersectionExampleScenario.node[8].nic.mac1609_4 	TooLittleTime 	0
scalar IntersectionExampleScenario.node[8].nic.mac1609_4 	TimesIntoBackoff 	0
scalar IntersectionExampleScenario.node[8].nic.mac1609_4 	SlotsBackoff 	0
scalar IntersectionExampleScenario.node[8].nic.mac1609_4 	NumInternalContention 	0
scalar IntersectionExampleScenario.node[8].nic.mac1609_4 	totalBusyTime 	0
scalar IntersectionExampleScenario.node[8].veinsmobility 	startTime 	32.25
scalar IntersectionExampleScenario.node[8].veinsmobility 	totalTime 	46.25
scalar IntersectionExampleScenario.node[8].veinsmobility 	stopTime 	78.75
scalar IntersectionExampleScenario.node[8].veinsmobility 	minSpeed 	1.9228076934814
scalar IntersectionExampleScenario.node[8].veinsmobility 	maxSpeed 	15.5
scalar IntersectionExampleScenario.node[8].veinsmobility 	totalDistance 	552.43210601807
scalar IntersectionExampleScenario.node[8].veinsmobility 	totalCO2Emission 	133.17034931179
scalar IntersectionExampleScenario.node[5].appl 	VehicleRemoved 	0
scalar IntersectionExampleScenario.node[5].appl 	ArrivedAtDest 	1
scalar IntersectionExampleScenario.node[5].appl 	IntersectionEnterTime 	24.25
scalar IntersectionExampleScenario.node[5].appl 	IntersectionExitTime 	68.267747807404
scalar IntersectionExampleScenario.node[5].appl 	NumberOfCollisions 	0
scalar IntersectionExampleScenario.node[5].nic.phy80211p 	busyTime 	0
scalar IntersectionExampleScenario.node[5].nic.mac1609_4 	ReceivedUnicastPackets 	0
scalar IntersectionExampleScenario.node[5].nic.mac1609_4 	ReceivedBroadcasts 	0
scalar IntersectionExampleScenario.node[5].nic.mac1609_4 	SentPackets 	0
scalar IntersectionExampleScenario.node[5].nic.mac1609_4 	SNIRLostPackets 	0
scalar IntersectionExampleScenario.node[5].nic.mac1609_4 	RXTXLostPackets 	0
scalar IntersectionExampleScenario.node[5].nic.mac1609_4 	TotalLostPackets 	0
scalar IntersectionExampleScenario.node[5].nic.mac1609_4 	DroppedPacketsInMac 	0
scalar IntersectionExampleScenario.node[5].nic.mac1609_4 	TooLittleTime 	0
scalar IntersectionExampleScenario.node[5].nic.mac1609_4 	TimesIntoBackoff 	0
scalar IntersectionExampleScenario.node[5].nic.mac1609_4 	SlotsBackoff 	0
scalar IntersectionExampleScenario.node[5].nic.mac1609_4 	NumInternalContention 	0
scalar IntersectionExampleScenario.node[5].nic.mac1609_4 	totalBusyTime 	0
scalar IntersectionExampleScenario.node[5].veinsmobility 	startTime 	24.25
scalar IntersectionExampleScenario.node[5].veinsmobility 	totalTime 	60.25
scalar IntersectionExampleScenario.node[5].veinsmobility 	stopTime 	84.75
scalar IntersectionExampleScenario.node[5].veinsmobility 	minSpeed 	0
scalar IntersectionExampleScenario.node[5].veinsmobility 	maxSpeed 	15.375
scalar IntersectionExampleScenario.node[5].veinsmobility 	totalDistance 	549.30342210879
scalar IntersectionExampleScenario.node[5].veinsmobility 	totalCO2Emission 	149.99300936613
scalar IntersectionExampleScenario.node[14].appl 	VehicleRemoved 	0
scalar IntersectionExampleScenario.node[14].appl 	ArrivedAtDest 	1
scalar IntersectionExampleScenario.node[14].appl 	IntersectionEnterTime 	43.25
scalar IntersectionExampleScenario.node[14].appl 	IntersectionExitTime 	70.565427725873
scalar IntersectionExampleScenario.node[14].appl 	NumberOfCollisions 	0
scalar IntersectionExampleScenario.node[14].nic.phy80211p 	busyTime 	0
scalar IntersectionExampleScenario.node[14].nic.mac1609_4 	ReceivedUnicastPackets 	0
scalar IntersectionExampleScenario.node[14].nic.mac1609_4 	ReceivedBroadcasts 	0
scalar IntersectionExampleScenario.node[14].nic.mac1609_4 	SentPackets 	0
scalar IntersectionExampleScenario.node[14].nic.mac1609_4 	SNIRLostPackets 	0
scalar IntersectionExampleScenario.node[14].nic.mac1609_4 	RXTXLostPackets 	0
scalar IntersectionExampleScenario.node[14].nic.mac1609_4 	TotalLostPackets 	0
scalar IntersectionExampleScenario.node[14].nic.mac1609_4 	DroppedPacketsInMac 	0
scalar IntersectionExampleScenario.node[14].nic.mac1609_4 	TooLittleTime 	0
scalar IntersectionExampleScenario.node[14].nic.mac1609_4 	TimesIntoBackoff 	0
scalar IntersectionExampleScenario.node[14].nic.mac1609_4 	SlotsBackoff 	0
scalar IntersectionExampleScenario.node[14].nic.mac1609_4 	NumInternalContention 	0
scalar IntersectionExampleScenario.node[14].nic.mac1609_4 	totalBusyTime 	0
scalar IntersectionExampleScenario.node[14].veinsmobility 	startTime 	43.25
scalar IntersectionExampleScenario.node[14].veinsmobility 	totalTime 	44.5
scalar IntersectionExampleScenario.node[14].veinsmobility 	stopTime 	88
scalar IntersectionExampleScenario.node[14].veinsmobility 	minSpeed 	5.3571076393127
scalar IntersectionExampleScenario.node[14].veinsmobility 	maxSpeed 	15.25
scalar IntersectionExampleScenario.node[14].veinsmobility 	totalDistance 	546.55514104773
scalar IntersectionExampleScenario.node[14].veinsmobility 	totalCO2Emission 	134.42576148806
scalar IntersectionExampleScenario.node[15].appl 	VehicleRemoved 	0
scalar IntersectionExampleScenario.node[15].appl 	ArrivedAtDest 	1
scalar IntersectionExampleScenario.node[15].appl 	IntersectionEnterTime 	47
scalar IntersectionExampleScenario.node[15].appl 	IntersectionExitTime 	73.331440448004
scalar IntersectionExampleScenario.node[15].appl 	NumberOfCollisions 	0
scalar IntersectionExampleScenario.node[15].nic.phy80211p 	busyTime 	0
scalar IntersectionExampleScenario.node[15].nic.mac1609_4 	ReceivedUnicastPackets 	0
scalar IntersectionExampleScenario.node[15].nic.mac1609_4 	ReceivedBroadcasts 	0
scalar IntersectionExampleScenario.node[15].nic.mac1609_4 	SentPackets 	0
scalar IntersectionExampleScenario.node[15].nic.mac1609_4 	SNIRLostPackets 	0
scalar IntersectionExampleScenario.node[15].nic.mac1609_4 	RXTXLostPackets 	0
scalar IntersectionExampleScenario.node[15].nic.mac1609_4 	TotalLostPackets 	0
scalar IntersectionExampleScenario.node[15].nic.mac1609_4 	DroppedPacketsInMac 	0
scalar IntersectionExampleScenario.node[15].nic.mac1609_4 	TooLittleTime 	0
scalar IntersectionExampleScenario.node[15].nic.mac1609_4 	TimesIntoBackoff 	0
scalar IntersectionExampleScenario.node[15].nic.mac1609_4 	SlotsBackoff 	0
scalar IntersectionExampleScenario.node[15].nic.mac1609_4 	NumInternalContention 	0
scalar IntersectionExampleScenario.node[15].nic.mac1609_4 	totalBusyTime 	0
scalar IntersectionExampleScenario.node[15].veinsmobility 	startTime 	47
scalar IntersectionExampleScenario.node[15].veinsmobility 	totalTime 	42.75
scalar IntersectionExampleScenario.node[15].veinsmobility 	stopTime 	90
scalar IntersectionExampleScenario.node[15].veinsmobility 	minSpeed 	5.6500000953674
scalar IntersectionExampleScenario.node[15].veinsmobility 	maxSpeed 	15.375
scalar IntersectionExampleScenario.node[15].veinsmobility 	totalDistance 	558.29115826496
scalar IntersectionExampleScenario.node[15].veinsmobility 	totalCO2Emission 	136.48522469625
scalar IntersectionExampleScenario.node[12].appl 	VehicleRemoved 	0
scalar IntersectionExampleScenario.node[12].appl 	ArrivedAtDest 	1
scalar IntersectionExampleScenario.node[12].appl 	IntersectionEnterTime 	41.5
scalar IntersectionExampleScenario.node[12].appl 	IntersectionExitTime 	77.320861085493
scalar IntersectionExampleScenario.node[12].appl 	NumberOfCollisions 	0
scalar IntersectionExampleScenario.node[12].nic.phy80211p 	busyTime 	0
scalar IntersectionExampleScenario.node[12].nic.mac1609_4 	ReceivedUnicastPackets 	0
scalar IntersectionExampleScenario.node[12].nic.mac1609_4 	ReceivedBroadcasts 	0
scalar IntersectionExampleScenario.node[12].nic.mac1609_4 	SentPackets 	0
scalar IntersectionExampleScenario.node[12].nic.mac1609_4 	SNIRLostPackets 	0
scalar IntersectionExampleScenario.node[12].nic.mac1609_4 	RXTXLostPackets 	0
scalar IntersectionExampleScenario.node[12].nic.mac1609_4 	TotalLostPackets 	0
scalar IntersectionExampleScenario.node[12].nic.mac1609_4 	DroppedPacketsInMac 	0
scalar IntersectionExampleScenario.node[12].nic.mac1609_4 	TooLittleTime 	0
scalar IntersectionExampleScenario.node[12].nic.mac1609_4 	TimesIntoBackoff 	0
scalar IntersectionExampleScenario.node[12].nic.mac1609_4 	SlotsBackoff 	0
scalar IntersectionExampleScenario.node[12].nic.mac1609_4 	NumInternalContention 	0
scalar IntersectionExampleScenario.node[12].nic.mac1609_4 	totalBusyTime 	0
scalar IntersectionExampleScenario.node[12].veinsmobility 	startTime 	41.5
scalar IntersectionExampleScenario.node[12].veinsmobility 	totalTime 	51.25
scalar IntersectionExampleScenario.node[12].veinsmobility 	stopTime 	93
scalar IntersectionExampleScenario.node[12].veinsmobility 	minSpeed 	0
scalar IntersectionExampleScenario.node[12].veinsmobility 	maxSpeed 	16.27499961853
scalar IntersectionExampleScenario.node[12].veinsmobility 	totalDistance 	548.09854997745
scalar IntersectionExampleScenario.node[12].veinsmobility 	totalCO2Emission 	147.48076773782
scalar IntersectionExampleScenario.node[18].appl 	VehicleRemoved 	0
scalar IntersectionExampleScenario.node[18].appl 	ArrivedAtDest 	1
scalar IntersectionExampleScenario.node[18].appl 	IntersectionEnterTime 	50.5
scalar IntersectionExampleScenario.node[18].appl 	IntersectionExitTime 	78.786861322704
scalar IntersectionExampleScenario.node[18].appl 	NumberOfCollisions 	0
scalar IntersectionExampleScenario.node[18].nic.phy80211p 	busyTime 	0
scalar IntersectionExampleScenario.node[18].nic.mac1609_4 	ReceivedUnicastPackets 	0
scalar IntersectionExampleScenario.node[18].nic.mac1609_4 	ReceivedBroadcasts 	0
scalar IntersectionExampleScenario.node[18].nic.mac1609_4 	SentPackets 	0
scalar IntersectionExampleScenario.node[18].nic.mac1609_4 	SNIRLostPackets 	0
scalar IntersectionExampleScenario.node[18].nic.mac1609_4 	RXTXLostPackets 	0
scalar IntersectionExampleScenario.node[18].nic.mac1609_4 	TotalLostPackets 	0
scalar IntersectionExampleScenario.node[18].nic.mac1609_4 	DroppedPacketsInMac 	0
scalar IntersectionExampleScenario.node[18].nic.mac1609_4 	TooLittleTime 	0
scalar IntersectionExampleScenario.node[18].nic.mac1609_4 	TimesIntoBackoff 	0
scalar IntersectionExampleScenario.node[18].nic.mac1609_4 	SlotsBackoff 	0
scalar IntersectionExampleScenario.node[18].nic.mac1609_4 	NumInternalContention 	0
scalar IntersectionExampleScenario.node[18].nic.mac1609_4 	totalBusyTime 	0
scalar IntersectionExampleScenario.node[18].veinsmobility 	startTime 	50.5
scalar IntersectionExampleScenario.node[18].veinsmobility 	totalTime 	45
scalar IntersectionExampleScenario.node[18].veinsmobility 	stopTime 	95.75
scalar IntersectionExampleScenario.node[18].veinsmobility 	minSpeed 	4.1005530357361
scalar IntersectionExampleScenario.node[18].veinsmobility 	maxSpeed 	15.02499961853
scalar IntersectionExampleScenario.node[18].veinsmobility 	totalDistance 	553.26422119141
scalar IntersectionExampleScenario.node[18].veinsmobility 	totalCO2Emission 	127.65094954574
scalar IntersectionExampleScenario.node[10].appl 	VehicleRemoved 	0
scalar IntersectionExampleScenario.node[10].appl 	ArrivedAtDest 	1
scalar IntersectionExampleScenario.node[10].appl 	IntersectionEnterTime 	36.75
scalar IntersectionExampleScenario.node[10].appl 	IntersectionExitTime 	84.82901616345
scalar IntersectionExampleScenario.node[10].appl 	NumberOfCollisions 	0
scalar IntersectionExampleScenario.node[10].nic.phy80211p 	busyTime 	0
scalar IntersectionExampleScenario.node[10].nic.mac1609_4 	ReceivedUnicastPackets 	0
scalar IntersectionExampleScenario.node[10].nic.mac1609_4 	ReceivedBroadcasts 	0
scalar IntersectionExampleScenario.node[10].nic.mac1609_4 	SentPackets 	0
scalar IntersectionExampleScenario.node[10].nic.mac1609_4 	SNIRLostPackets 	0
scalar IntersectionExampleScenario.node[10].nic.mac1609_4 	RXTXLostPackets 	0
scalar IntersectionExampleScenario.node[10].nic.mac1609_4 	TotalLostPackets 	0
scalar IntersectionExampleScenario.node[10].nic.mac1609_4 	DroppedPacketsInMac 	0
scalar IntersectionExampleScenario.node[10].nic.mac1609_4 	TooLittleTime 	0
scalar IntersectionExampleScenario.node[10].nic.mac1609_4 	TimesIntoBackoff 	0
scalar IntersectionExampleScenario.node[10].nic.mac1609_4 	SlotsBackoff 	0
scalar IntersectionExampleScenario.node[10].nic.mac1609_4 	NumInternalContention 	0
scalar IntersectionExampleScenario.node[10].nic.mac1609_4 	totalBusyTime 	0
scalar IntersectionExampleScenario.node[10].veinsmobility 	startTime 	36.75
scalar IntersectionExampleScenario.node[10].veinsmobility 	totalTime 	64
scalar IntersectionExampleScenario.node[10].veinsmobility 	stopTime 	101
scalar IntersectionExampleScenario.node[10].veinsmobility 	minSpeed 	0
scalar IntersectionExampleScenario.node[10].veinsmobility 	maxSpeed 	15.64999961853
scalar IntersectionExampleScenario.node[10].veinsmobility 	totalDistance 	561.53983431291
scalar IntersectionExampleScenario.node[10].veinsmobility 	totalCO2Emission 	155.14074800251
scalar IntersectionExampleScenario.node[11].appl 	VehicleRemoved 	0
scalar IntersectionExampleScenario.node[11].appl 	ArrivedAtDest 	1
scalar IntersectionExampleScenario.node[11].appl 	IntersectionEnterTime 	39.5
scalar IntersectionExampleScenario.node[11].appl 	IntersectionExitTime 	86.0331099795
scalar IntersectionExampleScenario.node[11].appl 	NumberOfCollisions 	0
scalar IntersectionExampleScenario.node[11].nic.phy80211p 	busyTime 	0
scalar IntersectionExampleScenario.node[11].nic.mac1609_4 	ReceivedUnicastPackets 	0
scalar IntersectionExampleScenario.node[11].nic.mac1609_4 	ReceivedBroadcasts 	0
scalar IntersectionExampleScenario.node[11].nic.mac1609_4 	SentPackets 	0
scalar IntersectionExampleScenario.node[11].nic.mac1609_4 	SNIRLostPackets 	0
scalar IntersectionExampleScenario.node[11].nic.mac1609_4 	RXTXLostPackets 	0
scalar IntersectionExampleScenario.node[11].nic.mac1609_4 	TotalLostPackets 	0
scalar IntersectionExampleScenario.node[11].nic.mac1609_4 	DroppedPacketsInMac 	0
scalar IntersectionExampleScenario.node[11].nic.mac1609_4 	TooLittleTime 	0
scalar IntersectionExampleScenario.node[11].nic.mac1609_4 	TimesIntoBackoff 	0
scalar IntersectionExampleScenario.node[11].nic.mac1609_4 	SlotsBackoff 	0
scalar IntersectionExampleScenario.node[11].nic.mac1609_4 	NumInternalContention 	0
scalar IntersectionExampleScenario.node[11].nic.mac1609_4 	totalBusyTime 	0
scalar IntersectionExampleScenario.node[11].veinsmobility 	startTime 	39.5
scalar IntersectionExampleScenario.node[11].veinsmobility 	totalTime 	63.25
scalar IntersectionExampleScenario.node[11].veinsmobility 	stopTime 	103
scalar IntersectionExampleScenario.node[11].veinsmobility 	minSpeed 	0
scalar IntersectionExampleScenario.node[11].veinsmobility 	maxSpeed 	15.64999961853
scalar IntersectionExampleScenario.node[11].veinsmobility 	totalDistance 	564.92378891136
scalar IntersectionExampleScenario.node[11].veinsmobility 	totalCO2Emission 	158.99521800137
scalar IntersectionExampleScenario.node[13].appl 	VehicleRemoved 	0
scalar IntersectionExampleScenario.node[13].appl 	ArrivedAtDest 	1
scalar IntersectionExampleScenario.node[13].appl 	IntersectionEnterTime 	42.5
scalar IntersectionExampleScenario.node[13].appl 	IntersectionExitTime 	88.334936973697
scalar IntersectionExampleScenario.node[13].appl 	NumberOfCollisions 	0
scalar IntersectionExampleScenario.node[13].nic.phy80211p 	busyTime 	0
scalar IntersectionExampleScenario.node[13].nic.mac1609_4 	ReceivedUnicastPackets 	0
scalar IntersectionExampleScenario.node[13].nic.mac1609_4 	ReceivedBroadcasts 	0
scalar IntersectionExampleScenario.node[13].nic.mac1609_4 	SentPackets 	0
scalar IntersectionExampleScenario.node[13].nic.mac1609_4 	SNIRLostPackets 	0
scalar IntersectionExampleScenario.node[13].nic.mac1609_4 	RXTXLostPackets 	0
scalar IntersectionExampleScenario.node[13].nic.mac1609_4 	TotalLostPackets 	0
scalar IntersectionExampleScenario.node[13].nic.mac1609_4 	DroppedPacketsInMac 	0
scalar IntersectionExampleScenario.node[13].nic.mac1609_4 	TooLittleTime 	0
scalar IntersectionExampleScenario.node[13].nic.mac1609_4 	TimesIntoBackoff 	0
scalar IntersectionExampleScenario.node[13].nic.mac1609_4 	SlotsBackoff 	0
scalar IntersectionExampleScenario.node[13].nic.mac1609_4 	NumInternalContention 	0
scalar IntersectionExampleScenario.node[13].nic.mac1609_4 	totalBusyTime 	0
scalar IntersectionExampleScenario.node[13].veinsmobility 	startTime 	42.5
scalar IntersectionExampleScenario.node[13].veinsmobility 	totalTime 	61.5
scalar IntersectionExampleScenario.node[13].veinsmobility 	stopTime 	104.25
scalar IntersectionExampleScenario.node[13].veinsmobility 	minSpeed 	0
scalar IntersectionExampleScenario.node[13].veinsmobility 	maxSpeed 	15.64999961853
scalar IntersectionExampleScenario.node[13].veinsmobility 	totalDistance 	574.73756408691
scalar IntersectionExampleScenario.node[13].veinsmobility 	totalCO2Emission 	155.85225014649
scalar IntersectionExampleScenario.node[17].appl 	VehicleRemoved 	0
scalar IntersectionExampleScenario.node[17].appl 	ArrivedAtDest 	1
scalar IntersectionExampleScenario.node[17].appl 	IntersectionEnterTime 	49.5
scalar IntersectionExampleScenario.node[17].appl 	IntersectionExitTime 	90.806535648124
scalar IntersectionExampleScenario.node[17].appl 	NumberOfCollisions 	0
scalar IntersectionExampleScenario.node[17].nic.phy80211p 	busyTime 	0
scalar IntersectionExampleScenario.node[17].nic.mac1609_4 	ReceivedUnicastPackets 	0
scalar IntersectionExampleScenario.node[17].nic.mac1609_4 	ReceivedBroadcasts 	0
scalar IntersectionExampleScenario.node[17].nic.mac1609_4 	SentPackets 	0
scalar IntersectionExampleScenario.node[17].nic.mac1609_4 	SNIRLostPackets 	0
scalar IntersectionExampleScenario.node[17].nic.mac1609_4 	RXTXLostPackets 	0
scalar IntersectionExampleScenario.node[17].nic.mac1609_4 	TotalLostPackets 	0
scalar IntersectionExampleScenario.node[17].nic.mac1609_4 	DroppedPacketsInMac 	0
scalar IntersectionExampleScenario.node[17].nic.mac1609_4 	TooLittleTime 	0
scalar IntersectionExampleScenario.node[17].nic.mac1609_4 	TimesIntoBackoff 	0
scalar IntersectionExampleScenario.node[17].nic.mac1609_4 	SlotsBackoff 	0
scalar IntersectionExampleScenario.node[17].nic.mac1609_4 	NumInternalContention 	0
scalar IntersectionExampleScenario.node[17].nic.mac1609_4 	totalBusyTime 	0
scalar IntersectionExampleScenario.node[17].veinsmobility 	startTime 	49.5
scalar IntersectionExampleScenario.node[17].veinsmobility 	totalTime 	58
scalar IntersectionExampleScenario.node[17].veinsmobility 	stopTime 	107.75
scalar IntersectionExampleScenario.node[17].veinsmobility 	minSpeed 	0
scalar IntersectionExampleScenario.node[17].veinsmobility 	maxSpeed 	15.02499961853
scalar IntersectionExampleScenario.node[17].veinsmobility 	totalDistance 	554.3973236084
scalar IntersectionExampleScenario.node[17].veinsmobility 	totalCO2Emission 	140.97287409275
scalar IntersectionExampleScenario.node[19].appl 	VehicleRemoved 	0
scalar IntersectionExampleScenario.node[19].appl 	ArrivedAtDest 	1
scalar IntersectionExampleScenario.node[19].appl 	IntersectionEnterTime 	57.5
scalar IntersectionExampleScenario.node[19].appl 	IntersectionExitTime 	92.542353870609
scalar IntersectionExampleScenario.node[19].appl 	NumberOfCollisions 	0
scalar IntersectionExampleScenario.node[19].nic.phy80211p 	busyTime 	0
scalar IntersectionExampleScenario.node[19].nic.mac1609_4 	ReceivedUnicastPackets 	0
scalar IntersectionExampleScenario.node[19].nic.mac1609_4 	ReceivedBroadcasts 	0
scalar IntersectionExampleScenario.node[19].nic.mac1609_4 	SentPackets 	0
scalar IntersectionExampleScenario.node[19].nic.mac1609_4 	SNIRLostPackets 	0
scalar IntersectionExampleScenario.node[19].nic.mac1609_4 	RXTXLostPackets 	0
scalar IntersectionExampleScenario.node[19].nic.mac1609_4 	TotalLostPackets 	0
scalar IntersectionExampleScenario.node[19].nic.mac1609_4 	DroppedPacketsInMac 	0
scalar IntersectionExampleScenario.node[19].nic.mac1609_4 	TooLittleTime 	0
scalar IntersectionExampleScenario.node[19].nic.mac1609_4 	TimesIntoBackoff 	0
scalar IntersectionExampleScenario.node[19].nic.mac1609_4 	SlotsBackoff 	0
scalar IntersectionExampleScenario.node[19].nic.mac1609_4 	NumInternalContention 	0
scalar IntersectionExampleScenario.node[19].nic.mac1609_4 	totalBusyTime 	0
scalar IntersectionExampleScenario.node[19].veinsmobility 	startTime 	57.5
scalar IntersectionExampleScenario.node[19].veinsmobility 	totalTime 	51.75
scalar IntersectionExampleScenario.node[19].veinsmobility 	stopTime 	109.5
scalar IntersectionExampleScenario.node[19].veinsmobility 	minSpeed 	0
scalar IntersectionExampleScenario.node[19].veinsmobility 	maxSpeed 	15.875
scalar IntersectionExampleScenario.node[19].veinsmobility 	totalDistance 	545.64199735076
scalar IntersectionExampleScenario.node[19].veinsmobility 	totalCO2Emission 	146.94849996138
scalar IntersectionExampleScenario.node[20].appl 	VehicleRemoved 	0
scalar IntersectionExampleScenario.node[20].appl 	ArrivedAtDest 	1
scalar IntersectionExampleScenario.node[20].appl 	IntersectionEnterTime 	61
scalar IntersectionExampleScenario.node[20].appl 	IntersectionExitTime 	94.301222670212
scalar IntersectionExampleScenario.node[20].appl 	NumberOfCollisions 	0
scalar IntersectionExampleScenario.node[20].nic.phy80211p 	busyTime 	0
scalar IntersectionExampleScenario.node[20].nic.mac1609_4 	ReceivedUnicastPackets 	0
scalar IntersectionExampleScenario.node[20].nic.mac1609_4 	ReceivedBroadcasts 	0
scalar IntersectionExampleScenario.node[20].nic.mac1609_4 	SentPackets 	0
scalar IntersectionExampleScenario.node[20].nic.mac1609_4 	SNIRLostPackets 	0
scalar IntersectionExampleScenario.node[20].nic.mac1609_4 	RXTXLostPackets 	0
scalar IntersectionExampleScenario.node[20].nic.mac1609_4 	TotalLostPackets 	0
scalar IntersectionExampleScenario.node[20].nic.mac1609_4 	DroppedPacketsInMac 	0
scalar IntersectionExampleScenario.node[20].nic.mac1609_4 	TooLittleTime 	0
scalar IntersectionExampleScenario.node[20].nic.mac1609_4 	TimesIntoBackoff 	0
scalar IntersectionExampleScenario.node[20].nic.mac1609_4 	SlotsBackoff 	0
scalar IntersectionExampleScenario.node[20].nic.mac1609_4 	NumInternalContention 	0
scalar IntersectionExampleScenario.node[20].nic.mac1609_4 	totalBusyTime 	0
scalar IntersectionExampleScenario.node[20].veinsmobility 	startTime 	61
scalar IntersectionExampleScenario.node[20].veinsmobility 	totalTime 	49.25
scalar IntersectionExampleScenario.node[20].veinsmobility 	stopTime 	110.5
scalar IntersectionExampleScenario.node[20].veinsmobility 	minSpeed 	0
scalar IntersectionExampleScenario.node[20].veinsmobility 	maxSpeed 	15.721883773804
scalar IntersectionExampleScenario.node[20].veinsmobility 	totalDistance 	559.1775819853
scalar IntersectionExampleScenario.node[20].veinsmobility 	totalCO2Emission 	144.95845997561
scalar IntersectionExampleScenario.node[24].appl 	VehicleRemoved 	0
scalar IntersectionExampleScenario.node[24].appl 	ArrivedAtDest 	1
scalar IntersectionExampleScenario.node[24].appl 	IntersectionEnterTime 	70.5
scalar IntersectionExampleScenario.node[24].appl 	IntersectionExitTime 	96.262963661691
scalar IntersectionExampleScenario.node[24].appl 	NumberOfCollisions 	0
scalar IntersectionExampleScenario.node[24].nic.phy80211p 	busyTime 	0
scalar IntersectionExampleScenario.node[24].nic.mac1609_4 	ReceivedUnicastPackets 	0
scalar IntersectionExampleScenario.node[24].nic.mac1609_4 	ReceivedBroadcasts 	0
scalar IntersectionExampleScenario.node[24].nic.mac1609_4 	SentPackets 	0
scalar IntersectionExampleScenario.node[24].nic.mac1609_4 	SNIRLostPackets 	0
scalar IntersectionExampleScenario.node[24].nic.mac1609_4 	RXTXLostPackets 	0
scalar IntersectionExampleScenario.node[24].nic.mac1609_4 	TotalLostPackets 	0
scalar IntersectionExampleScenario.node[24].nic.mac1609_4 	DroppedPacketsInMac 	0
scalar IntersectionExampleScenario.node[24].nic.mac1609_4 	TooLittleTime 	0
scalar IntersectionExampleScenario.node[24].nic.mac1609_4 	TimesIntoBackoff 	0
scalar IntersectionExampleScenario.node[24].nic.mac1609_4 	SlotsBackoff 	0
scalar IntersectionExampleScenario.node[24].nic.mac1609_4 	NumInternalContention 	0
scalar IntersectionExampleScenario.node[24].nic.mac1609_4 	totalBusyTime 	0
scalar IntersectionExampleScenario.node[24].veinsmobility 	startTime 	70.5
scalar IntersectionExampleScenario.node[24].veinsmobility 	totalTime 	41.75
scalar IntersectionExampleScenario.node[24].veinsmobility 	stopTime 	112.5
scalar IntersectionExampleScenario.node[24].veinsmobility 	minSpeed 	5.6500000953674
scalar IntersectionExampleScenario.node[24].veinsmobility 	maxSpeed 	15.64999961853
scalar IntersectionExampleScenario.node[24].veinsmobility 	totalDistance 	554.57688140869
scalar IntersectionExampleScenario.node[24].veinsmobility 	totalCO2Emission 	136.81211280432
scalar IntersectionExampleScenario.node[16].appl 	VehicleRemoved 	0
scalar IntersectionExampleScenario.node[16].appl 	ArrivedAtDest 	1
scalar IntersectionExampleScenario.node[16].appl 	IntersectionEnterTime 	49.5
scalar IntersectionExampleScenario.node[16].appl 	IntersectionExitTime 	99.563733416988
scalar IntersectionExampleScenario.node[16].appl 	NumberOfCollisions 	0
scalar IntersectionExampleScenario.node[16].nic.phy80211p 	busyTime 	0
scalar IntersectionExampleScenario.node[16].nic.mac1609_4 	ReceivedUnicastPackets 	0
scalar IntersectionExampleScenario.node[16].nic.mac1609_4 	ReceivedBroadcasts 	0
scalar IntersectionExampleScenario.node[16].nic.mac1609_4 	SentPackets 	0
scalar IntersectionExampleScenario.node[16].nic.mac1609_4 	SNIRLostPackets 	0
scalar IntersectionExampleScenario.node[16].nic.mac1609_4 	RXTXLostPackets 	0
scalar IntersectionExampleScenario.node[16].nic.mac1609_4 	TotalLostPackets 	0
scalar IntersectionExampleScenario.node[16].nic.mac1609_4 	DroppedPacketsInMac 	0
scalar IntersectionExampleScenario.node[16].nic.mac1609_4 	TooLittleTime 	0
scalar IntersectionExampleScenario.node[16].nic.mac1609_4 	TimesIntoBackoff 	0
scalar IntersectionExampleScenario.node[16].nic.mac1609_4 	SlotsBackoff 	0
scalar IntersectionExampleScenario.node[16].nic.mac1609_4 	NumInternalContention 	0
scalar IntersectionExampleScenario.node[16].nic.mac1609_4 	totalBusyTime 	0
scalar IntersectionExampleScenario.node[16].veinsmobility 	startTime 	49.5
scalar IntersectionExampleScenario.node[16].veinsmobility 	totalTime 	67.5
scalar IntersectionExampleScenario.node[16].veinsmobility 	stopTime 	117.25
scalar IntersectionExampleScenario.node[16].veinsmobility 	minSpeed 	0
scalar IntersectionExampleScenario.node[16].veinsmobility 	maxSpeed 	15.02499961853
scalar IntersectionExampleScenario.node[16].veinsmobility 	totalDistance 	565.21962644011
scalar IntersectionExampleScenario.node[16].veinsmobility 	totalCO2Emission 	157.18664306771
scalar IntersectionExampleScenario.node[22].appl 	VehicleRemoved 	0
scalar IntersectionExampleScenario.node[22].appl 	ArrivedAtDest 	1
scalar IntersectionExampleScenario.node[22].appl 	IntersectionEnterTime 	62.5
scalar IntersectionExampleScenario.node[22].appl 	IntersectionExitTime 	102.25834368181
scalar IntersectionExampleScenario.node[22].appl 	NumberOfCollisions 	0
scalar IntersectionExampleScenario.node[22].nic.phy80211p 	busyTime 	0
scalar IntersectionExampleScenario.node[22].nic.mac1609_4 	ReceivedUnicastPackets 	0
scalar IntersectionExampleScenario.node[22].nic.mac1609_4 	ReceivedBroadcasts 	0
scalar IntersectionExampleScenario.node[22].nic.mac1609_4 	SentPackets 	0
scalar IntersectionExampleScenario.node[22].nic.mac1609_4 	SNIRLostPackets 	0
scalar IntersectionExampleScenario.node[22].nic.mac1609_4 	RXTXLostPackets 	0
scalar IntersectionExampleScenario.node[22].nic.mac1609_4 	TotalLostPackets 	0
scalar IntersectionExampleScenario.node[22].nic.mac1609_4 	DroppedPacketsInMac 	0
scalar IntersectionExampleScenario.node[22].nic.mac1609_4 	TooLittleTime 	0
scalar IntersectionExampleScenario.node[22].nic.mac1609_4 	TimesIntoBackoff 	0
scalar IntersectionExampleScenario.node[22].nic.mac1609_4 	SlotsBackoff 	0
scalar IntersectionExampleScenario.node[22].nic.mac1609_4 	NumInternalContention 	0
scalar IntersectionExampleScenario.node[22].nic.mac1609_4 	totalBusyTime 	0
scalar IntersectionExampleScenario.node[22].veinsmobility 	startTime 	62.5
scalar IntersectionExampleScenario.node[22].veinsmobility 	totalTime 	56.5
scalar IntersectionExampleScenario.node[22].veinsmobility 	stopTime 	119.25
scalar IntersectionExampleScenario.node[22].veinsmobility 	minSpeed 	0
scalar IntersectionExampleScenario.node[22].veinsmobility 	maxSpeed 	15.64999961853
scalar IntersectionExampleScenario.node[22].veinsmobility 	totalDistance 	545.83927026462
scalar IntersectionExampleScenario.node[22].veinsmobility 	totalCO2Emission 	145.60865165665
scalar IntersectionExampleScenario.node[23].appl 	VehicleRemoved 	0
scalar IntersectionExampleScenario.node[23].appl 	ArrivedAtDest 	1
scalar IntersectionExampleScenario.node[23].appl 	IntersectionEnterTime 	70.25
scalar IntersectionExampleScenario.node[23].appl 	IntersectionExitTime 	105.04778275674
scalar IntersectionExampleScenario.node[23].appl 	NumberOfCollisions 	0
scalar IntersectionExampleScenario.node[23].nic.phy80211p 	busyTime 	0
scalar IntersectionExampleScenario.node[23].nic.mac1609_4 	ReceivedUnicastPackets 	0
scalar IntersectionExampleScenario.node[23].nic.mac1609_4 	ReceivedBroadcasts 	0
scalar IntersectionExampleScenario.node[23].nic.mac1609_4 	SentPackets 	0
scalar IntersectionExampleScenario.node[23].nic.mac1609_4 	SNIRLostPackets 	0
scalar IntersectionExampleScenario.node[23].nic.mac1609_4 	RXTXLostPackets 	0
scalar IntersectionExampleScenario.node[23].nic.mac1609_4 	TotalLostPackets 	0
scalar IntersectionExampleScenario.node[23].nic.mac1609_4 	DroppedPacketsInMac 	0
scalar IntersectionExampleScenario.node[23].nic.mac1609_4 	TooLittleTime 	0
scalar IntersectionExampleScenario.node[23].nic.mac1609_4 	TimesIntoBackoff 	0
scalar IntersectionExampleScenario.node[23].nic.mac1609_4 	SlotsBackoff 	0
scalar IntersectionExampleScenario.node[23].nic.mac1609_4 	NumInternalContention 	0
scalar IntersectionExampleScenario.node[23].nic.mac1609_4 	totalBusyTime 	0
scalar IntersectionExampleScenario.node[23].veinsmobility 	startTime 	70.25
scalar IntersectionExampleScenario.node[23].veinsmobility 	totalTime 	52
scalar IntersectionExampleScenario.node[23].veinsmobility 	stopTime 	122.5
scalar IntersectionExampleScenario.node[23].veinsmobility 	minSpeed 	0.87729024887085
scalar IntersectionExampleScenario.node[23].veinsmobility 	maxSpeed 	15.02499961853
scalar IntersectionExampleScenario.node[23].veinsmobility 	totalDistance 	543.87778046872
scalar IntersectionExampleScenario.node[23].veinsmobility 	totalCO2Emission 	136.37595154793
scalar IntersectionExampleScenario.node[26].appl 	VehicleRemoved 	0
scalar IntersectionExampleScenario.node[26].appl 	ArrivedAtDest 	1
scalar IntersectionExampleScenario.node[26].appl 	IntersectionEnterTime 	76.5
scalar IntersectionExampleScenario.node[26].appl 	IntersectionExitTime 	107.01065977593
scalar IntersectionExampleScenario.node[26].appl 	NumberOfCollisions 	0
scalar IntersectionExampleScenario.node[26].nic.phy80211p 	busyTime 	0
scalar IntersectionExampleScenario.node[26].nic.mac1609_4 	ReceivedUnicastPackets 	0
scalar IntersectionExampleScenario.node[26].nic.mac1609_4 	ReceivedBroadcasts 	0
scalar IntersectionExampleScenario.node[26].nic.mac1609_4 	SentPackets 	0
scalar IntersectionExampleScenario.node[26].nic.mac1609_4 	SNIRLostPackets 	0
scalar IntersectionExampleScenario.node[26].nic.mac1609_4 	RXTXLostPackets 	0
scalar IntersectionExampleScenario.node[26].nic.mac1609_4 	TotalLostPackets 	0
scalar IntersectionExampleScenario.node[26].nic.mac1609_4 	DroppedPacketsInMac 	0
scalar IntersectionExampleScenario.node[26].nic.mac1609_4 	TooLittleTime 	0
scalar IntersectionExampleScenario.node[26].nic.mac1609_4 	TimesIntoBackoff 	0
scalar IntersectionExampleScenario.node[26].nic.mac1609_4 	SlotsBackoff 	0
scalar IntersectionExampleScenario.node[26].nic.mac1609_4 	NumInternalContention 	0
scalar IntersectionExampleScenario.node[26].nic.mac1609_4 	totalBusyTime 	0
scalar IntersectionExampleScenario.node[26].veinsmobility 	startTime 	76.5
scalar IntersectionExampleScenario.node[26].veinsmobility 	totalTime 	47
scalar IntersectionExampleScenario.node[26].veinsmobility 	stopTime 	123.75
scalar IntersectionExampleScenario.node[26].veinsmobility 	minSpeed 	4.578152179718
scalar IntersectionExampleScenario.node[26].veinsmobility 	maxSpeed 	15.375
scalar IntersectionExampleScenario.node[26].veinsmobility 	totalDistance 	551.51007328921
scalar IntersectionExampleScenario.node[26].veinsmobility 	totalCO2Emission 	135.46156207583
scalar IntersectionExampleScenario.node[21].appl 	VehicleRemoved 	0
scalar IntersectionExampleScenario.node[21].appl 	ArrivedAtDest 	1
scalar IntersectionExampleScenario.node[21].appl 	IntersectionEnterTime 	61
scalar IntersectionExampleScenario.node[21].appl 	IntersectionExitTime 	109.33757460141
scalar IntersectionExampleScenario.node[21].appl 	NumberOfCollisions 	0
scalar IntersectionExampleScenario.node[21].nic.phy80211p 	busyTime 	0
scalar IntersectionExampleScenario.node[21].nic.mac1609_4 	ReceivedUnicastPackets 	0
scalar IntersectionExampleScenario.node[21].nic.mac1609_4 	ReceivedBroadcasts 	0
scalar IntersectionExampleScenario.node[21].nic.mac1609_4 	SentPackets 	0
scalar IntersectionExampleScenario.node[21].nic.mac1609_4 	SNIRLostPackets 	0
scalar IntersectionExampleScenario.node[21].nic.mac1609_4 	RXTXLostPackets 	0
scalar IntersectionExampleScenario.node[21].nic.mac1609_4 	TotalLostPackets 	0
scalar IntersectionExampleScenario.node[21].nic.mac1609_4 	DroppedPacketsInMac 	0
scalar IntersectionExampleScenario.node[21].nic.mac1609_4 	TooLittleTime 	0
scalar IntersectionExampleScenario.node[21].nic.mac1609_4 	TimesIntoBackoff 	0
scalar IntersectionExampleScenario.node[21].nic.mac1609_4 	SlotsBackoff 	0
scalar IntersectionExampleScenario.node[21].nic.mac1609_4 	NumInternalContention 	0
scalar IntersectionExampleScenario.node[21].nic.mac1609_4 	totalBusyTime 	0
scalar IntersectionExampleScenario.node[21].veinsmobility 	startTime 	61
scalar IntersectionExampleScenario.node[21].veinsmobility 	totalTime 	64.25
scalar IntersectionExampleScenario.node[21].veinsmobility 	stopTime 	125.5
scalar IntersectionExampleScenario.node[21].veinsmobility 	minSpeed 	0
scalar IntersectionExampleScenario.node[21].veinsmobility 	maxSpeed 	15.64999961853
scalar IntersectionExampleScenario.node[21].veinsmobility 	totalDistance 	552.59675598145
scalar IntersectionExampleScenario.node[21].veinsmobility 	totalCO2Emission 	160.08354839466
scalar IntersectionExampleScenario.node[29].appl 	VehicleRemoved 	0
scalar IntersectionExampleScenario.node[29].appl 	ArrivedAtDest 	1
scalar IntersectionExampleScenario.node[29].appl 	IntersectionEnterTime 	90.5
scalar IntersectionExampleScenario.node[29].appl 	IntersectionExitTime 	114.32364845451
scalar IntersectionExampleScenario.node[29].appl 	NumberOfCollisions 	0
scalar IntersectionExampleScenario.node[29].nic.phy80211p 	busyTime 	0
scalar IntersectionExampleScenario.node[29].nic.mac1609_4 	ReceivedUnicastPackets 	0
scalar IntersectionExampleScenario.node[29].nic.mac1609_4 	ReceivedBroadcasts 	0
scalar IntersectionExampleScenario.node[29].nic.mac1609_4 	SentPackets 	0
scalar IntersectionExampleScenario.node[29].nic.mac1609_4 	SNIRLostPackets 	0
scalar IntersectionExampleScenario.node[29].nic.mac1609_4 	RXTXLostPackets 	0
scalar IntersectionExampleScenario.node[29].nic.mac1609_4 	TotalLostPackets 	0
scalar IntersectionExampleScenario.node[29].nic.mac1609_4 	DroppedPacketsInMac 	0
scalar IntersectionExampleScenario.node[29].nic.mac1609_4 	TooLittleTime 	0
scalar IntersectionExampleScenario.node[29].nic.mac1609_4 	TimesIntoBackoff 	0
scalar IntersectionExampleScenario.node[29].nic.mac1609_4 	SlotsBackoff 	0
scalar IntersectionExampleScenario.node[29].nic.mac1609_4 	NumInternalContention 	0
scalar IntersectionExampleScenario.node[29].nic.mac1609_4 	totalBusyTime 	0
scalar IntersectionExampleScenario.node[29].veinsmobility 	startTime 	90.5
scalar IntersectionExampleScenario.node[29].veinsmobility 	totalTime 	40.75
scalar IntersectionExampleScenario.node[29].veinsmobility 	stopTime 	131.5
scalar IntersectionExampleScenario.node[29].veinsmobility 	minSpeed 	5.6500000953674
scalar IntersectionExampleScenario.node[29].veinsmobility 	maxSpeed 	15.26508140564
scalar IntersectionExampleScenario.node[29].veinsmobility 	totalDistance 	545.26484741827
scalar IntersectionExampleScenario.node[29].veinsmobility 	totalCO2Emission 	127.95519150784
scalar IntersectionExampleScenario.node[34].appl 	VehicleRemoved 	0
scalar IntersectionExampleScenario.node[34].appl 	ArrivedAtDest 	1
scalar IntersectionExampleScenario.node[34].appl 	IntersectionEnterTime 	99.75
scalar IntersectionExampleScenario.node[34].appl 	IntersectionExitTime 	122.76119614847
scalar IntersectionExampleScenario.node[34].appl 	NumberOfCollisions 	0
scalar IntersectionExampleScenario.node[34].nic.phy80211p 	busyTime 	0
scalar IntersectionExampleScenario.node[34].nic.mac1609_4 	ReceivedUnicastPackets 	0
scalar IntersectionExampleScenario.node[34].nic.mac1609_4 	ReceivedBroadcasts 	0
scalar IntersectionExampleScenario.node[34].nic.mac1609_4 	SentPackets 	0
scalar IntersectionExampleScenario.node[34].nic.mac1609_4 	SNIRLostPackets 	0
scalar IntersectionExampleScenario.node[34].nic.mac1609_4 	RXTXLostPackets 	0
scalar IntersectionExampleScenario.node[34].nic.mac1609_4 	TotalLostPackets 	0
scalar IntersectionExampleScenario.node[34].nic.mac1609_4 	DroppedPacketsInMac 	0
scalar IntersectionExampleScenario.node[34].nic.mac1609_4 	TooLittleTime 	0
scalar IntersectionExampleScenario.node[34].nic.mac1609_4 	TimesIntoBackoff 	0
scalar IntersectionExampleScenario.node[34].nic.mac1609_4 	SlotsBackoff 	0
scalar IntersectionExampleScenario.node[34].nic.mac1609_4 	NumInternalContention 	0
scalar IntersectionExampleScenario.node[34].nic.mac1609_4 	totalBusyTime 	0
scalar IntersectionExampleScenario.node[34].veinsmobility 	startTime 	99.75
scalar IntersectionExampleScenario.node[34].veinsmobility 	totalTime 	39.25
scalar IntersectionExampleScenario.node[34].veinsmobility 	stopTime 	139.25
scalar IntersectionExampleScenario.node[34].veinsmobility 	minSpeed 	5.6500000953674
scalar IntersectionExampleScenario.node[34].veinsmobility 	maxSpeed 	15.5
scalar IntersectionExampleScenario.node[34].veinsmobility 	totalDistance 	553.07270812988
scalar IntersectionExampleScenario.node[34].veinsmobility 	totalCO2Emission 	116.19188612869
scalar IntersectionExampleScenario.node[25].appl 	VehicleRemoved 	0
scalar IntersectionExampleScenario.node[25].appl 	ArrivedAtDest 	1
scalar IntersectionExampleScenario.node[25].appl 	IntersectionEnterTime 	75.25
scalar IntersectionExampleScenario.node[25].appl 	IntersectionExitTime 	124.54558527746
scalar IntersectionExampleScenario.node[25].appl 	NumberOfCollisions 	0
scalar IntersectionExampleScenario.node[25].nic.phy80211p 	busyTime 	0
scalar IntersectionExampleScenario.node[25].nic.mac1609_4 	ReceivedUnicastPackets 	0
scalar IntersectionExampleScenario.node[25].nic.mac1609_4 	ReceivedBroadcasts 	0
scalar IntersectionExampleScenario.node[25].nic.mac1609_4 	SentPackets 	0
scalar IntersectionExampleScenario.node[25].nic.mac1609_4 	SNIRLostPackets 	0
scalar IntersectionExampleScenario.node[25].nic.mac1609_4 	RXTXLostPackets 	0
scalar IntersectionExampleScenario.node[25].nic.mac1609_4 	TotalLostPackets 	0
scalar IntersectionExampleScenario.node[25].nic.mac1609_4 	DroppedPacketsInMac 	0
scalar IntersectionExampleScenario.node[25].nic.mac1609_4 	TooLittleTime 	0
scalar IntersectionExampleScenario.node[25].nic.mac1609_4 	TimesIntoBackoff 	0
scalar IntersectionExampleScenario.node[25].nic.mac1609_4 	SlotsBackoff 	0
scalar IntersectionExampleScenario.node[25].nic.mac1609_4 	NumInternalContention 	0
scalar IntersectionExampleScenario.node[25].nic.mac1609_4 	totalBusyTime 	0
scalar IntersectionExampleScenario.node[25].veinsmobility 	startTime 	75.25
scalar IntersectionExampleScenario.node[25].veinsmobility 	totalTime 	66.5
scalar IntersectionExampleScenario.node[25].veinsmobility 	stopTime 	142
scalar IntersectionExampleScenario.node[25].veinsmobility 	minSpeed 	0
scalar IntersectionExampleScenario.node[25].veinsmobility 	maxSpeed 	15.25
scalar IntersectionExampleScenario.node[25].veinsmobility 	totalDistance 	544.3806448117
scalar IntersectionExampleScenario.node[25].veinsmobility 	totalCO2Emission 	158.85972545776
scalar IntersectionExampleScenario.node[31].appl 	VehicleRemoved 	0
scalar IntersectionExampleScenario.node[31].appl 	ArrivedAtDest 	1
scalar IntersectionExampleScenario.node[31].appl 	IntersectionEnterTime 	97.5
scalar IntersectionExampleScenario.node[31].appl 	IntersectionExitTime 	127.02438018698
scalar IntersectionExampleScenario.node[31].appl 	NumberOfCollisions 	0
scalar IntersectionExampleScenario.node[31].nic.phy80211p 	busyTime 	0
scalar IntersectionExampleScenario.node[31].nic.mac1609_4 	ReceivedUnicastPackets 	0
scalar IntersectionExampleScenario.node[31].nic.mac1609_4 	ReceivedBroadcasts 	0
scalar IntersectionExampleScenario.node[31].nic.mac1609_4 	SentPackets 	0
scalar IntersectionExampleScenario.node[31].nic.mac1609_4 	SNIRLostPackets 	0
scalar IntersectionExampleScenario.node[31].nic.mac1609_4 	RXTXLostPackets 	0
scalar IntersectionExampleScenario.node[31].nic.mac1609_4 	TotalLostPackets 	0
scalar IntersectionExampleScenario.node[31].nic.mac1609_4 	DroppedPacketsInMac 	0
scalar IntersectionExampleScenario.node[31].nic.mac1609_4 	TooLittleTime 	0
scalar IntersectionExampleScenario.node[31].nic.mac1609_4 	TimesIntoBackoff 	0
scalar IntersectionExampleScenario.node[31].nic.mac1609_4 	SlotsBackoff 	0
scalar IntersectionExampleScenario.node[31].nic.mac1609_4 	NumInternalContention 	0
scalar IntersectionExampleScenario.node[31].nic.mac1609_4 	totalBusyTime 	0
scalar IntersectionExampleScenario.node[31].veinsmobility 	startTime 	97.5
scalar IntersectionExampleScenario.node[31].veinsmobility 	totalTime 	46.5
scalar IntersectionExampleScenario.node[31].veinsmobility 	stopTime 	144.25
scalar IntersectionExampleScenario.node[31].veinsmobility 	minSpeed 	3.4350545406342
scalar IntersectionExampleScenario.node[31].veinsmobility 	maxSpeed 	15.02499961853
scalar IntersectionExampleScenario.node[31].veinsmobility 	totalDistance 	551.08258902975
scalar IntersectionExampleScenario.node[31].veinsmobility 	totalCO2Emission 	129.69222034014
scalar IntersectionExampleScenario.node[35].appl 	VehicleRemoved 	0
scalar IntersectionExampleScenario.node[35].appl 	ArrivedAtDest 	1
scalar IntersectionExampleScenario.node[35].appl 	IntersectionEnterTime 	102.25
scalar IntersectionExampleScenario.node[35].appl 	IntersectionExitTime 	129.53169891739
scalar IntersectionExampleScenario.node[35].appl 	NumberOfCollisions 	0
scalar IntersectionExampleScenario.node[35].nic.phy80211p 	busyTime 	0
scalar IntersectionExampleScenario.node[35].nic.mac1609_4 	ReceivedUnicastPackets 	0
scalar IntersectionExampleScenario.node[35].nic.mac1609_4 	ReceivedBroadcasts 	0
scalar IntersectionExampleScenario.node[35].nic.mac1609_4 	SentPackets 	0
scalar IntersectionExampleScenario.node[35].nic.mac1609_4 	SNIRLostPackets 	0
scalar IntersectionExampleScenario.node[35].nic.mac1609_4 	RXTXLostPackets 	0
scalar IntersectionExampleScenario.node[35].nic.mac1609_4 	TotalLostPackets 	0
scalar IntersectionExampleScenario.node[35].nic.mac1609_4 	DroppedPacketsInMac 	0
scalar IntersectionExampleScenario.node[35].nic.mac1609_4 	TooLittleTime 	0
scalar IntersectionExampleScenario.node[35].nic.mac1609_4 	TimesIntoBackoff 	0
scalar IntersectionExampleScenario.node[35].nic.mac1609_4 	SlotsBackoff 	0
scalar IntersectionExampleScenario.node[35].nic.mac1609_4 	NumInternalContention 	0
scalar IntersectionExampleScenario.node[35].nic.mac1609_4 	totalBusyTime 	0
scalar IntersectionExampleScenario.node[35].veinsmobility 	startTime 	102.25
scalar IntersectionExampleScenario.node[35].veinsmobility 	totalTime 	43.5
scalar IntersectionExampleScenario.node[35].veinsmobility 	stopTime 	146
scalar IntersectionExampleScenario.node[35].veinsmobility 	minSpeed 	4.9586052894592
scalar IntersectionExampleScenario.node[35].veinsmobility 	maxSpeed 	15.308553695679
scalar IntersectionExampleScenario.node[35].veinsmobility 	totalDistance 	548.90094231628
scalar IntersectionExampleScenario.node[35].veinsmobility 	totalCO2Emission 	134.21123486597
scalar IntersectionExampleScenario.node[27].appl 	VehicleRemoved 	0
scalar IntersectionExampleScenario.node[27].appl 	ArrivedAtDest 	1
scalar IntersectionExampleScenario.node[27].appl 	IntersectionEnterTime 	82.5
scalar IntersectionExampleScenario.node[27].appl 	IntersectionExitTime 	132.27838953331
scalar IntersectionExampleScenario.node[27].appl 	NumberOfCollisions 	0
scalar IntersectionExampleScenario.node[27].nic.phy80211p 	busyTime 	0
scalar IntersectionExampleScenario.node[27].nic.mac1609_4 	ReceivedUnicastPackets 	0
scalar IntersectionExampleScenario.node[27].nic.mac1609_4 	ReceivedBroadcasts 	0
scalar IntersectionExampleScenario.node[27].nic.mac1609_4 	SentPackets 	0
scalar IntersectionExampleScenario.node[27].nic.mac1609_4 	SNIRLostPackets 	0
scalar IntersectionExampleScenario.node[27].nic.mac1609_4 	RXTXLostPackets 	0
scalar IntersectionExampleScenario.node[27].nic.mac1609_4 	TotalLostPackets 	0
scalar IntersectionExampleScenario.node[27].nic.mac1609_4 	DroppedPacketsInMac 	0
scalar IntersectionExampleScenario.node[27].nic.mac1609_4 	TooLittleTime 	0
scalar IntersectionExampleScenario.node[27].nic.mac1609_4 	TimesIntoBackoff 	0
scalar IntersectionExampleScenario.node[27].nic.mac1609_4 	SlotsBackoff 	0
scalar IntersectionExampleScenario.node[27].nic.mac1609_4 	NumInternalContention 	0
scalar IntersectionExampleScenario.node[27].nic.mac1609_4 	totalBusyTime 	0
scalar IntersectionExampleScenario.node[27].veinsmobility 	startTime 	82.5
scalar IntersectionExampleScenario.node[27].veinsmobility 	totalTime 	66.25
scalar IntersectionExampleScenario.node[27].veinsmobility 	stopTime 	149
scalar IntersectionExampleScenario.node[27].veinsmobility 	minSpeed 	0
scalar IntersectionExampleScenario.node[27].veinsmobility 	maxSpeed 	15.02499961853
scalar IntersectionExampleScenario.node[27].veinsmobility 	totalDistance 	549.01582445254
scalar IntersectionExampleScenario.node[27].veinsmobility 	totalCO2Emission 	153.96892566929
scalar IntersectionExampleScenario.node[28].appl 	VehicleRemoved 	0
scalar IntersectionExampleScenario.node[28].appl 	ArrivedAtDest 	1
scalar IntersectionExampleScenario.node[28].appl 	IntersectionEnterTime 	90.5
scalar IntersectionExampleScenario.node[28].appl 	IntersectionExitTime 	133.35087739356
scalar IntersectionExampleScenario.node[28].appl 	NumberOfCollisions 	0
scalar IntersectionExampleScenario.node[28].nic.phy80211p 	busyTime 	0
scalar IntersectionExampleScenario.node[28].nic.mac1609_4 	ReceivedUnicastPackets 	0
scalar IntersectionExampleScenario.node[28].nic.mac1609_4 	ReceivedBroadcasts 	0
scalar IntersectionExampleScenario.node[28].nic.mac1609_4 	SentPackets 	0
scalar IntersectionExampleScenario.node[28].nic.mac1609_4 	SNIRLostPackets 	0
scalar IntersectionExampleScenario.node[28].nic.mac1609_4 	RXTXLostPackets 	0
scalar IntersectionExampleScenario.node[28].nic.mac1609_4 	TotalLostPackets 	0
scalar IntersectionExampleScenario.node[28].nic.mac1609_4 	DroppedPacketsInMac 	0
scalar IntersectionExampleScenario.node[28].nic.mac1609_4 	TooLittleTime 	0
scalar IntersectionExampleScenario.node[28].nic.mac1609_4 	TimesIntoBackoff 	0
scalar IntersectionExampleScenario.node[28].nic.mac1609_4 	SlotsBackoff 	0
scalar IntersectionExampleScenario.node[28].nic.mac1609_4 	NumInternalContention 	0
scalar IntersectionExampleScenario.node[28].nic.mac1609_4 	totalBusyTime 	0
scalar IntersectionExampleScenario.node[28].veinsmobility 	startTime 	90.5
scalar IntersectionExampleScenario.node[28].veinsmobility 	totalTime 	58.5
scalar IntersectionExampleScenario.node[28].veinsmobility 	stopTime 	149.25
scalar IntersectionExampleScenario.node[28].veinsmobility 	minSpeed 	0
scalar IntersectionExampleScenario.node[28].veinsmobility 	maxSpeed 	16.125
scalar IntersectionExampleScenario.node[28].veinsmobility 	totalDistance 	553.35074615479
scalar IntersectionExampleScenario.node[28].veinsmobility 	totalCO2Emission 	152.86862346683
scalar IntersectionExampleScenario.node[33].appl 	VehicleRemoved 	0
scalar IntersectionExampleScenario.node[33].appl 	ArrivedAtDest 	1
scalar IntersectionExampleScenario.node[33].appl 	IntersectionEnterTime 	99.75
scalar IntersectionExampleScenario.node[33].appl 	IntersectionExitTime 	135.7842992628
scalar IntersectionExampleScenario.node[33].appl 	NumberOfCollisions 	0
scalar IntersectionExampleScenario.node[33].nic.phy80211p 	busyTime 	0
scalar IntersectionExampleScenario.node[33].nic.mac1609_4 	ReceivedUnicastPackets 	0
scalar IntersectionExampleScenario.node[33].nic.mac1609_4 	ReceivedBroadcasts 	0
scalar IntersectionExampleScenario.node[33].nic.mac1609_4 	SentPackets 	0
scalar IntersectionExampleScenario.node[33].nic.mac1609_4 	SNIRLostPackets 	0
scalar IntersectionExampleScenario.node[33].nic.mac1609_4 	RXTXLostPackets 	0
scalar IntersectionExampleScenario.node[33].nic.mac1609_4 	TotalLostPackets 	0
scalar IntersectionExampleScenario.node[33].nic.mac1609_4 	DroppedPacketsInMac 	0
scalar IntersectionExampleScenario.node[33].nic.mac1609_4 	TooLittleTime 	0
scalar IntersectionExampleScenario.node[33].nic.mac1609_4 	TimesIntoBackoff 	0
scalar IntersectionExampleScenario.node[33].nic.mac1609_4 	SlotsBackoff 	0
scalar IntersectionExampleScenario.node[33].nic.mac1609_4 	NumInternalContention 	0
scalar IntersectionExampleScenario.node[33].nic.mac1609_4 	totalBusyTime 	0
scalar IntersectionExampleScenario.node[33].veinsmobility 	startTime 	99.75
scalar IntersectionExampleScenario.node[33].veinsmobility 	totalTime 	52.5
scalar IntersectionExampleScenario.node[33].veinsmobility 	stopTime 	152.5
scalar IntersectionExampleScenario.node[33].veinsmobility 	minSpeed 	0
scalar IntersectionExampleScenario.node[33].veinsmobility 	maxSpeed 	15.02499961853
scalar IntersectionExampleScenario.node[33].veinsmobility 	totalDistance 	549.47540582205
scalar IntersectionExampleScenario.node[33].veinsmobility 	totalCO2Emission 	138.27154077934
scalar IntersectionExampleScenario.node[37].appl 	VehicleRemoved 	0
scalar IntersectionExampleScenario.node[37].appl 	ArrivedAtDest 	1
scalar IntersectionExampleScenario.node[37].appl 	IntersectionEnterTime 	108.25
scalar IntersectionExampleScenario.node[37].appl 	IntersectionExitTime 	137.50120700384
scalar IntersectionExampleScenario.node[37].appl 	NumberOfCollisions 	0
scalar IntersectionExampleScenario.node[37].nic.phy80211p 	busyTime 	0
scalar IntersectionExampleScenario.node[37].nic.mac1609_4 	ReceivedUnicastPackets 	0
scalar IntersectionExampleScenario.node[37].nic.mac1609_4 	ReceivedBroadcasts 	0
scalar IntersectionExampleScenario.node[37].nic.mac1609_4 	SentPackets 	0
scalar IntersectionExampleScenario.node[37].nic.mac1609_4 	SNIRLostPackets 	0
scalar IntersectionExampleScenario.node[37].nic.mac1609_4 	RXTXLostPackets 	0
scalar IntersectionExampleScenario.node[37].nic.mac1609_4 	TotalLostPackets 	0
scalar IntersectionExampleScenario.node[37].nic.mac1609_4 	DroppedPacketsInMac 	0
scalar IntersectionExampleScenario.node[37].nic.mac1609_4 	TooLittleTime 	0
scalar IntersectionExampleScenario.node[37].nic.mac1609_4 	TimesIntoBackoff 	0
scalar IntersectionExampleScenario.node[37].nic.mac1609_4 	SlotsBackoff 	0
scalar IntersectionExampleScenario.node[37].nic.mac1609_4 	NumInternalContention 	0
scalar IntersectionExampleScenario.node[37].nic.mac1609_4 	totalBusyTime 	0
scalar IntersectionExampleScenario.node[37].veinsmobility 	startTime 	108.25
scalar IntersectionExampleScenario.node[37].veinsmobility 	totalTime 	45
scalar IntersectionExampleScenario.node[37].veinsmobility 	stopTime 	153.5
scalar IntersectionExampleScenario.node[37].veinsmobility 	minSpeed 	4.8758282661438
scalar IntersectionExampleScenario.node[37].veinsmobility 	maxSpeed 	15.64999961853
scalar IntersectionExampleScenario.node[37].veinsmobility 	totalDistance 	550.88486480713
scalar IntersectionExampleScenario.node[37].veinsmobility 	totalCO2Emission 	133.19095548535
scalar IntersectionExampleScenario.node[40].appl 	VehicleRemoved 	0
scalar IntersectionExampleScenario.node[40].appl 	ArrivedAtDest 	1
scalar IntersectionExampleScenario.node[40].appl 	IntersectionEnterTime 	113.25
scalar IntersectionExampleScenario.node[40].appl 	IntersectionExitTime 	139.85121968327
scalar IntersectionExampleScenario.node[40].appl 	NumberOfCollisions 	0
scalar IntersectionExampleScenario.node[40].nic.phy80211p 	busyTime 	0
scalar IntersectionExampleScenario.node[40].nic.mac1609_4 	ReceivedUnicastPackets 	0
scalar IntersectionExampleScenario.node[40].nic.mac1609_4 	ReceivedBroadcasts 	0
scalar IntersectionExampleScenario.node[40].nic.mac1609_4 	SentPackets 	0
scalar IntersectionExampleScenario.node[40].nic.mac1609_4 	SNIRLostPackets 	0
scalar IntersectionExampleScenario.node[40].nic.mac1609_4 	RXTXLostPackets 	0
scalar IntersectionExampleScenario.node[40].nic.mac1609_4 	TotalLostPackets 	0
scalar IntersectionExampleScenario.node[40].nic.mac1609_4 	DroppedPacketsInMac 	0
scalar IntersectionExampleScenario.node[40].nic.mac1609_4 	TooLittleTime 	0
scalar IntersectionExampleScenario.node[40].nic.mac1609_4 	TimesIntoBackoff 	0
scalar IntersectionExampleScenario.node[40].nic.mac1609_4 	SlotsBackoff 	0
scalar IntersectionExampleScenario.node[40].nic.mac1609_4 	NumInternalContention 	0
scalar IntersectionExampleScenario.node[40].nic.mac1609_4 	totalBusyTime 	0
scalar IntersectionExampleScenario.node[40].veinsmobility 	startTime 	113.25
scalar IntersectionExampleScenario.node[40].veinsmobility 	totalTime 	43
scalar IntersectionExampleScenario.node[40].veinsmobility 	stopTime 	156.5
scalar IntersectionExampleScenario.node[40].veinsmobility 	minSpeed 	5.6500000953674
scalar IntersectionExampleScenario.node[40].veinsmobility 	maxSpeed 	15.875
scalar IntersectionExampleScenario.node[40].veinsmobility 	totalDistance 	543.33774196721
scalar IntersectionExampleScenario.node[40].veinsmobility 	totalCO2Emission 	134.1196381205
scalar IntersectionExampleScenario.node[30].appl 	VehicleRemoved 	0
scalar IntersectionExampleScenario.node[30].appl 	ArrivedAtDest 	1
scalar IntersectionExampleScenario.node[30].appl 	IntersectionEnterTime 	91.75
scalar IntersectionExampleScenario.node[30].appl 	IntersectionExitTime 	140.59936068402
scalar IntersectionExampleScenario.node[30].appl 	NumberOfCollisions 	0
scalar IntersectionExampleScenario.node[30].nic.phy80211p 	busyTime 	0
scalar IntersectionExampleScenario.node[30].nic.mac1609_4 	ReceivedUnicastPackets 	0
scalar IntersectionExampleScenario.node[30].nic.mac1609_4 	ReceivedBroadcasts 	0
scalar IntersectionExampleScenario.node[30].nic.mac1609_4 	SentPackets 	0
scalar IntersectionExampleScenario.node[30].nic.mac1609_4 	SNIRLostPackets 	0
scalar IntersectionExampleScenario.node[30].nic.mac1609_4 	RXTXLostPackets 	0
scalar IntersectionExampleScenario.node[30].nic.mac1609_4 	TotalLostPackets 	0
scalar IntersectionExampleScenario.node[30].nic.mac1609_4 	DroppedPacketsInMac 	0
scalar IntersectionExampleScenario.node[30].nic.mac1609_4 	TooLittleTime 	0
scalar IntersectionExampleScenario.node[30].nic.mac1609_4 	TimesIntoBackoff 	0
scalar IntersectionExampleScenario.node[30].nic.mac1609_4 	SlotsBackoff 	0
scalar IntersectionExampleScenario.node[30].nic.mac1609_4 	NumInternalContention 	0
scalar IntersectionExampleScenario.node[30].nic.mac1609_4 	totalBusyTime 	0
scalar IntersectionExampleScenario.node[30].veinsmobility 	startTime 	91.75
scalar IntersectionExampleScenario.node[30].veinsmobility 	totalTime 	66.5
scalar IntersectionExampleScenario.node[30].veinsmobility 	stopTime 	158.5
scalar IntersectionExampleScenario.node[30].veinsmobility 	minSpeed 	0
scalar IntersectionExampleScenario.node[30].veinsmobility 	maxSpeed 	14.625
scalar IntersectionExampleScenario.node[30].veinsmobility 	totalDistance 	567.63791562468
scalar IntersectionExampleScenario.node[30].veinsmobility 	totalCO2Emission 	151.7161302146
scalar IntersectionExampleScenario.node[32].appl 	VehicleRemoved 	0
scalar IntersectionExampleScenario.node[32].appl 	ArrivedAtDest 	1
scalar IntersectionExampleScenario.node[32].appl 	IntersectionEnterTime 	99.5
scalar IntersectionExampleScenario.node[32].appl 	IntersectionExitTime 	142.51256036197
scalar IntersectionExampleScenario.node[32].appl 	NumberOfCollisions 	0
scalar IntersectionExampleScenario.node[32].nic.phy80211p 	busyTime 	0
scalar IntersectionExampleScenario.node[32].nic.mac1609_4 	ReceivedUnicastPackets 	0
scalar IntersectionExampleScenario.node[32].nic.mac1609_4 	ReceivedBroadcasts 	0
scalar IntersectionExampleScenario.node[32].nic.mac1609_4 	SentPackets 	0
scalar IntersectionExampleScenario.node[32].nic.mac1609_4 	SNIRLostPackets 	0
scalar IntersectionExampleScenario.node[32].nic.mac1609_4 	RXTXLostPackets 	0
scalar IntersectionExampleScenario.node[32].nic.mac1609_4 	TotalLostPackets 	0
scalar IntersectionExampleScenario.node[32].nic.mac1609_4 	DroppedPacketsInMac 	0
scalar IntersectionExampleScenario.node[32].nic.mac1609_4 	TooLittleTime 	0
scalar IntersectionExampleScenario.node[32].nic.mac1609_4 	TimesIntoBackoff 	0
scalar IntersectionExampleScenario.node[32].nic.mac1609_4 	SlotsBackoff 	0
scalar IntersectionExampleScenario.node[32].nic.mac1609_4 	NumInternalContention 	0
scalar IntersectionExampleScenario.node[32].nic.mac1609_4 	totalBusyTime 	0
scalar IntersectionExampleScenario.node[32].veinsmobility 	startTime 	99.5
scalar IntersectionExampleScenario.node[32].veinsmobility 	totalTime 	59.25
scalar IntersectionExampleScenario.node[32].veinsmobility 	stopTime 	159
scalar IntersectionExampleScenario.node[32].veinsmobility 	minSpeed 	0
scalar IntersectionExampleScenario.node[32].veinsmobility 	maxSpeed 	14.99326133728
scalar IntersectionExampleScenario.node[32].veinsmobility 	totalDistance 	551.32223510742
scalar IntersectionExampleScenario.node[32].veinsmobility 	totalCO2Emission 	146.79227989961
scalar IntersectionExampleScenario.node[38].appl 	VehicleRemoved 	0
scalar IntersectionExampleScenario.node[38].appl 	ArrivedAtDest 	1
scalar IntersectionExampleScenario.node[38].appl 	IntersectionEnterTime 	108.75
scalar IntersectionExampleScenario.node[38].appl 	IntersectionExitTime 	144.52137443109
scalar IntersectionExampleScenario.node[38].appl 	NumberOfCollisions 	0
scalar IntersectionExampleScenario.node[38].nic.phy80211p 	busyTime 	0
scalar IntersectionExampleScenario.node[38].nic.mac1609_4 	ReceivedUnicastPackets 	0
scalar IntersectionExampleScenario.node[38].nic.mac1609_4 	ReceivedBroadcasts 	0
scalar IntersectionExampleScenario.node[38].nic.mac1609_4 	SentPackets 	0
scalar IntersectionExampleScenario.node[38].nic.mac1609_4 	SNIRLostPackets 	0
scalar IntersectionExampleScenario.node[38].nic.mac1609_4 	RXTXLostPackets 	0
scalar IntersectionExampleScenario.node[38].nic.mac1609_4 	TotalLostPackets 	0
scalar IntersectionExampleScenario.node[38].nic.mac1609_4 	DroppedPacketsInMac 	0
scalar IntersectionExampleScenario.node[38].nic.mac1609_4 	TooLittleTime 	0
scalar IntersectionExampleScenario.node[38].nic.mac1609_4 	TimesIntoBackoff 	0
scalar IntersectionExampleScenario.node[38].nic.mac1609_4 	SlotsBackoff 	0
scalar IntersectionExampleScenario.node[38].nic.mac1609_4 	NumInternalContention 	0
scalar IntersectionExampleScenario.node[38].nic.mac1609_4 	totalBusyTime 	0
scalar IntersectionExampleScenario.node[38].veinsmobility 	startTime 	108.75
scalar IntersectionExampleScenario.node[38].veinsmobility 	totalTime 	52.75
scalar IntersectionExampleScenario.node[38].veinsmobility 	stopTime 	161.75
scalar IntersectionExampleScenario.node[38].veinsmobility 	minSpeed 	0.98663133382797
scalar IntersectionExampleScenario.node[38].veinsmobility 	maxSpeed 	15.049049377441
scalar IntersectionExampleScenario.node[38].veinsmobility 	totalDistance 	546.58676122653
scalar IntersectionExampleScenario.node[38].veinsmobility 	totalCO2Emission 	139.0424305798
scalar IntersectionExampleScenario.node[39].appl 	VehicleRemoved 	0
scalar IntersectionExampleScenario.node[39].appl 	ArrivedAtDest 	1
scalar IntersectionExampleScenario.node[39].appl 	IntersectionEnterTime 	112
scalar IntersectionExampleScenario.node[39].appl 	IntersectionExitTime 	146.32936515802
scalar IntersectionExampleScenario.node[39].appl 	NumberOfCollisions 	0
scalar IntersectionExampleScenario.node[39].nic.phy80211p 	busyTime 	0
scalar IntersectionExampleScenario.node[39].nic.mac1609_4 	ReceivedUnicastPackets 	0
scalar IntersectionExampleScenario.node[39].nic.mac1609_4 	ReceivedBroadcasts 	0
scalar IntersectionExampleScenario.node[39].nic.mac1609_4 	SentPackets 	0
scalar IntersectionExampleScenario.node[39].nic.mac1609_4 	SNIRLostPackets 	0
scalar IntersectionExampleScenario.node[39].nic.mac1609_4 	RXTXLostPackets 	0
scalar IntersectionExampleScenario.node[39].nic.mac1609_4 	TotalLostPackets 	0
scalar IntersectionExampleScenario.node[39].nic.mac1609_4 	DroppedPacketsInMac 	0
scalar IntersectionExampleScenario.node[39].nic.mac1609_4 	TooLittleTime 	0
scalar IntersectionExampleScenario.node[39].nic.mac1609_4 	TimesIntoBackoff 	0
scalar IntersectionExampleScenario.node[39].nic.mac1609_4 	SlotsBackoff 	0
[...]
scalar IntersectionExampleScenario.node[613].veinsmobility 	totalCO2Emission 	47.034168740865
scalar IntersectionExampleScenario.node[614].appl 	VehicleRemoved 	0
scalar IntersectionExampleScenario.node[614].appl 	ArrivedAtDest 	0
scalar IntersectionExampleScenario.node[614].appl 	IntersectionEnterTime 	1787.5
scalar IntersectionExampleScenario.node[614].appl 	IntersectionExitTime 	-1
scalar IntersectionExampleScenario.node[614].appl 	NumberOfCollisions 	0
scalar IntersectionExampleScenario.node[614].nic.phy80211p 	busyTime 	0
scalar IntersectionExampleScenario.node[614].nic.mac1609_4 	ReceivedUnicastPackets 	0
scalar IntersectionExampleScenario.node[614].nic.mac1609_4 	ReceivedBroadcasts 	0
scalar IntersectionExampleScenario.node[614].nic.mac1609_4 	SentPackets 	0
scalar IntersectionExampleScenario.node[614].nic.mac1609_4 	SNIRLostPackets 	0
scalar IntersectionExampleScenario.node[614].nic.mac1609_4 	RXTXLostPackets 	0
scalar IntersectionExampleScenario.node[614].nic.mac1609_4 	TotalLostPackets 	0
scalar IntersectionExampleScenario.node[614].nic.mac1609_4 	DroppedPacketsInMac 	0
scalar IntersectionExampleScenario.node[614].nic.mac1609_4 	TooLittleTime 	0
scalar IntersectionExampleScenario.node[614].nic.mac1609_4 	TimesIntoBackoff 	0
scalar IntersectionExampleScenario.node[614].nic.mac1609_4 	SlotsBackoff 	0
scalar IntersectionExampleScenario.node[614].nic.mac1609_4 	NumInternalContention 	0
scalar IntersectionExampleScenario.node[614].nic.mac1609_4 	totalBusyTime 	0
scalar IntersectionExampleScenario.node[614].veinsmobility 	startTime 	1787.5
scalar IntersectionExampleScenario.node[614].veinsmobility 	totalTime 	12.5
scalar IntersectionExampleScenario.node[614].veinsmobility 	stopTime 	1800
scalar IntersectionExampleScenario.node[614].veinsmobility 	minSpeed 	5.6500000953674
scalar IntersectionExampleScenario.node[614].veinsmobility 	maxSpeed 	15.64999961853
scalar IntersectionExampleScenario.node[614].veinsmobility 	totalDistance 	170.84907531738
scalar IntersectionExampleScenario.node[614].veinsmobility 	totalCO2Emission 	50.357132827819
scalar IntersectionExampleScenario.node[615].appl 	VehicleRemoved 	0
scalar IntersectionExampleScenario.node[615].appl 	ArrivedAtDest 	0
scalar IntersectionExampleScenario.node[615].appl 	IntersectionEnterTime 	1787.75
scalar IntersectionExampleScenario.node[615].appl 	IntersectionExitTime 	-1
scalar IntersectionExampleScenario.node[615].appl 	NumberOfCollisions 	0
scalar IntersectionExampleScenario.node[615].nic.phy80211p 	busyTime 	0
scalar IntersectionExampleScenario.node[615].nic.mac1609_4 	ReceivedUnicastPackets 	0
scalar IntersectionExampleScenario.node[615].nic.mac1609_4 	ReceivedBroadcasts 	0
scalar IntersectionExampleScenario.node[615].nic.mac1609_4 	SentPackets 	0
scalar IntersectionExampleScenario.node[615].nic.mac1609_4 	SNIRLostPackets 	0
scalar IntersectionExampleScenario.node[615].nic.mac1609_4 	RXTXLostPackets 	0
scalar IntersectionExampleScenario.node[615].nic.mac1609_4 	TotalLostPackets 	0
scalar IntersectionExampleScenario.node[615].nic.mac1609_4 	DroppedPacketsInMac 	0
scalar IntersectionExampleScenario.node[615].nic.mac1609_4 	TooLittleTime 	0
scalar IntersectionExampleScenario.node[615].nic.mac1609_4 	TimesIntoBackoff 	0
scalar IntersectionExampleScenario.node[615].nic.mac1609_4 	SlotsBackoff 	0
scalar IntersectionExampleScenario.node[615].nic.mac1609_4 	NumInternalContention 	0
scalar IntersectionExampleScenario.node[615].nic.mac1609_4 	totalBusyTime 	0
scalar IntersectionExampleScenario.node[615].veinsmobility 	startTime 	1787.75
scalar IntersectionExampleScenario.node[615].veinsmobility 	totalTime 	12.25
scalar IntersectionExampleScenario.node[615].veinsmobility 	stopTime 	1800
scalar IntersectionExampleScenario.node[615].veinsmobility 	minSpeed 	5.6500000953674
scalar IntersectionExampleScenario.node[615].veinsmobility 	maxSpeed 	15.611875534058
scalar IntersectionExampleScenario.node[615].veinsmobility 	totalDistance 	166.23132324219
scalar IntersectionExampleScenario.node[615].veinsmobility 	totalCO2Emission 	50.616980306456
scalar IntersectionExampleScenario.node[616].appl 	VehicleRemoved 	0
scalar IntersectionExampleScenario.node[616].appl 	ArrivedAtDest 	0
scalar IntersectionExampleScenario.node[616].appl 	IntersectionEnterTime 	1792.25
scalar IntersectionExampleScenario.node[616].appl 	IntersectionExitTime 	-1
scalar IntersectionExampleScenario.node[616].appl 	NumberOfCollisions 	0
scalar IntersectionExampleScenario.node[616].nic.phy80211p 	busyTime 	0
scalar IntersectionExampleScenario.node[616].nic.mac1609_4 	ReceivedUnicastPackets 	0
scalar IntersectionExampleScenario.node[616].nic.mac1609_4 	ReceivedBroadcasts 	0
scalar IntersectionExampleScenario.node[616].nic.mac1609_4 	SentPackets 	0
scalar IntersectionExampleScenario.node[616].nic.mac1609_4 	SNIRLostPackets 	0
scalar IntersectionExampleScenario.node[616].nic.mac1609_4 	RXTXLostPackets 	0
scalar IntersectionExampleScenario.node[616].nic.mac1609_4 	TotalLostPackets 	0
scalar IntersectionExampleScenario.node[616].nic.mac1609_4 	DroppedPacketsInMac 	0
scalar IntersectionExampleScenario.node[616].nic.mac1609_4 	TooLittleTime 	0
scalar IntersectionExampleScenario.node[616].nic.mac1609_4 	TimesIntoBackoff 	0
scalar IntersectionExampleScenario.node[616].nic.mac1609_4 	SlotsBackoff 	0
scalar IntersectionExampleScenario.node[616].nic.mac1609_4 	NumInternalContention 	0
scalar IntersectionExampleScenario.node[616].nic.mac1609_4 	totalBusyTime 	0
scalar IntersectionExampleScenario.node[616].veinsmobility 	startTime 	1792.25
scalar IntersectionExampleScenario.node[616].veinsmobility 	totalTime 	7.75
scalar IntersectionExampleScenario.node[616].veinsmobility 	stopTime 	1800
scalar IntersectionExampleScenario.node[616].veinsmobility 	minSpeed 	5.6500000953674
scalar IntersectionExampleScenario.node[616].veinsmobility 	maxSpeed 	15.307156562805
scalar IntersectionExampleScenario.node[616].veinsmobility 	totalDistance 	97.311752319336
scalar IntersectionExampleScenario.node[616].veinsmobility 	totalCO2Emission 	39.736043968286
scalar IntersectionExampleScenario.node[617].appl 	VehicleRemoved 	0
scalar IntersectionExampleScenario.node[617].appl 	ArrivedAtDest 	0
scalar IntersectionExampleScenario.node[617].appl 	IntersectionEnterTime 	1792.25
scalar IntersectionExampleScenario.node[617].appl 	IntersectionExitTime 	-1
scalar IntersectionExampleScenario.node[617].appl 	NumberOfCollisions 	0
scalar IntersectionExampleScenario.node[617].nic.phy80211p 	busyTime 	0
scalar IntersectionExampleScenario.node[617].nic.mac1609_4 	ReceivedUnicastPackets 	0
scalar IntersectionExampleScenario.node[617].nic.mac1609_4 	ReceivedBroadcasts 	0
scalar IntersectionExampleScenario.node[617].nic.mac1609_4 	SentPackets 	0
scalar IntersectionExampleScenario.node[617].nic.mac1609_4 	SNIRLostPackets 	0
scalar IntersectionExampleScenario.node[617].nic.mac1609_4 	RXTXLostPackets 	0
scalar IntersectionExampleScenario.node[617].nic.mac1609_4 	TotalLostPackets 	0
scalar IntersectionExampleScenario.node[617].nic.mac1609_4 	DroppedPacketsInMac 	0
scalar IntersectionExampleScenario.node[617].nic.mac1609_4 	TooLittleTime 	0
scalar IntersectionExampleScenario.node[617].nic.mac1609_4 	TimesIntoBackoff 	0
scalar IntersectionExampleScenario.node[617].nic.mac1609_4 	SlotsBackoff 	0
scalar IntersectionExampleScenario.node[617].nic.mac1609_4 	NumInternalContention 	0
scalar IntersectionExampleScenario.node[617].nic.mac1609_4 	totalBusyTime 	0
scalar IntersectionExampleScenario.node[617].veinsmobility 	startTime 	1792.25
scalar IntersectionExampleScenario.node[617].veinsmobility 	totalTime 	7.75
scalar IntersectionExampleScenario.node[617].veinsmobility 	stopTime 	1800
scalar IntersectionExampleScenario.node[617].veinsmobility 	minSpeed 	5.6500000953674
scalar IntersectionExampleScenario.node[617].veinsmobility 	maxSpeed 	15.722317695618
scalar IntersectionExampleScenario.node[617].veinsmobility 	totalDistance 	98.904296875
scalar IntersectionExampleScenario.node[617].veinsmobility 	totalCO2Emission 	41.552364363042
scalar IntersectionExampleScenario.node[618].appl 	VehicleRemoved 	0
scalar IntersectionExampleScenario.node[618].appl 	ArrivedAtDest 	0
scalar IntersectionExampleScenario.node[618].appl 	IntersectionEnterTime 	1793.75
scalar IntersectionExampleScenario.node[618].appl 	IntersectionExitTime 	-1
scalar IntersectionExampleScenario.node[618].appl 	NumberOfCollisions 	0
scalar IntersectionExampleScenario.node[618].nic.phy80211p 	busyTime 	0
scalar IntersectionExampleScenario.node[618].nic.mac1609_4 	ReceivedUnicastPackets 	0
scalar IntersectionExampleScenario.node[618].nic.mac1609_4 	ReceivedBroadcasts 	0
scalar IntersectionExampleScenario.node[618].nic.mac1609_4 	SentPackets 	0
scalar IntersectionExampleScenario.node[618].nic.mac1609_4 	SNIRLostPackets 	0
scalar IntersectionExampleScenario.node[618].nic.mac1609_4 	RXTXLostPackets 	0
scalar IntersectionExampleScenario.node[618].nic.mac1609_4 	TotalLostPackets 	0
scalar IntersectionExampleScenario.node[618].nic.mac1609_4 	DroppedPacketsInMac 	0
scalar IntersectionExampleScenario.node[618].nic.mac1609_4 	TooLittleTime 	0
scalar IntersectionExampleScenario.node[618].nic.mac1609_4 	TimesIntoBackoff 	0
scalar IntersectionExampleScenario.node[618].nic.mac1609_4 	SlotsBackoff 	0
scalar IntersectionExampleScenario.node[618].nic.mac1609_4 	NumInternalContention 	0
scalar IntersectionExampleScenario.node[618].nic.mac1609_4 	totalBusyTime 	0
scalar IntersectionExampleScenario.node[618].veinsmobility 	startTime 	1793.75
scalar IntersectionExampleScenario.node[618].veinsmobility 	totalTime 	6.25
scalar IntersectionExampleScenario.node[618].veinsmobility 	stopTime 	1800
scalar IntersectionExampleScenario.node[618].veinsmobility 	minSpeed 	5.6500000953674
scalar IntersectionExampleScenario.node[618].veinsmobility 	maxSpeed 	15.64999961853
scalar IntersectionExampleScenario.node[618].veinsmobility 	totalDistance 	74.810646057129
scalar IntersectionExampleScenario.node[618].veinsmobility 	totalCO2Emission 	36.843605737552
scalar IntersectionExampleScenario.node[619].appl 	VehicleRemoved 	0
scalar IntersectionExampleScenario.node[619].appl 	ArrivedAtDest 	0
scalar IntersectionExampleScenario.node[619].appl 	IntersectionEnterTime 	1797.5
scalar IntersectionExampleScenario.node[619].appl 	IntersectionExitTime 	-1
scalar IntersectionExampleScenario.node[619].appl 	NumberOfCollisions 	0
scalar IntersectionExampleScenario.node[619].nic.phy80211p 	busyTime 	0
scalar IntersectionExampleScenario.node[619].nic.mac1609_4 	ReceivedUnicastPackets 	0
scalar IntersectionExampleScenario.node[619].nic.mac1609_4 	ReceivedBroadcasts 	0
scalar IntersectionExampleScenario.node[619].nic.mac1609_4 	SentPackets 	0
scalar IntersectionExampleScenario.node[619].nic.mac1609_4 	SNIRLostPackets 	0
scalar IntersectionExampleScenario.node[619].nic.mac1609_4 	RXTXLostPackets 	0
scalar IntersectionExampleScenario.node[619].nic.mac1609_4 	TotalLostPackets 	0
scalar IntersectionExampleScenario.node[619].nic.mac1609_4 	DroppedPacketsInMac 	0
scalar IntersectionExampleScenario.node[619].nic.mac1609_4 	TooLittleTime 	0
scalar IntersectionExampleScenario.node[619].nic.mac1609_4 	TimesIntoBackoff 	0
scalar IntersectionExampleScenario.node[619].nic.mac1609_4 	SlotsBackoff 	0
scalar IntersectionExampleScenario.node[619].nic.mac1609_4 	NumInternalContention 	0
scalar IntersectionExampleScenario.node[619].nic.mac1609_4 	totalBusyTime 	0
scalar IntersectionExampleScenario.node[619].veinsmobility 	startTime 	1797.5
scalar IntersectionExampleScenario.node[619].veinsmobility 	totalTime 	2.5
scalar IntersectionExampleScenario.node[619].veinsmobility 	stopTime 	1800
scalar IntersectionExampleScenario.node[619].veinsmobility 	minSpeed 	5.6500000953674
scalar IntersectionExampleScenario.node[619].veinsmobility 	maxSpeed 	11.27499961853
scalar IntersectionExampleScenario.node[619].veinsmobility 	totalDistance 	20.375
scalar IntersectionExampleScenario.node[619].veinsmobility 	totalCO2Emission 	15.500237724595
scalar IntersectionExampleScenario.node[620].appl 	VehicleRemoved 	0
scalar IntersectionExampleScenario.node[620].appl 	ArrivedAtDest 	0
scalar IntersectionExampleScenario.node[620].appl 	IntersectionEnterTime 	1798.25
scalar IntersectionExampleScenario.node[620].appl 	IntersectionExitTime 	-1
scalar IntersectionExampleScenario.node[620].appl 	NumberOfCollisions 	0
scalar IntersectionExampleScenario.node[620].nic.phy80211p 	busyTime 	0
scalar IntersectionExampleScenario.node[620].nic.mac1609_4 	ReceivedUnicastPackets 	0
scalar IntersectionExampleScenario.node[620].nic.mac1609_4 	ReceivedBroadcasts 	0
scalar IntersectionExampleScenario.node[620].nic.mac1609_4 	SentPackets 	0
scalar IntersectionExampleScenario.node[620].nic.mac1609_4 	SNIRLostPackets 	0
scalar IntersectionExampleScenario.node[620].nic.mac1609_4 	RXTXLostPackets 	0
scalar IntersectionExampleScenario.node[620].nic.mac1609_4 	TotalLostPackets 	0
scalar IntersectionExampleScenario.node[620].nic.mac1609_4 	DroppedPacketsInMac 	0
scalar IntersectionExampleScenario.node[620].nic.mac1609_4 	TooLittleTime 	0
scalar IntersectionExampleScenario.node[620].nic.mac1609_4 	TimesIntoBackoff 	0
scalar IntersectionExampleScenario.node[620].nic.mac1609_4 	SlotsBackoff 	0
scalar IntersectionExampleScenario.node[620].nic.mac1609_4 	NumInternalContention 	0
scalar IntersectionExampleScenario.node[620].nic.mac1609_4 	totalBusyTime 	0
scalar IntersectionExampleScenario.node[620].veinsmobility 	startTime 	1798.25
scalar IntersectionExampleScenario.node[620].veinsmobility 	totalTime 	1.75
scalar IntersectionExampleScenario.node[620].veinsmobility 	stopTime 	1800
scalar IntersectionExampleScenario.node[620].veinsmobility 	minSpeed 	5.6500000953674
scalar IntersectionExampleScenario.node[620].veinsmobility 	maxSpeed 	9.3999996185303
scalar IntersectionExampleScenario.node[620].veinsmobility 	totalDistance 	12.621826171875
scalar IntersectionExampleScenario.node[620].veinsmobility 	totalCO2Emission 	9.3856839288341
scalar IntersectionExampleScenario.node[621].appl 	VehicleRemoved 	0
scalar IntersectionExampleScenario.node[621].appl 	ArrivedAtDest 	0
scalar IntersectionExampleScenario.node[621].appl 	IntersectionEnterTime 	1799
scalar IntersectionExampleScenario.node[621].appl 	IntersectionExitTime 	-1
scalar IntersectionExampleScenario.node[621].appl 	NumberOfCollisions 	0
scalar IntersectionExampleScenario.node[621].nic.phy80211p 	busyTime 	0
scalar IntersectionExampleScenario.node[621].nic.mac1609_4 	ReceivedUnicastPackets 	0
scalar IntersectionExampleScenario.node[621].nic.mac1609_4 	ReceivedBroadcasts 	0
scalar IntersectionExampleScenario.node[621].nic.mac1609_4 	SentPackets 	0
scalar IntersectionExampleScenario.node[621].nic.mac1609_4 	SNIRLostPackets 	0
scalar IntersectionExampleScenario.node[621].nic.mac1609_4 	RXTXLostPackets 	0
scalar IntersectionExampleScenario.node[621].nic.mac1609_4 	TotalLostPackets 	0
scalar IntersectionExampleScenario.node[621].nic.mac1609_4 	DroppedPacketsInMac 	0
scalar IntersectionExampleScenario.node[621].nic.mac1609_4 	TooLittleTime 	0
scalar IntersectionExampleScenario.node[621].nic.mac1609_4 	TimesIntoBackoff 	0
scalar IntersectionExampleScenario.node[621].nic.mac1609_4 	SlotsBackoff 	0
scalar IntersectionExampleScenario.node[621].nic.mac1609_4 	NumInternalContention 	0
scalar IntersectionExampleScenario.node[621].nic.mac1609_4 	totalBusyTime 	0
scalar IntersectionExampleScenario.node[621].veinsmobility 	startTime 	1799
scalar IntersectionExampleScenario.node[621].veinsmobility 	totalTime 	1
scalar IntersectionExampleScenario.node[621].veinsmobility 	stopTime 	1800
scalar IntersectionExampleScenario.node[621].veinsmobility 	minSpeed 	5.6500000953674
scalar IntersectionExampleScenario.node[621].veinsmobility 	maxSpeed 	7.5250000953674
scalar IntersectionExampleScenario.node[621].veinsmobility 	totalDistance 	6.2749938964844
scalar IntersectionExampleScenario.node[621].veinsmobility 	totalCO2Emission 	4.2232135025359
scalar IntersectionExampleScenario.node[622].appl 	VehicleRemoved 	0
scalar IntersectionExampleScenario.node[622].appl 	ArrivedAtDest 	0
scalar IntersectionExampleScenario.node[622].appl 	IntersectionEnterTime 	1799.25
scalar IntersectionExampleScenario.node[622].appl 	IntersectionExitTime 	-1
scalar IntersectionExampleScenario.node[622].appl 	NumberOfCollisions 	0
scalar IntersectionExampleScenario.node[622].nic.phy80211p 	busyTime 	0
scalar IntersectionExampleScenario.node[622].nic.mac1609_4 	ReceivedUnicastPackets 	0
scalar IntersectionExampleScenario.node[622].nic.mac1609_4 	ReceivedBroadcasts 	0
scalar IntersectionExampleScenario.node[622].nic.mac1609_4 	SentPackets 	0
scalar IntersectionExampleScenario.node[622].nic.mac1609_4 	SNIRLostPackets 	0
scalar IntersectionExampleScenario.node[622].nic.mac1609_4 	RXTXLostPackets 	0
scalar IntersectionExampleScenario.node[622].nic.mac1609_4 	TotalLostPackets 	0
scalar IntersectionExampleScenario.node[622].nic.mac1609_4 	DroppedPacketsInMac 	0
scalar IntersectionExampleScenario.node[622].nic.mac1609_4 	TooLittleTime 	0
scalar IntersectionExampleScenario.node[622].nic.mac1609_4 	TimesIntoBackoff 	0
scalar IntersectionExampleScenario.node[622].nic.mac1609_4 	SlotsBackoff 	0
scalar IntersectionExampleScenario.node[622].nic.mac1609_4 	NumInternalContention 	0
scalar IntersectionExampleScenario.node[622].nic.mac1609_4 	totalBusyTime 	0
scalar IntersectionExampleScenario.node[622].veinsmobility 	startTime 	1799.25
scalar IntersectionExampleScenario.node[622].veinsmobility 	totalTime 	0.75
scalar IntersectionExampleScenario.node[622].veinsmobility 	stopTime 	1800
scalar IntersectionExampleScenario.node[622].veinsmobility 	minSpeed 	5.6500000953674
scalar IntersectionExampleScenario.node[622].veinsmobility 	maxSpeed 	6.9000000953674
scalar IntersectionExampleScenario.node[622].veinsmobility 	totalDistance 	4.471923828125
scalar IntersectionExampleScenario.node[622].veinsmobility 	totalCO2Emission 	2.7116680206665
scalar IntersectionExampleScenario.node[623].appl 	VehicleRemoved 	0
scalar IntersectionExampleScenario.node[623].appl 	ArrivedAtDest 	0
scalar IntersectionExampleScenario.node[623].appl 	IntersectionEnterTime 	1799.75
scalar IntersectionExampleScenario.node[623].appl 	IntersectionExitTime 	-1
scalar IntersectionExampleScenario.node[623].appl 	NumberOfCollisions 	0
scalar IntersectionExampleScenario.node[623].nic.phy80211p 	busyTime 	0
scalar IntersectionExampleScenario.node[623].nic.mac1609_4 	ReceivedUnicastPackets 	0
scalar IntersectionExampleScenario.node[623].nic.mac1609_4 	ReceivedBroadcasts 	0
scalar IntersectionExampleScenario.node[623].nic.mac1609_4 	SentPackets 	0
scalar IntersectionExampleScenario.node[623].nic.mac1609_4 	SNIRLostPackets 	0
scalar IntersectionExampleScenario.node[623].nic.mac1609_4 	RXTXLostPackets 	0
scalar IntersectionExampleScenario.node[623].nic.mac1609_4 	TotalLostPackets 	0
scalar IntersectionExampleScenario.node[623].nic.mac1609_4 	DroppedPacketsInMac 	0
scalar IntersectionExampleScenario.node[623].nic.mac1609_4 	TooLittleTime 	0
scalar IntersectionExampleScenario.node[623].nic.mac1609_4 	TimesIntoBackoff 	0
scalar IntersectionExampleScenario.node[623].nic.mac1609_4 	SlotsBackoff 	0
scalar IntersectionExampleScenario.node[623].nic.mac1609_4 	NumInternalContention 	0
scalar IntersectionExampleScenario.node[623].nic.mac1609_4 	totalBusyTime 	0
scalar IntersectionExampleScenario.node[623].veinsmobility 	startTime 	1799.75
scalar IntersectionExampleScenario.node[623].veinsmobility 	totalTime 	0.25
scalar IntersectionExampleScenario.node[623].veinsmobility 	stopTime 	1800
scalar IntersectionExampleScenario.node[623].veinsmobility 	minSpeed 	5.6500000953674
scalar IntersectionExampleScenario.node[623].veinsmobility 	maxSpeed 	5.6500000953674
scalar IntersectionExampleScenario.node[623].veinsmobility 	totalDistance 	1.3344116210938
scalar IntersectionExampleScenario.node[623].veinsmobility 	totalCO2Emission 	0
