file 23252583 1591400717                                        
version 2
run nodebug-47-20200605-19:41:13-18076
attr configname nodebug
attr datetime 20200605-19:41:13
attr experiment nodebug
attr inifile omnetpp.ini
attr iterationvars ""
attr iterationvars2 $repetition=47
attr measurement ""
attr network "\"org.car2x.veins.modules.application.ExtTraCIScenarioManagerLaunchd.IntersectionExampleScenario\""
attr processid 18076
attr repetition 47
attr replication #47
attr resultdir results
attr runnumber 47
attr seedset 47
param **.coreDebug false
param **.debug false
param *.**.nic.mac1609_4.bitrate 18Mbps
param *.**.nic.mac1609_4.txPower 20mW
param *.**.nic.mac1609_4.useServiceChannel false
param *.**.nic.phy80211p.analogueModels "xmldoc(\"config.xml\")"
param *.**.nic.phy80211p.decider "xmldoc(\"config.xml\")"
param *.**.nic.phy80211p.sensitivity -89dBm
param *.**.nic.phy80211p.thermalNoise -110dBm
param *.**.nic.phy80211p.usePropagationDelay true
param *.**.nic.phy80211p.useThermalNoise true
param *.annotations.draw false
param *.connectionManager.alpha 2.0
param *.connectionManager.carrierFrequency "5.890e9 Hz"
param *.connectionManager.pMax 20mW
param *.connectionManager.sat -89dBm
param *.connectionManager.sendDirect true
param *.manager.autoShutdown true
param *.manager.host "\"localhost\""
param *.manager.launchConfig "xmldoc(\"paramics.launchd.xml\")"
param *.manager.margin 25
param *.manager.moduleDisplayString "\"\""
param *.manager.moduleName "\"node\""
param *.manager.moduleType "\"org.car2x.veins.nodes.Car\""
param *.manager.port 9999
param *.manager.updateInterval 250ms
param *.node[*0].veinsmobility.accidentCount 0
param *.node[*0].veinsmobility.accidentDuration 30s
param *.node[*0].veinsmobility.accidentStart 75s
param *.node[*].appl.LiderSelectZoneRadio 55.0
param *.node[*].appl.ShareDataZoneRadio 110.0
param *.node[*].appl.TiempoSemaforo 30.0
param *.node[*].appl.beaconInterval 1s
param *.node[*].appl.beaconPriority 3
param *.node[*].appl.dataOnSch false
param *.node[*].appl.dataPriority 2
param *.node[*].appl.debug false
param *.node[*].appl.headerLength "256 bit"
param *.node[*].appl.maxOffset 0.005s
param *.node[*].appl.sendBeacons false
param *.node[*].appl.sendData true
param *.node[*].applType "\"Dummy\""
param *.node[*].mobilityType "\"TraCIMobility\""
param *.node[*].mobilityType.debug true
param *.node[*].veinsmobility.x 0
param *.node[*].veinsmobility.y 0
param *.node[*].veinsmobility.z 1.895
param *.node[*].veinsmobilityType "\"org.car2x.veins.modules.mobility.traci.TraCIMobility\""
param *.node[*].veinsmobilityType.debug true
param *.playgroundSizeX 8500m
param *.playgroundSizeY 8500m
param *.playgroundSizeZ 50m
param *.world.use2D false
param *.world.useTorus false

vector 73027  IntersectionExampleScenario.manager  vehiclesinsim  ETV
attr type  int
vector 73028  IntersectionExampleScenario.manager  realtime  ETV
attr type  int
attr unit  s
vector 73031  IntersectionExampleScenario.node[0].veinsmobility  posx  ETV
vector 73032  IntersectionExampleScenario.node[0].veinsmobility  posy  ETV
vector 73033  IntersectionExampleScenario.node[0].veinsmobility  speed  ETV
vector 73034  IntersectionExampleScenario.node[0].veinsmobility  acceleration  ETV
vector 73035  IntersectionExampleScenario.node[0].veinsmobility  co2emission  ETV
vector 73038  IntersectionExampleScenario.node[1].veinsmobility  posx  ETV
vector 73039  IntersectionExampleScenario.node[1].veinsmobility  posy  ETV
vector 73040  IntersectionExampleScenario.node[1].veinsmobility  speed  ETV
vector 73041  IntersectionExampleScenario.node[1].veinsmobility  acceleration  ETV
vector 73042  IntersectionExampleScenario.node[1].veinsmobility  co2emission  ETV
vector 73045  IntersectionExampleScenario.node[2].veinsmobility  posx  ETV
vector 73046  IntersectionExampleScenario.node[2].veinsmobility  posy  ETV
vector 73047  IntersectionExampleScenario.node[2].veinsmobility  speed  ETV
vector 73048  IntersectionExampleScenario.node[2].veinsmobility  acceleration  ETV
vector 73049  IntersectionExampleScenario.node[2].veinsmobility  co2emission  ETV
vector 73052  IntersectionExampleScenario.node[3].veinsmobility  posx  ETV
vector 73053  IntersectionExampleScenario.node[3].veinsmobility  posy  ETV
vector 73054  IntersectionExampleScenario.node[3].veinsmobility  speed  ETV
vector 73055  IntersectionExampleScenario.node[3].veinsmobility  acceleration  ETV
vector 73056  IntersectionExampleScenario.node[3].veinsmobility  co2emission  ETV
vector 73059  IntersectionExampleScenario.node[4].veinsmobility  posx  ETV
vector 73060  IntersectionExampleScenario.node[4].veinsmobility  posy  ETV
vector 73061  IntersectionExampleScenario.node[4].veinsmobility  speed  ETV
vector 73066  IntersectionExampleScenario.node[5].veinsmobility  posx  ETV
vector 73067  IntersectionExampleScenario.node[5].veinsmobility  posy  ETV
vector 73073  IntersectionExampleScenario.node[6].veinsmobility  posx  ETV
vector 73074  IntersectionExampleScenario.node[6].veinsmobility  posy  ETV
vector 73062  IntersectionExampleScenario.node[4].veinsmobility  acceleration  ETV
vector 73063  IntersectionExampleScenario.node[4].veinsmobility  co2emission  ETV
vector 73080  IntersectionExampleScenario.node[7].veinsmobility  posx  ETV
vector 73081  IntersectionExampleScenario.node[7].veinsmobility  posy  ETV
vector 73068  IntersectionExampleScenario.node[5].veinsmobility  speed  ETV
vector 73075  IntersectionExampleScenario.node[6].veinsmobility  speed  ETV
vector 73069  IntersectionExampleScenario.node[5].veinsmobility  acceleration  ETV
vector 73070  IntersectionExampleScenario.node[5].veinsmobility  co2emission  ETV
vector 73076  IntersectionExampleScenario.node[6].veinsmobility  acceleration  ETV
vector 73077  IntersectionExampleScenario.node[6].veinsmobility  co2emission  ETV
vector 73082  IntersectionExampleScenario.node[7].veinsmobility  speed  ETV
vector 73083  IntersectionExampleScenario.node[7].veinsmobility  acceleration  ETV
vector 73084  IntersectionExampleScenario.node[7].veinsmobility  co2emission  ETV
vector 73087  IntersectionExampleScenario.node[8].veinsmobility  posx  ETV
vector 73088  IntersectionExampleScenario.node[8].veinsmobility  posy  ETV
vector 73089  IntersectionExampleScenario.node[8].veinsmobility  speed  ETV
vector 73094  IntersectionExampleScenario.node[9].veinsmobility  posx  ETV
vector 73095  IntersectionExampleScenario.node[9].veinsmobility  posy  ETV
vector 73090  IntersectionExampleScenario.node[8].veinsmobility  acceleration  ETV
vector 73091  IntersectionExampleScenario.node[8].veinsmobility  co2emission  ETV
vector 73096  IntersectionExampleScenario.node[9].veinsmobility  speed  ETV
vector 73097  IntersectionExampleScenario.node[9].veinsmobility  acceleration  ETV
vector 73098  IntersectionExampleScenario.node[9].veinsmobility  co2emission  ETV
vector 73101  IntersectionExampleScenario.node[10].veinsmobility  posx  ETV
vector 73102  IntersectionExampleScenario.node[10].veinsmobility  posy  ETV
vector 73103  IntersectionExampleScenario.node[10].veinsmobility  speed  ETV
vector 73104  IntersectionExampleScenario.node[10].veinsmobility  acceleration  ETV
vector 73105  IntersectionExampleScenario.node[10].veinsmobility  co2emission  ETV
vector 73108  IntersectionExampleScenario.node[11].veinsmobility  posx  ETV
vector 73109  IntersectionExampleScenario.node[11].veinsmobility  posy  ETV
vector 73110  IntersectionExampleScenario.node[11].veinsmobility  speed  ETV
vector 73115  IntersectionExampleScenario.node[12].veinsmobility  posx  ETV
vector 73116  IntersectionExampleScenario.node[12].veinsmobility  posy  ETV
vector 73111  IntersectionExampleScenario.node[11].veinsmobility  acceleration  ETV
vector 73112  IntersectionExampleScenario.node[11].veinsmobility  co2emission  ETV
vector 73117  IntersectionExampleScenario.node[12].veinsmobility  speed  ETV
vector 73118  IntersectionExampleScenario.node[12].veinsmobility  acceleration  ETV
vector 73119  IntersectionExampleScenario.node[12].veinsmobility  co2emission  ETV
vector 73122  IntersectionExampleScenario.node[13].veinsmobility  posx  ETV
vector 73123  IntersectionExampleScenario.node[13].veinsmobility  posy  ETV
vector 73124  IntersectionExampleScenario.node[13].veinsmobility  speed  ETV
vector 73125  IntersectionExampleScenario.node[13].veinsmobility  acceleration  ETV
vector 73126  IntersectionExampleScenario.node[13].veinsmobility  co2emission  ETV
vector 73129  IntersectionExampleScenario.node[14].veinsmobility  posx  ETV
vector 73130  IntersectionExampleScenario.node[14].veinsmobility  posy  ETV
vector 73136  IntersectionExampleScenario.node[15].veinsmobility  posx  ETV
vector 73137  IntersectionExampleScenario.node[15].veinsmobility  posy  ETV
vector 73131  IntersectionExampleScenario.node[14].veinsmobility  speed  ETV
vector 73138  IntersectionExampleScenario.node[15].veinsmobility  speed  ETV
vector 73132  IntersectionExampleScenario.node[14].veinsmobility  acceleration  ETV
vector 73133  IntersectionExampleScenario.node[14].veinsmobility  co2emission  ETV
vector 73139  IntersectionExampleScenario.node[15].veinsmobility  acceleration  ETV
vector 73140  IntersectionExampleScenario.node[15].veinsmobility  co2emission  ETV
vector 73143  IntersectionExampleScenario.node[16].veinsmobility  posx  ETV
vector 73144  IntersectionExampleScenario.node[16].veinsmobility  posy  ETV
vector 73145  IntersectionExampleScenario.node[16].veinsmobility  speed  ETV
vector 73146  IntersectionExampleScenario.node[16].veinsmobility  acceleration  ETV
vector 73147  IntersectionExampleScenario.node[16].veinsmobility  co2emission  ETV
vector 73150  IntersectionExampleScenario.node[17].veinsmobility  posx  ETV
vector 73151  IntersectionExampleScenario.node[17].veinsmobility  posy  ETV
vector 73152  IntersectionExampleScenario.node[17].veinsmobility  speed  ETV
vector 73153  IntersectionExampleScenario.node[17].veinsmobility  acceleration  ETV
vector 73154  IntersectionExampleScenario.node[17].veinsmobility  co2emission  ETV
vector 73157  IntersectionExampleScenario.node[18].veinsmobility  posx  ETV
vector 73158  IntersectionExampleScenario.node[18].veinsmobility  posy  ETV
vector 73159  IntersectionExampleScenario.node[18].veinsmobility  speed  ETV
vector 73160  IntersectionExampleScenario.node[18].veinsmobility  acceleration  ETV
vector 73161  IntersectionExampleScenario.node[18].veinsmobility  co2emission  ETV
vector 73164  IntersectionExampleScenario.node[19].veinsmobility  posx  ETV
vector 73165  IntersectionExampleScenario.node[19].veinsmobility  posy  ETV
vector 73166  IntersectionExampleScenario.node[19].veinsmobility  speed  ETV
vector 73167  IntersectionExampleScenario.node[19].veinsmobility  acceleration  ETV
vector 73168  IntersectionExampleScenario.node[19].veinsmobility  co2emission  ETV
vector 73171  IntersectionExampleScenario.node[20].veinsmobility  posx  ETV
vector 73172  IntersectionExampleScenario.node[20].veinsmobility  posy  ETV
vector 73173  IntersectionExampleScenario.node[20].veinsmobility  speed  ETV
vector 73174  IntersectionExampleScenario.node[20].veinsmobility  acceleration  ETV
vector 73175  IntersectionExampleScenario.node[20].veinsmobility  co2emission  ETV
73035	11307 4905 8 3200 0.75 39.75 157 0.973 11.54047740176 464.515727801 2331.5343583805
73034	16212 4394 8 3200 0.75 39.75 157 -3.6199226379395 2.5 36.98334312439 185.99752778846
73033	20606 4807 5 3200 0.5 39.75 158 5.6500000953674 15.5 2220.1633729935 31769.099536895
73032	25413 5090 2 3200 0.25 39.75 159 483.14999389648 483.14999389648 76820.849029541 37115992.739745
73031	30503 5052 2 3200 0.25 39.75 159 184.17810058594 734.11010742188 71456.595001221 36341496.178864
vector 73178  IntersectionExampleScenario.node[21].veinsmobility  posx  ETV
vector 73179  IntersectionExampleScenario.node[21].veinsmobility  posy  ETV
vector 73185  IntersectionExampleScenario.node[22].veinsmobility  posx  ETV
vector 73186  IntersectionExampleScenario.node[22].veinsmobility  posy  ETV
vector 73180  IntersectionExampleScenario.node[21].veinsmobility  speed  ETV
vector 73181  IntersectionExampleScenario.node[21].veinsmobility  acceleration  ETV
vector 73182  IntersectionExampleScenario.node[21].veinsmobility  co2emission  ETV
vector 73187  IntersectionExampleScenario.node[22].veinsmobility  speed  ETV
vector 73188  IntersectionExampleScenario.node[22].veinsmobility  acceleration  ETV
vector 73189  IntersectionExampleScenario.node[22].veinsmobility  co2emission  ETV
vector 73192  IntersectionExampleScenario.node[23].veinsmobility  posx  ETV
vector 73193  IntersectionExampleScenario.node[23].veinsmobility  posy  ETV
vector 73194  IntersectionExampleScenario.node[23].veinsmobility  speed  ETV
vector 73195  IntersectionExampleScenario.node[23].veinsmobility  acceleration  ETV
vector 73196  IntersectionExampleScenario.node[23].veinsmobility  co2emission  ETV
vector 73199  IntersectionExampleScenario.node[24].veinsmobility  posx  ETV
vector 73200  IntersectionExampleScenario.node[24].veinsmobility  posy  ETV
vector 73201  IntersectionExampleScenario.node[24].veinsmobility  speed  ETV
vector 73202  IntersectionExampleScenario.node[24].veinsmobility  acceleration  ETV
vector 73203  IntersectionExampleScenario.node[24].veinsmobility  co2emission  ETV
vector 73206  IntersectionExampleScenario.node[25].veinsmobility  posx  ETV
vector 73207  IntersectionExampleScenario.node[25].veinsmobility  posy  ETV
vector 73208  IntersectionExampleScenario.node[25].veinsmobility  speed  ETV
vector 73209  IntersectionExampleScenario.node[25].veinsmobility  acceleration  ETV
vector 73210  IntersectionExampleScenario.node[25].veinsmobility  co2emission  ETV
73042	37560 5004 81 4224 6.5 46 159 0.973 11.648172402475 498.00435746685 2698.9939558326
73041	42564 4680 81 4224 6.5 46 159 -2.9284248352051 2.5 38.001859664917 243.20078194642
73040	47244 4909 76 4224 6.25 46 160 5.6500000953674 15.64999961853 2212.856464386 31516.548558339
73039	52153 5214 71 4224 6 46 161 483.12008666992 785.82187652588 91989.874153137 54343545.914223
73038	57367 5215 71 4224 6 46 161 483.14999389648 734.46195983887 86325.263153076 47263153.150313
vector 73213  IntersectionExampleScenario.node[26].veinsmobility  posx  ETV
vector 73214  IntersectionExampleScenario.node[26].veinsmobility  posy  ETV
vector 73220  IntersectionExampleScenario.node[27].veinsmobility  posx  ETV
vector 73221  IntersectionExampleScenario.node[27].veinsmobility  posy  ETV
vector 73215  IntersectionExampleScenario.node[26].veinsmobility  speed  ETV
vector 73227  IntersectionExampleScenario.node[28].veinsmobility  posx  ETV
vector 73228  IntersectionExampleScenario.node[28].veinsmobility  posy  ETV
vector 73216  IntersectionExampleScenario.node[26].veinsmobility  acceleration  ETV
vector 73217  IntersectionExampleScenario.node[26].veinsmobility  co2emission  ETV
vector 73222  IntersectionExampleScenario.node[27].veinsmobility  speed  ETV
vector 73223  IntersectionExampleScenario.node[27].veinsmobility  acceleration  ETV
vector 73224  IntersectionExampleScenario.node[27].veinsmobility  co2emission  ETV
vector 73229  IntersectionExampleScenario.node[28].veinsmobility  speed  ETV
vector 73230  IntersectionExampleScenario.node[28].veinsmobility  acceleration  ETV
vector 73231  IntersectionExampleScenario.node[28].veinsmobility  co2emission  ETV
73056	63785 5276 202 5340 10.75 52.25 167 0.973 11.36141391502 518.58157052513 2708.2701750377
73055	69061 4831 202 5340 10.75 52.25 167 -3.3531064987183 2.5 37.15309715271 332.34683312398
73054	73892 5233 193 5340 10.5 52.25 168 3.8894097805023 15.25 2184.8114008904 30209.10822668
73053	79125 5510 184 5340 10.25 52.25 169 486.85000610352 733.82615661621 90663.058410645 49598650.488827
73052	84635 5517 184 5340 10.25 52.25 169 486.85000610352 785.82187652588 96379.123405457 56749207.164614
vector 73234  IntersectionExampleScenario.node[29].veinsmobility  posx  ETV
vector 73235  IntersectionExampleScenario.node[29].veinsmobility  posy  ETV
vector 73236  IntersectionExampleScenario.node[29].veinsmobility  speed  ETV
73070	90384 5106 382 5908 15.25 55.75 163 0.973 11.36141391502 501.91250674912 2678.913164528
73069	95490 4890 382 5908 15.25 55.75 163 -3.6283149719238 2.5 37.662351608276 254.29051798961
73068	100380 5062 365 5908 15 55.75 164 5.6500000953674 15.25 2191.0175647736 30548.915423468
73067	105442 5411 350 5908 14.75 55.75 165 486.85000610352 735.10745239258 88734.35307312 48678720.314328
73066	110853 5409 350 5908 14.75 55.75 165 486.85000610352 785.82187652588 94348.427345276 55709751.546967
vector 73237  IntersectionExampleScenario.node[29].veinsmobility  acceleration  ETV
vector 73238  IntersectionExampleScenario.node[29].veinsmobility  co2emission  ETV
vector 73241  IntersectionExampleScenario.node[30].veinsmobility  posx  ETV
vector 73242  IntersectionExampleScenario.node[30].veinsmobility  posy  ETV
vector 73243  IntersectionExampleScenario.node[30].veinsmobility  speed  ETV
vector 73244  IntersectionExampleScenario.node[30].veinsmobility  acceleration  ETV
vector 73245  IntersectionExampleScenario.node[30].veinsmobility  co2emission  ETV
vector 73248  IntersectionExampleScenario.node[31].veinsmobility  posx  ETV
vector 73249  IntersectionExampleScenario.node[31].veinsmobility  posy  ETV
vector 73250  IntersectionExampleScenario.node[31].veinsmobility  speed  ETV
vector 73251  IntersectionExampleScenario.node[31].veinsmobility  acceleration  ETV
vector 73252  IntersectionExampleScenario.node[31].veinsmobility  co2emission  ETV
73049	117233 6432 100 6841 7.25 61.5 218 0.973 11.450879080643 582.85720488771 2851.0404981692
73048	123665 5664 100 6841 7.25 61.5 218 -6.9984560012817 4 37.492597579956 469.58322164982
73047	129329 6203 93 6841 7 61.5 219 0 15.375 2215.8641409874 31072.669399792
73046	135532 7150 86 6841 6.75 61.5 220 184.17810058594 734.38114929199 100203.29214478 49871013.998937
73045	142682 7182 86 6841 6.75 61.5 220 486.85000610352 486.85000610352 107107.00134277 52145044.257458
73063	149864 5673 350 6958 14.75 62.25 191 0.93438186594183 12.26218747632 564.42417834148 3150.7183502022
73062	155537 5944 350 6958 14.75 62.25 191 -2.6019134521484 2.5 41.057416915894 333.93859667831
73061	161481 5954 339 6958 14.5 62.25 192 1.1004600524902 16.5 2179.1378320456 30009.726639465
73060	167435 6304 328 6958 14.25 62.25 193 184.17810058594 483.15591430664 78576.253967285 33792752.727931
73059	173739 6326 328 6958 14.25 62.25 193 486.85000610352 731.68724060059 101729.03556824 54569750.835657
vector 73255  IntersectionExampleScenario.node[32].veinsmobility  posx  ETV
vector 73256  IntersectionExampleScenario.node[32].veinsmobility  posy  ETV
vector 73257  IntersectionExampleScenario.node[32].veinsmobility  speed  ETV
vector 73258  IntersectionExampleScenario.node[32].veinsmobility  acceleration  ETV
vector 73259  IntersectionExampleScenario.node[32].veinsmobility  co2emission  ETV
73112	180466 5165 980 7228 22.25 64 168 0.96333723109819 12.099024792222 552.2061968395 3256.2786045101
73111	185631 4715 980 7228 22.25 64 168 -2.7675628662109 2.5 40.208654403687 301.14633080616
73110	190346 5340 955 7228 22 64 169 5.6500000953674 16.27499961853 2225.1786122322 30905.401378709
73109	195686 5578 930 7228 21.75 64 170 184.17810058594 735.17442321777 75727.039093018 37853243.185613
73108	201264 5606 930 7228 21.75 64 170 486.85000610352 486.85000610352 82764.501037598 40293897.835309
73133	206870 4895 1498 7501 27 65.75 156 0.973 12.099024792222 511.71652452466 3020.6377973923
73132	211765 4647 1498 7501 27 65.75 156 -4.2756652832031 2.5 41.566686630249 253.18257058025
73131	216412 4926 1467 7501 26.75 65.75 157 5.6500000953674 16.27499961853 2218.4161338806 32318.352648351
73130	221338 5185 1436 7501 26.5 65.75 158 184.17810058594 733.36058044434 70430.799423218 35406031.958343
73129	226523 5215 1436 7501 26.5 65.75 158 486.85000610352 486.85000610352 76922.300964355 37449622.693993
vector 73262  IntersectionExampleScenario.node[33].veinsmobility  posx  ETV
vector 73263  IntersectionExampleScenario.node[33].veinsmobility  posy  ETV
vector 73264  IntersectionExampleScenario.node[33].veinsmobility  speed  ETV
vector 73265  IntersectionExampleScenario.node[33].veinsmobility  acceleration  ETV
vector 73266  IntersectionExampleScenario.node[33].veinsmobility  co2emission  ETV
73091	232139 6327 454 8103 16.25 69.75 215 0.973 11.36141391502 557.75872727745 2737.1351737138
73090	238466 5908 454 8103 16.25 69.75 215 -9.2645320892334 4 35.964826583862 488.16589210069
73089	244374 6066 435 8103 16 69.75 216 0 15.25 2065.1134343147 27990.332150637
73088	250440 7062 416 8103 15.75 69.75 217 236.85040283203 483.14999389648 96352.882843018 43842777.773425
73087	257502 7109 416 8103 15.75 69.75 217 212.00311279297 483.36395263672 92337.818145752 40841510.265778
73077	264611 6576 382 8174 15.25 70.25 221 0.973 11.90022389248 601.67183069018 2960.9671961238
73076	271187 6267 382 8174 15.25 70.25 221 -4.5 2.5 40.038900375366 485.82039405971
73075	277454 6388 365 8174 15 70.25 222 0 16 2207.3485563602 30759.203214592
73074	283842 7309 350 8174 14.75 70.25 223 483.14999389648 733.42660522461 115948.89657593 61353385.022118
73073	291151 7311 350 8174 14.75 70.25 223 184.17810058594 486.86566162109 92015.541564941 40094442.319446
73084	298462 7041 399 8419 15.5 72 227 0.973 11.990504229548 617.26901179695 3003.358201655
73083	305503 6977 399 8419 15.5 72 227 -4.5 2.5000019073486 39.869146347046 437.27198379796
73082	312480 7256 382 8419 15.25 72 228 0 16.125 2307.9509501103 32117.750254166
73081	319736 7525 365 8419 15 72 229 483.14999389648 483.14999389648 110641.34860229 53456366.901897
73080	327261 7491 365 8419 15 72 229 159.76721191406 731.57176208496 99885.535461426 48459438.599196
vector 73269  IntersectionExampleScenario.node[34].veinsmobility  posx  ETV
vector 73270  IntersectionExampleScenario.node[34].veinsmobility  posy  ETV
vector 73271  IntersectionExampleScenario.node[34].veinsmobility  speed  ETV
vector 73272  IntersectionExampleScenario.node[34].veinsmobility  acceleration  ETV
vector 73273  IntersectionExampleScenario.node[34].veinsmobility  co2emission  ETV
73105	335153 6668 815 8852 20.5 75.25 220 0.973 11.450879080643 584.47886964009 2858.2421218149
73104	341821 6669 815 8852 20.5 75.25 220 -3.898824930191 2.5 37.492597579956 349.73514557796
73103	348490 6992 792 8852 20.25 75.25 221 0 15.375 2275.0541388541 29962.520487004
73102	355482 7304 769 8852 20 75.25 222 483.14999389648 733.12574768066 115775.00561523 61469971.730416
73101	362786 7296 769 8852 20 75.25 222 167.27410888672 486.8586730957 89842.368347168 38538038.82874
vector 73276  IntersectionExampleScenario.node[35].veinsmobility  posx  ETV
vector 73277  IntersectionExampleScenario.node[35].veinsmobility  posy  ETV
vector 73278  IntersectionExampleScenario.node[35].veinsmobility  speed  ETV
vector 73279  IntersectionExampleScenario.node[35].veinsmobility  acceleration  ETV
vector 73280  IntersectionExampleScenario.node[35].veinsmobility  co2emission  ETV
73098	370483 7098 496 9195 16.75 77.75 245 0.973 11.450879080643 604.21900508415 2837.423955184
73097	377581 6419 496 9195 16.75 77.75 245 -8.2099418640137 4 36.813589096069 483.06962067089
73096	384000 6750 475 9195 16.5 77.75 246 0 15.375 2209.0127635002 30612.527227923
73095	390750 8120 454 9195 16.25 77.75 247 483.14999389648 785.82187652588 135024.00318146 75908433.136994
73094	398870 8120 454 9195 16.25 77.75 247 483.14999389648 735.28971862793 128087.7784729 67584561.802282
73119	406990 6771 1034 9261 22.75 78.25 223 0.973 11.54047740176 584.49814597013 2840.7596588423
73118	413761 6955 1034 9261 22.75 78.25 223 -3.7933313846588 2.5 38.511121749878 352.96171990988
73117	420716 7031 1007 9261 22.5 78.25 224 0 15.5 2208.8922368158 30129.31107419
73116	427747 7393 980 9261 22.25 78.25 225 238.36926269531 785.82187652588 116680.41110992 64624287.902297
73115	435140 7425 980 9261 22.25 78.25 225 483.14999389648 483.14999389648 108708.74862671 52522631.235489
vector 73283  IntersectionExampleScenario.node[36].veinsmobility  posx  ETV
vector 73284  IntersectionExampleScenario.node[36].veinsmobility  posy  ETV
vector 73285  IntersectionExampleScenario.node[36].veinsmobility  speed  ETV
vector 73290  IntersectionExampleScenario.node[37].veinsmobility  posx  ETV
vector 73291  IntersectionExampleScenario.node[37].veinsmobility  posy  ETV
vector 73286  IntersectionExampleScenario.node[36].veinsmobility  acceleration  ETV
vector 73287  IntersectionExampleScenario.node[36].veinsmobility  co2emission  ETV
vector 73292  IntersectionExampleScenario.node[37].veinsmobility  speed  ETV
vector 73297  IntersectionExampleScenario.node[38].veinsmobility  posx  ETV
vector 73298  IntersectionExampleScenario.node[38].veinsmobility  posy  ETV
vector 73293  IntersectionExampleScenario.node[37].veinsmobility  acceleration  ETV
vector 73294  IntersectionExampleScenario.node[37].veinsmobility  co2emission  ETV
vector 73299  IntersectionExampleScenario.node[38].veinsmobility  speed  ETV
vector 73300  IntersectionExampleScenario.node[38].veinsmobility  acceleration  ETV
vector 73301  IntersectionExampleScenario.node[38].veinsmobility  co2emission  ETV
vector 73304  IntersectionExampleScenario.node[39].veinsmobility  posx  ETV
vector 73305  IntersectionExampleScenario.node[39].veinsmobility  posy  ETV
vector 73306  IntersectionExampleScenario.node[39].veinsmobility  speed  ETV
73203	444000 5103 3789 9928 43.5 83 159 0.973 11.200708441096 467.36305165778 2391.6984521186
73202	449103 4915 3789 9928 43.5 83 159 -3.8138236999512 2.5 35.795072555542 196.40009074027
73201	454018 5058 3746 9928 43.25 83 160 5.6500000953674 15.02499961853 2213.2428197861 31123.646151409
73200	459076 5285 3703 9928 43 83 161 237.56414794922 785.82187652588 83873.817115784 47945795.227995
73199	464361 5311 3703 9928 43 83 161 483.14999389648 483.14999389648 77787.149017334 37582860.57295
vector 73307  IntersectionExampleScenario.node[39].veinsmobility  acceleration  ETV
vector 73308  IntersectionExampleScenario.node[39].veinsmobility  co2emission  ETV
vector 73311  IntersectionExampleScenario.node[40].veinsmobility  posx  ETV
vector 73312  IntersectionExampleScenario.node[40].veinsmobility  posy  ETV
vector 73313  IntersectionExampleScenario.node[40].veinsmobility  speed  ETV
vector 73314  IntersectionExampleScenario.node[40].veinsmobility  acceleration  ETV
vector 73315  IntersectionExampleScenario.node[40].veinsmobility  co2emission  ETV
vector 73318  IntersectionExampleScenario.node[41].veinsmobility  posx  ETV
vector 73319  IntersectionExampleScenario.node[41].veinsmobility  posy  ETV
vector 73320  IntersectionExampleScenario.node[41].veinsmobility  speed  ETV
vector 73321  IntersectionExampleScenario.node[41].veinsmobility  acceleration  ETV
vector 73322  IntersectionExampleScenario.node[41].veinsmobility  co2emission  ETV
73126	470643 7147 1220 10300 24.5 85.5 245 0.97223939240464 11.648172402475 617.62223868857 2957.4503421645
73125	477790 6509 1220 10300 24.5 85.5 245 -7.1630640029907 4 38.680875778198 475.87746411173
73124	484299 7046 1193 10300 24.25 85.5 246 0 15.64999961853 2205.0090391636 31301.147256089
73123	491345 8153 1166 10300 24 85.5 247 235.79162597656 486.85000610352 111824.19799805 51748524.351293
73122	499498 8146 1166 10300 24 85.5 247 483.14999389648 785.82187652588 134810.30609894 75652223.517412
73168	507644 5874 2956 10445 38 86.5 195 0.973 11.648172402475 548.38695257541 2852.838920629
73167	513518 5897 2956 10445 38 86.5 195 -2.1501121520996 2.5 38.341367721558 303.60169697635
73166	519415 6181 2921 10445 37.75 86.5 196 1.526584982872 15.64999961853 2186.0404318571 28854.118440781
73165	525596 6510 2886 10445 37.5 86.5 197 486.85000610352 733.22694396973 104102.05575562 56011986.714987
73164	532106 6504 2886 10445 37.5 86.5 197 486.85000610352 785.82187652588 111026.33165741 64397043.117853
vector 73325  IntersectionExampleScenario.node[42].veinsmobility  posx  ETV
vector 73326  IntersectionExampleScenario.node[42].veinsmobility  posy  ETV
vector 73327  IntersectionExampleScenario.node[42].veinsmobility  speed  ETV
vector 73328  IntersectionExampleScenario.node[42].veinsmobility  acceleration  ETV
vector 73329  IntersectionExampleScenario.node[42].veinsmobility  co2emission  ETV
vector 73332  IntersectionExampleScenario.node[43].veinsmobility  posx  ETV
vector 73333  IntersectionExampleScenario.node[43].veinsmobility  posy  ETV
vector 73339  IntersectionExampleScenario.node[44].veinsmobility  posx  ETV
vector 73340  IntersectionExampleScenario.node[44].veinsmobility  posy  ETV
73196	539319 5768 3580 10702 42.25 88.25 185 0.973 11.648172402475 549.80019951082 2887.0112869695
73195	545087 5682 3580 10702 42.25 88.25 185 -4.4393882751465 2.5 39.699392318726 319.10186087426
73194	550769 5881 3539 10702 42 88.25 186 4.3304615020752 15.64999961853 2226.5196213722 29939.919322773
73193	556650 6176 3498 10702 41.75 88.25 187 236.70880126953 486.85000610352 82790.654876709 37663239.51551
73192	562826 6174 3498 10702 41.75 88.25 187 483.14999389648 790.18281555176 106341.46547699 62333801.977251
vector 73334  IntersectionExampleScenario.node[43].veinsmobility  speed  ETV
vector 73341  IntersectionExampleScenario.node[44].veinsmobility  speed  ETV
vector 73335  IntersectionExampleScenario.node[43].veinsmobility  acceleration  ETV
vector 73336  IntersectionExampleScenario.node[43].veinsmobility  co2emission  ETV
vector 73342  IntersectionExampleScenario.node[44].veinsmobility  acceleration  ETV
vector 73343  IntersectionExampleScenario.node[44].veinsmobility  co2emission  ETV
73224	569494 5479 4444 11134 47.25 91 176 0.973 11.648172402475 559.85661247874 3109.9793514311
73223	574973 5191 4444 11134 47.25 91 176 -4.5 2.5 38.850629806519 420.18053903798
73222	580164 5551 4397 11134 47 91 177 3.4075274467468 15.64999961853 2093.6368620396 27533.981391283
73221	585715 5892 4352 11134 46.75 91 178 486.85000610352 735.34086608887 94930.224349976 51608340.208521
73220	591607 5894 4352 11134 46.75 91 178 486.85000610352 761.39962005615 99918.428001404 57498714.172955
73147	597501 7320 1812 11359 29.5 92.5 253 0.973 12.099024792222 654.10311962134 3347.8664879771
73146	604821 6589 1812 11359 29.5 92.5 253 -34.219741821289 4 41.227170944214 1557.0480358431
73145	611410 6868 1779 11359 29.25 92.5 254 0 16.27499961853 2271.5075082779 33468.730623558
73144	618278 8417 1746 11359 29 92.5 255 168.58435058594 731.40208435059 115028.9357605 56275308.674117
73143	626695 8451 1746 11359 29 92.5 255 486.85000610352 486.85000610352 124146.7515564 60440846.752963
73161	635146 7757 2238 11692 32.75 94.75 249 0.96333723109819 12.099024792222 649.84735984993 3322.2907403934
73160	642903 8031 2238 11692 32.75 94.75 249 -4.5 2.5 40.208654403687 457.02084523757
73159	650934 8048 2203 11692 32.5 94.75 250 0 16.27499961853 2293.1912945295 32888.72695402
73158	658982 8288 2168 11692 32.25 94.75 251 165.1328125 733.55390930176 112468.34886169 54916630.525351
73157	667270 8331 2168 11692 32.25 94.75 251 486.85000610352 486.85000610352 122199.35153198 59492755.039191
vector 73346  IntersectionExampleScenario.node[45].veinsmobility  posx  ETV
vector 73347  IntersectionExampleScenario.node[45].veinsmobility  posy  ETV
vector 73348  IntersectionExampleScenario.node[45].veinsmobility  speed  ETV
vector 73349  IntersectionExampleScenario.node[45].veinsmobility  acceleration  ETV
vector 73350  IntersectionExampleScenario.node[45].veinsmobility  co2emission  ETV
73231	676002 5893 4491 11963 47.5 96.5 197 0.973 12.553400930962 592.28534483395 3470.5464569581
73230	681895 6013 4491 11963 47.5 96.5 197 -2.2781620025635 2.5 42.924703598022 357.69823946801
73229	687908 6239 4444 11963 47.25 96.5 198 1.3256752490997 16.89999961853 2184.984549284 30031.722131019
73228	694147 6590 4397 11963 47 96.5 199 184.17810058594 483.22943115234 81080.251739502 34809851.636924
73227	700737 6609 4397 11963 47 96.5 199 486.85000610352 732.73695373535 104518.92932129 55845814.612948
vector 73353  IntersectionExampleScenario.node[46].veinsmobility  posx  ETV
vector 73354  IntersectionExampleScenario.node[46].veinsmobility  posy  ETV
vector 73355  IntersectionExampleScenario.node[46].veinsmobility  speed  ETV
vector 73356  IntersectionExampleScenario.node[46].veinsmobility  acceleration  ETV
vector 73357  IntersectionExampleScenario.node[46].veinsmobility  co2emission  ETV
vector 73360  IntersectionExampleScenario.node[47].veinsmobility  posx  ETV
vector 73361  IntersectionExampleScenario.node[47].veinsmobility  posy  ETV
vector 73367  IntersectionExampleScenario.node[48].veinsmobility  posx  ETV
vector 73368  IntersectionExampleScenario.node[48].veinsmobility  posy  ETV
vector 73362  IntersectionExampleScenario.node[47].veinsmobility  speed  ETV
vector 73369  IntersectionExampleScenario.node[48].veinsmobility  speed  ETV
vector 73363  IntersectionExampleScenario.node[47].veinsmobility  acceleration  ETV
vector 73364  IntersectionExampleScenario.node[47].veinsmobility  co2emission  ETV
vector 73370  IntersectionExampleScenario.node[48].veinsmobility  acceleration  ETV
vector 73371  IntersectionExampleScenario.node[48].veinsmobility  co2emission  ETV
73245	708549 5264 6270 12485 58 99.5 167 0.97223939240464 11.648172402475 545.66836029973 3176.215309091
73244	713813 4906 6270 12485 58 99.5 167 -3.1997528076172 2.5 38.680875778198 306.85912903093
73243	718719 5318 6229 12485 57.75 99.5 168 5.6500000953674 15.64999961853 2208.1345453262 30230.79402486
73242	724037 5617 6188 12485 57.5 99.5 169 184.17810058594 486.85000610352 67406.553100586 28664102.058158
73241	729654 5634 6188 12485 57.5 99.5 169 236.59552001953 486.85000610352 73894.039337158 33290884.598352
73140	735288 8383 1498 12744 27 101 297 0.973 11.450879080643 679.37564304469 3099.6700944259
73139	743671 8149 1498 12744 27 101 297 -7.5847997665405 4 38.171613693237 605.06632682776
73138	751820 8380 1467 12744 26.75 101 298 0 15.375 2182.7729638517 28447.198876424
73137	760200 9932 1436 12744 26.5 101 299 483.14999389648 733.1785736084 152886.49209595 79342021.755295
73136	770132 9912 1436 12744 26.5 101 299 184.17810058594 486.85000610352 127610.22561646 56576290.207806
73154	780044 8309 2003 12956 31 102.25 286 0.973 11.810082123732 675.88482547965 3229.8686330783
73153	788353 8307 2003 12956 31 102.25 286 -4.5 2.5 40.038900375366 520.80160010922
73152	796660 8360 1970 12956 30.75 102.25 287 0 15.875 2201.3311024355 29116.052441129
73151	805020 9588 1937 12956 30.5 102.25 288 239.04412841797 483.14999389648 131310.41107178 60926698.579983
73150	814608 9482 1937 12956 30.5 102.25 288 177.97814941406 483.14999389648 121347.97006226 53239129.314228
73189	824090 7762 3420 13407 41.25 105 256 0.973 11.450879080643 617.13452911907 3036.4458253872
73188	831852 8012 3420 13407 41.25 105 256 -4.5 2.5 37.32285118103 407.31221345696
73187	839864 8199 3381 13407 41 105 257 0 15.375 2080.2469205568 26523.904458058
73186	848063 8615 3342 13407 40.75 105 258 483.14999389648 732.64085388184 133158.09298706 69859302.580157
73185	856678 8591 3342 13407 40.75 105 258 214.94219970703 486.85000610352 110127.64312744 48520379.389077
73175	865269 8595 3165 13808 39.5 107.5 273 0.973 11.450879080643 700.70555860018 3293.6663112076
73174	873864 8389 3165 13808 39.5 107.5 273 -4.5 2.5 38.171613693237 632.51178594042
73173	882253 8834 3130 13808 39.25 107.5 274 0 15.375 2206.0589168835 27794.587229828
73172	891087 9180 3095 13808 39 107.5 275 483.14999389648 732.13282775879 141231.24832153 73664671.576422
73171	900267 9152 3095 13808 39 107.5 275 184.17810058594 486.85000610352 113038.85864258 48729113.317635
vector 73374  IntersectionExampleScenario.node[49].veinsmobility  posx  ETV
vector 73375  IntersectionExampleScenario.node[49].veinsmobility  posy  ETV
vector 73376  IntersectionExampleScenario.node[49].veinsmobility  speed  ETV
vector 73377  IntersectionExampleScenario.node[49].veinsmobility  acceleration  ETV
vector 73378  IntersectionExampleScenario.node[49].veinsmobility  co2emission  ETV
vector 73381  IntersectionExampleScenario.node[50].veinsmobility  posx  ETV
vector 73382  IntersectionExampleScenario.node[50].veinsmobility  posy  ETV
vector 73383  IntersectionExampleScenario.node[50].veinsmobility  speed  ETV
vector 73384  IntersectionExampleScenario.node[50].veinsmobility  acceleration  ETV
vector 73385  IntersectionExampleScenario.node[50].veinsmobility  co2emission  ETV
vector 73388  IntersectionExampleScenario.node[51].veinsmobility  posx  ETV
vector 73389  IntersectionExampleScenario.node[51].veinsmobility  posy  ETV
vector 73390  IntersectionExampleScenario.node[51].veinsmobility  speed  ETV
vector 73395  IntersectionExampleScenario.node[52].veinsmobility  posx  ETV
vector 73396  IntersectionExampleScenario.node[52].veinsmobility  posy  ETV
vector 73391  IntersectionExampleScenario.node[51].veinsmobility  acceleration  ETV
vector 73392  IntersectionExampleScenario.node[51].veinsmobility  co2emission  ETV
vector 73397  IntersectionExampleScenario.node[52].veinsmobility  speed  ETV
vector 73398  IntersectionExampleScenario.node[52].veinsmobility  acceleration  ETV
vector 73399  IntersectionExampleScenario.node[52].veinsmobility  co2emission  ETV
73210	911023 8245 4094 15062 45.25 115.5 282 0.973 12.26218747632 741.12340846372 3752.5868307152
73209	919268 7600 4094 15062 45.25 115.5 282 -28.838508605957 4 42.585195541382 1390.2075572285
73208	926868 7914 4049 15062 45 115.5 283 0 16.5 2240.415081501 29900.276419515
73207	934782 9488 4004 15062 44.75 115.5 284 486.85000610352 734.72305297852 146049.16609192 76172903.124791
73206	944270 9551 4004 15062 44.75 115.5 284 486.63604736328 800.77735137939 157159.54348755 89507284.194342
73273	953821 5497 8786 15373 74.75 117.5 172 0.973 11.990504229548 534.56334033678 2980.8048537405
73272	959318 5503 8786 15373 74.75 117.5 172 -2.1361312866211 2.5 39.529638290405 284.48256872623
73271	964821 5657 8753 15373 74.5 117.5 173 4.1840915679932 16.125 2217.6166400909 30715.10464641
73270	970478 5951 8719 15373 74.25 117.5 174 486.85000610352 486.85000610352 84711.901062012 41241989.549081
73269	976429 5937 8719 15373 74.25 117.5 174 237.03350830078 785.82187652588 91093.812507629 51778173.226395
73308	982366 5189 9965 16064 83.25 122.5 158 0.96333723109819 12.099024792222 560.83512782446 3626.312581734
73307	987555 4863 9965 16064 83.25 122.5 158 -3.6058597564697 2.5 40.208654403687 367.01328140217
73306	992418 5158 9928 16064 83 122.5 159 5.6500000953674 16.27499961853 2179.7900891304 31350.634872563
73305	997576 5516 9891 16064 82.75 122.5 160 486.85000610352 732.12077331543 85793.61366272 46898919.074804
73304	1003092 5515 9891 16064 82.75 122.5 160 486.83102416992 785.82187652588 91708.170936584 54282386.289157
73266	1008607 6778 8103 16378 69.75 125 222 0.973 11.90022389248 599.80698070338 3106.0679532535
73265	1015385 6396 8103 16378 69.75 125 222 -8.6357612609863 4 39.020376205444 507.82205708136
73264	1021781 6550 8065 16378 69.5 125 223 0 16 2207.987319231 31650.641637973
73263	1028331 7629 8026 16378 69.25 125 224 184.17810058594 732.41050720215 101936.0349884 50504580.578472
73262	1035960 7660 8026 16378 69.25 125 224 486.85000610352 486.85000610352 109054.40136719 53093135.97123
73301	1043620 6029 9573 16659 80.5 127.5 189 0.973 11.36141391502 537.34128170541 2763.5268917479
73300	1049649 6092 9573 16659 80.5 127.5 189 -3.3056373596191 2.5 36.98334312439 308.05879005606
73299	1055741 6243 9536 16659 80.25 127.5 190 2.4535837173462 15.25 2183.6258175373 28469.477852861
73298	1061984 6558 9499 16659 80 127.5 191 184.17810058594 483.14999389648 77163.558380127 32992506.272109
73297	1068542 6588 9499 16659 80 127.5 191 486.85000610352 732.82734680176 101324.34205627 54752173.189839
vector 73402  IntersectionExampleScenario.node[53].veinsmobility  posx  ETV
vector 73403  IntersectionExampleScenario.node[53].veinsmobility  posy  ETV
73315	1075284 5828 10075 16740 84 128.25 178 0.973 11.54047740176 570.20785605146 3090.9059880621
73314	1081112 5625 10075 16740 84 128.25 178 -4.5 2.5 40.038900375366 362.15041910548
73313	1086737 5968 10038 16740 83.75 128.25 179 4.3638510704041 15.715023040771 2261.5572104454 31304.851309583
73312	1092705 6203 10001 16740 83.5 128.25 180 174.53436279297 734.71015930176 79277.343566895 39249516.181464
73311	1098908 6234 10001 16740 83.5 128.25 180 486.84997558594 486.85000610352 87633.001068115 42664127.090024
vector 73404  IntersectionExampleScenario.node[53].veinsmobility  speed  ETV
vector 73405  IntersectionExampleScenario.node[53].veinsmobility  acceleration  ETV
vector 73406  IntersectionExampleScenario.node[53].veinsmobility  co2emission  ETV
vector 73409  IntersectionExampleScenario.node[54].veinsmobility  posx  ETV
vector 73410  IntersectionExampleScenario.node[54].veinsmobility  posy  ETV
vector 73411  IntersectionExampleScenario.node[54].veinsmobility  speed  ETV
vector 73412  IntersectionExampleScenario.node[54].veinsmobility  acceleration  ETV
vector 73413  IntersectionExampleScenario.node[54].veinsmobility  co2emission  ETV
vector 73416  IntersectionExampleScenario.node[55].veinsmobility  posx  ETV
vector 73417  IntersectionExampleScenario.node[55].veinsmobility  posy  ETV
vector 73418  IntersectionExampleScenario.node[55].veinsmobility  speed  ETV
73329	1106022 5655 10554 16973 87.25 130.25 173 0.973 11.648172402475 538.42365754386 2895.3042989141
73328	1111677 5549 10554 16973 87.25 130.25 173 -4.5 2.5 39.020376205444 290.75570421847
73327	1117226 5816 10517 16973 87 130.25 174 5.4749956130981 15.64999961853 2276.4677042961 31404.253790818
73326	1123042 6022 10480 16973 86.75 130.25 175 168.10778808594 732.1851348877 76565.105361938 37960682.422374
73325	1129064 6072 10480 16973 86.75 130.25 175 486.85000610352 486.85000610352 85198.751068115 41479012.477524
vector 73419  IntersectionExampleScenario.node[55].veinsmobility  acceleration  ETV
vector 73420  IntersectionExampleScenario.node[55].veinsmobility  co2emission  ETV
vector 73423  IntersectionExampleScenario.node[56].veinsmobility  posx  ETV
vector 73424  IntersectionExampleScenario.node[56].veinsmobility  posy  ETV
vector 73430  IntersectionExampleScenario.node[57].veinsmobility  posx  ETV
vector 73431  IntersectionExampleScenario.node[57].veinsmobility  posy  ETV
vector 73425  IntersectionExampleScenario.node[56].veinsmobility  speed  ETV
vector 73437  IntersectionExampleScenario.node[58].veinsmobility  posx  ETV
vector 73438  IntersectionExampleScenario.node[58].veinsmobility  posy  ETV
vector 73426  IntersectionExampleScenario.node[56].veinsmobility  acceleration  ETV
vector 73427  IntersectionExampleScenario.node[56].veinsmobility  co2emission  ETV
vector 73432  IntersectionExampleScenario.node[57].veinsmobility  speed  ETV
vector 73433  IntersectionExampleScenario.node[57].veinsmobility  acceleration  ETV
vector 73434  IntersectionExampleScenario.node[57].veinsmobility  co2emission  ETV
vector 73439  IntersectionExampleScenario.node[58].veinsmobility  speed  ETV
73182	1136339 11088 3381 17379 41 133.5 371 0.973 11.450879080643 774.8410865027 3223.1171337087
73181	1147427 10993 3381 17379 41 133.5 371 -7.0910744667053 4 37.15309715271 649.51496136552
73180	1158420 11133 3342 17379 40.75 133.5 372 0 15.375 2291.9951304495 28515.882182619
73179	1169553 12645 3305 17379 40.5 133.5 373 483.14999389648 483.14999389648 180214.94772339 87070850.892611
73178	1182198 12607 3305 17379 40.5 133.5 373 163.88433837891 733.24285888672 165658.58708191 78632493.368618
vector 73440  IntersectionExampleScenario.node[58].veinsmobility  acceleration  ETV
vector 73441  IntersectionExampleScenario.node[58].veinsmobility  co2emission  ETV
73217	1194974 11073 4397 17624 47 135.25 354 0.973 11.200708441096 718.22016113358 2864.8050027976
73216	1206047 11215 4397 17624 47 135.25 354 -4.5 2.5 35.795072555542 492.80177911214
73215	1217262 11290 4352 17624 46.75 135.25 355 0 15.02499961853 2216.0018017991 27736.908892162
73214	1228552 12085 4309 17624 46.5 135.25 356 238.07867431641 483.14999389648 163562.44424438 76324016.409699
73213	1240637 12061 4309 17624 46.5 135.25 356 175.34588623047 483.14999389648 150609.00839233 65948536.708971
73238	1252698 9667 5949 17764 56 136.25 322 0.973 11.648172402475 681.83996076046 3035.4921318655
73237	1262365 10505 5949 17764 56 136.25 322 -3.9835526943207 2.5 39.699392318726 409.34326433453
73236	1272870 10556 5908 17764 55.75 136.25 323 0 15.64999961853 2215.0575037748 28521.300597026
73235	1283426 11050 5867 17764 55.5 136.25 324 483.14999389648 483.14999389648 156540.59802246 75632588.979104
73234	1294476 10991 5867 17764 55.5 136.25 324 184.17810058594 733.03498840332 143925.75447083 68081175.497939
73252	1305467 10113 6554 18254 59.75 139.75 321 0.973 11.200708441096 673.37742564517 2769.9543989679
73251	1315580 10451 6554 18254 59.75 139.75 321 -4.5 2.6977175474167 35.625318527222 479.42721954309
73250	1326031 10560 6513 18254 59.5 139.75 322 0 15.02499961853 2243.6616363842 28269.516241173
73249	1336591 11047 6472 18254 59.25 139.75 323 483.14999389648 483.14999389648 156057.44802856 75399155.062502
73248	1347638 10980 6472 18254 59.25 139.75 323 176.21716308594 732.47557067871 142572.28829956 67415170.407055
73280	1358618 7928 8988 18498 76.25 141.5 262 0.973 11.36141391502 619.46057036113 2834.0484481618
73279	1366546 7027 8988 18498 76.25 141.5 262 -23.859573364258 4 36.813589096069 950.35340962909
73278	1373573 7405 8953 18498 76 141.5 263 0 15.25 2172.9921302795 30202.407877663
73277	1380978 9106 8918 18498 75.75 141.5 264 486.63604736328 785.82187652588 143734.37882233 80360607.34856
73276	1390084 9048 8918 18498 75.75 141.5 264 237.89813232422 483.14999389648 119241.2376709 54952026.975664
vector 73444  IntersectionExampleScenario.node[59].veinsmobility  posx  ETV
vector 73445  IntersectionExampleScenario.node[59].veinsmobility  posy  ETV
73287	1399286 8087 9429 18564 79.5 142 251 0.973 11.54047740176 642.55203691543 2988.2864734207
73286	1407373 7942 9429 18564 79.5 142 251 -4.5 2.5 40.038900375366 439.58624190261
73285	1415315 8170 9395 18564 79.25 142 252 0 15.713941574097 2264.0115142288 32362.735374199
73284	1423485 8718 9360 18564 79 142 253 235.83343505859 797.07032012939 131371.58058929 72581845.336281
73283	1432203 8751 9360 18564 79 142 253 483.14999389648 483.14999389648 122236.94845581 59058780.90035
vector 73446  IntersectionExampleScenario.node[59].veinsmobility  speed  ETV
vector 73447  IntersectionExampleScenario.node[59].veinsmobility  acceleration  ETV
vector 73448  IntersectionExampleScenario.node[59].veinsmobility  co2emission  ETV
73336	1441201 7242 10783 19070 88.75 145.75 229 0.973 11.648172402475 585.07959583055 2911.3709315975
73335	1448443 7393 10783 19070 88.75 145.75 229 -3.9263186454773 2.5000009536743 38.171613693237 341.51786420784
73334	1455836 7622 10743 19070 88.5 145.75 230 0 15.64999961853 2187.7296140734 28479.090321896
73333	1463458 8018 10702 19070 88.25 145.75 231 486.76153564453 785.82187652588 128679.0929184 73571230.955865
73332	1471476 8024 10702 19070 88.25 145.75 231 236.27124023438 483.14999389648 103352.96365356 47300018.715135
73364	1479500 6551 12215 19433 98 148.5 203 0.973 11.450879080643 566.68642240934 2830.6856230658
73363	1486051 5963 12215 19433 98 148.5 203 -7.3439340591431 4 37.32285118103 471.71975753043
73362	1492014 6395 12170 19433 97.75 148.5 204 0 15.375 2212.9979789257 30954.471572816
73361	1498409 7165 12125 19433 97.5 148.5 205 486.85000610352 486.85000610352 99804.251251221 48589700.330813
73360	1505574 7150 12125 19433 97.5 148.5 205 236.18798828125 785.82187652588 105758.83538055 58783798.005596
vector 73451  IntersectionExampleScenario.node[60].veinsmobility  posx  ETV
vector 73452  IntersectionExampleScenario.node[60].veinsmobility  posy  ETV
vector 73453  IntersectionExampleScenario.node[60].veinsmobility  speed  ETV
vector 73454  IntersectionExampleScenario.node[60].veinsmobility  acceleration  ETV
vector 73455  IntersectionExampleScenario.node[60].veinsmobility  co2emission  ETV
vector 73458  IntersectionExampleScenario.node[61].veinsmobility  posx  ETV
vector 73459  IntersectionExampleScenario.node[61].veinsmobility  posy  ETV
vector 73460  IntersectionExampleScenario.node[61].veinsmobility  speed  ETV
vector 73461  IntersectionExampleScenario.node[61].veinsmobility  acceleration  ETV
vector 73462  IntersectionExampleScenario.node[61].veinsmobility  co2emission  ETV
vector 73465  IntersectionExampleScenario.node[62].veinsmobility  posx  ETV
vector 73466  IntersectionExampleScenario.node[62].veinsmobility  posy  ETV
vector 73467  IntersectionExampleScenario.node[62].veinsmobility  speed  ETV
vector 73468  IntersectionExampleScenario.node[62].veinsmobility  acceleration  ETV
vector 73469  IntersectionExampleScenario.node[62].veinsmobility  co2emission  ETV
73371	1513927 7471 12215 20557 98 157.75 240 0.973 11.450879080643 597.82469198054 2827.2802403945
73370	1521398 7195 12215 20557 98 157.75 240 -8.6021976470947 4 36.643835067749 487.50797230271
73369	1528593 7148 12170 20557 97.75 157.75 241 0 15.375 2206.6346588135 30517.564090505
73368	1535741 8440 12125 20557 97.5 157.75 242 184.17810058594 486.85000610352 102188.01379395 45236632.438178
73367	1544181 8460 12125 20557 97.5 157.75 242 235.26031494141 486.85000610352 109082.57794189 50320174.711217
vector 73472  IntersectionExampleScenario.node[63].veinsmobility  posx  ETV
vector 73473  IntersectionExampleScenario.node[63].veinsmobility  posy  ETV
vector 73474  IntersectionExampleScenario.node[63].veinsmobility  speed  ETV
vector 73475  IntersectionExampleScenario.node[63].veinsmobility  acceleration  ETV
vector 73476  IntersectionExampleScenario.node[63].veinsmobility  co2emission  ETV
73399	1553042 6017 14823 20796 114 159.75 184 0.973 11.200708441096 528.1094401646 2645.8549485647
73398	1559059 6162 14823 20796 114 159.75 184 -2.0965766906738 2.5 37.15309715271 266.62789148704
73397	1565221 6275 14782 20796 113.75 159.75 185 3.2428469657898 15.221734046936 2196.9158110619 28928.996643976
73396	1571496 6482 14741 20796 113.5 159.75 186 184.17810058594 486.95617675781 75119.238128662 32179092.477373
73395	1577978 6507 14741 20796 113.5 159.75 186 238.18994140625 486.85000610352 82085.404632568 37244795.304782
vector 73479  IntersectionExampleScenario.node[64].veinsmobility  posx  ETV
vector 73480  IntersectionExampleScenario.node[64].veinsmobility  posy  ETV
vector 73486  IntersectionExampleScenario.node[65].veinsmobility  posx  ETV
vector 73487  IntersectionExampleScenario.node[65].veinsmobility  posy  ETV
vector 73481  IntersectionExampleScenario.node[64].veinsmobility  speed  ETV
vector 73482  IntersectionExampleScenario.node[64].veinsmobility  acceleration  ETV
vector 73483  IntersectionExampleScenario.node[64].veinsmobility  co2emission  ETV
vector 73488  IntersectionExampleScenario.node[65].veinsmobility  speed  ETV
vector 73489  IntersectionExampleScenario.node[65].veinsmobility  acceleration  ETV
vector 73490  IntersectionExampleScenario.node[65].veinsmobility  co2emission  ETV
vector 73493  IntersectionExampleScenario.node[66].veinsmobility  posx  ETV
vector 73494  IntersectionExampleScenario.node[66].veinsmobility  posy  ETV
vector 73495  IntersectionExampleScenario.node[66].veinsmobility  speed  ETV
vector 73496  IntersectionExampleScenario.node[66].veinsmobility  acceleration  ETV
vector 73497  IntersectionExampleScenario.node[66].veinsmobility  co2emission  ETV
73259	1585688 12335 7150 21507 63.5 165.5 409 0.973 11.36141391502 805.04736167281 3206.0739855337
73258	1598023 12588 7150 21507 63.5 165.5 409 -6.7161703109741 4 36.98334312439 685.46402221584
73257	1610611 12596 7111 21507 63.25 165.5 410 0 15.25 2223.5440217052 26909.179263512
73256	1623207 14092 7072 21507 63 165.5 411 237.36993408203 483.14999389648 190250.79910278 89258754.430381
73255	1637299 14118 7072 21507 63 165.5 411 172.23669433594 483.36395263672 174181.53991699 76195558.636659
73294	1651417 10540 9499 21600 80 166.25 346 0.973 11.648172402475 767.75717336765 3504.5750749801
73293	1661957 10252 9499 21600 80 166.25 346 -4.4528951644897 2.5000009536743 38.850629806519 619.96602822078
73292	1672209 10639 9464 21600 79.75 166.25 347 0 15.64999961853 2221.3192367107 28520.769978235
73291	1682848 12082 9429 21600 79.5 166.25 348 483.14999389648 483.14999389648 168136.19787598 81235002.977556
73290	1694930 12032 9429 21600 79.5 166.25 348 184.17810058594 734.16999816895 155773.80592346 73962138.834692
vector 73500  IntersectionExampleScenario.node[67].veinsmobility  posx  ETV
vector 73501  IntersectionExampleScenario.node[67].veinsmobility  posy  ETV
vector 73502  IntersectionExampleScenario.node[67].veinsmobility  speed  ETV
vector 73503  IntersectionExampleScenario.node[67].veinsmobility  acceleration  ETV
vector 73504  IntersectionExampleScenario.node[67].veinsmobility  co2emission  ETV
73322	1707363 10852 10226 21994 85 169.25 338 0.973 11.648172402475 715.93496738021 3098.3288929256
73321	1718215 11024 10226 21994 85 169.25 338 -4.5 2.5 38.511121749878 573.15146305241
73320	1729239 11125 10188 21994 84.75 169.25 339 0 15.64999961853 2187.2946041953 27993.79399968
73319	1740364 11833 10149 21994 84.5 169.25 340 236.17895507812 483.14999389648 156061.73504639 72782217.551977
73318	1752197 11791 10149 21994 84.5 169.25 340 184.17810058594 483.14999389648 142891.01422119 62000605.056034
vector 73507  IntersectionExampleScenario.node[68].veinsmobility  posx  ETV
vector 73508  IntersectionExampleScenario.node[68].veinsmobility  posy  ETV
vector 73509  IntersectionExampleScenario.node[68].veinsmobility  speed  ETV
73343	1764220 10796 10783 22227 88.75 171 330 0.973 11.441438404919 723.30449290396 3081.8705074363
73342	1775016 11295 10783 22227 88.75 171 330 -4.5 2.5 40.208654403687 444.71492317563
73341	1786311 11248 10743 22227 88.5 171 331 0 15.848155975342 2209.9318775944 28649.387809922
73340	1797559 11562 10702 22227 88.25 171 332 238.40795898438 483.14999389648 152534.64767456 71171700.658536
73339	1809121 11542 10702 22227 88.25 171 332 176.21716308594 483.14999389648 137510.77600098 58969539.306098
vector 73510  IntersectionExampleScenario.node[68].veinsmobility  acceleration  ETV
vector 73511  IntersectionExampleScenario.node[68].veinsmobility  co2emission  ETV
vector 73514  IntersectionExampleScenario.node[69].veinsmobility  posx  ETV
vector 73515  IntersectionExampleScenario.node[69].veinsmobility  posy  ETV
vector 73516  IntersectionExampleScenario.node[69].veinsmobility  speed  ETV
vector 73517  IntersectionExampleScenario.node[69].veinsmobility  acceleration  ETV
vector 73518  IntersectionExampleScenario.node[69].veinsmobility  co2emission  ETV
73357	1821233 9068 12084 22590 97.25 173.5 306 0.973 11.450879080643 683.72476798514 3076.1400303892
73356	1830301 8765 12084 22590 97.25 173.5 306 -20.293338775635 4 37.15309715271 875.68880086841
73355	1839066 9068 12043 22590 97 173.5 307 0 15.375 2200.2022110224 27901.101533048
73354	1848134 10750 12002 22590 96.75 173.5 308 483.14999389648 785.82187652588 167049.73787689 92758653.161796
73353	1858884 10760 12002 22590 96.75 173.5 308 483.14999389648 732.66976928711 157336.64083862 81555408.562742
vector 73521  IntersectionExampleScenario.node[70].veinsmobility  posx  ETV
vector 73522  IntersectionExampleScenario.node[70].veinsmobility  posy  ETV
vector 73523  IntersectionExampleScenario.node[70].veinsmobility  speed  ETV
vector 73524  IntersectionExampleScenario.node[70].veinsmobility  acceleration  ETV
vector 73525  IntersectionExampleScenario.node[70].veinsmobility  co2emission  ETV
vector 73528  IntersectionExampleScenario.node[71].veinsmobility  posx  ETV
vector 73529  IntersectionExampleScenario.node[71].veinsmobility  posy  ETV
vector 73530  IntersectionExampleScenario.node[71].veinsmobility  speed  ETV
73385	1870277 8374 14471 22915 111.75 175.75 257 0.973 11.648172402475 655.03878651344 3300.0616227589
73384	1878651 8390 14471 22915 111.75 175.75 257 -4.5 2.5 38.341367721558 460.34644636831
73383	1887041 8531 14432 22915 111.5 175.75 258 0 15.64999961853 2201.7762727188 30527.54936532
73382	1895572 9053 14393 22915 111.25 175.75 259 482.95971679688 785.82187652588 141566.15163422 79421711.602031
73381	1904625 9059 14393 22915 111.25 175.75 259 483.14999389648 732.14392089844 133480.51048279 69906488.760774
vector 73531  IntersectionExampleScenario.node[71].veinsmobility  acceleration  ETV
vector 73532  IntersectionExampleScenario.node[71].veinsmobility  co2emission  ETV
vector 73535  IntersectionExampleScenario.node[72].veinsmobility  posx  ETV
vector 73536  IntersectionExampleScenario.node[72].veinsmobility  posy  ETV
vector 73537  IntersectionExampleScenario.node[72].veinsmobility  speed  ETV
vector 73538  IntersectionExampleScenario.node[72].veinsmobility  acceleration  ETV
vector 73539  IntersectionExampleScenario.node[72].veinsmobility  co2emission  ETV
73392	1914254 8503 14741 23397 113.5 178.75 262 0.973 11.36141391502 626.09807914153 2898.9802005654
73391	1922757 8802 14741 23397 113.5 178.75 262 -4.5 2.5 37.15309715271 378.27089449669
73390	1931559 8843 14702 23397 113.25 178.75 263 0 15.25 2265.5961535759 29272.256919126
73389	1940402 9218 14663 23397 113 178.75 264 486.81619262695 805.05782318115 147269.97097778 84465189.778844
73388	1949620 9234 14663 23397 113 178.75 264 235.69317626953 483.14999389648 119131.01742554 54874721.32197
73441	1958854 6090 17414 23603 133.75 180 186 0.973 11.810082123732 563.00329951724 3030.6848110921
73440	1964944 5763 17414 23603 133.75 180 186 -9.0596437454224 4 39.359884262085 500.00740959224
73439	1970707 5930 17379 23603 133.5 180 187 0 15.875 2178.4695601463 30997.152766178
73438	1976637 6511 17344 23603 133.25 180 188 486.85000610352 732.88471984863 99566.857971191 53702011.960567
73437	1983148 6564 17344 23603 133.25 180 188 486.63604736328 785.82187652588 105593.46367645 61166170.144258
vector 73542  IntersectionExampleScenario.node[73].veinsmobility  posx  ETV
vector 73543  IntersectionExampleScenario.node[73].veinsmobility  posy  ETV
vector 73544  IntersectionExampleScenario.node[73].veinsmobility  speed  ETV
vector 73545  IntersectionExampleScenario.node[73].veinsmobility  acceleration  ETV
vector 73546  IntersectionExampleScenario.node[73].veinsmobility  co2emission  ETV
vector 73549  IntersectionExampleScenario.node[74].veinsmobility  posx  ETV
vector 73550  IntersectionExampleScenario.node[74].veinsmobility  posy  ETV
vector 73551  IntersectionExampleScenario.node[74].veinsmobility  speed  ETV
vector 73552  IntersectionExampleScenario.node[74].veinsmobility  acceleration  ETV
vector 73553  IntersectionExampleScenario.node[74].veinsmobility  co2emission  ETV
73406	1990514 7482 16798 24975 128.75 189 242 0.973 11.90022389248 624.46999561788 3126.5785070688
73405	1997996 6757 16798 24975 128.75 189 242 -6.9388580322266 4 39.869146347046 483.42859168984
73404	2004753 7121 16769 24975 128.5 189 243 0 16 2206.8656001091 31827.855714461
73403	2011874 8517 16740 24975 128.25 189 244 184.17810058594 486.85000610352 103483.75665283 45946641.631054
73402	2020391 8535 16740 24975 128.25 189 244 235.83721923828 486.85000610352 110519.36605835 51162148.576529
vector 73556  IntersectionExampleScenario.node[75].veinsmobility  posx  ETV
vector 73557  IntersectionExampleScenario.node[75].veinsmobility  posy  ETV
vector 73558  IntersectionExampleScenario.node[75].veinsmobility  speed  ETV
vector 73559  IntersectionExampleScenario.node[75].veinsmobility  acceleration  ETV
vector 73560  IntersectionExampleScenario.node[75].veinsmobility  co2emission  ETV
vector 73563  IntersectionExampleScenario.node[76].veinsmobility  posx  ETV
vector 73564  IntersectionExampleScenario.node[76].veinsmobility  posy  ETV
vector 73565  IntersectionExampleScenario.node[76].veinsmobility  speed  ETV
vector 73566  IntersectionExampleScenario.node[76].veinsmobility  acceleration  ETV
vector 73567  IntersectionExampleScenario.node[76].veinsmobility  co2emission  ETV
73350	2029728 12402 11807 26209 95.5 197.5 409 0.973 11.200708441096 783.66714629523 3065.398016188
73349	2042130 12517 11807 26209 95.5 197.5 409 -7.4075026512146 4 35.795072555542 681.63869523231
73348	2054647 12624 11768 26209 95.25 197.5 410 0 15.02499961853 2179.9520766251 25795.457793674
73347	2067271 14361 11729 26209 95 197.5 411 483.14999389648 732.46864318848 207274.55554199 105795823.06496
73346	2081632 14328 11729 26209 95 197.5 411 184.17810058594 486.85000610352 174871.23181152 76594411.469202
73378	2095960 11210 14085 26341 109.25 198.5 358 0.973 11.648172402475 755.00747956081 3274.3218651059
73377	2107170 11628 14085 26341 109.25 198.5 358 -4.1333432197571 2.5000009536743 38.001859664917 598.82647288099
73376	2118798 11652 14044 26341 109 198.5 359 0 15.64999961853 2222.6699225372 27424.424332746
73375	2130450 12600 14003 26341 108.75 198.5 360 483.14999389648 483.14999389648 173933.99780273 84036209.976782
73374	2143050 12551 14003 26341 108.75 198.5 360 184.17810058594 735.14422607422 160430.79173279 75828000.163604
vector 73570  IntersectionExampleScenario.node[77].veinsmobility  posx  ETV
vector 73571  IntersectionExampleScenario.node[77].veinsmobility  posy  ETV
vector 73572  IntersectionExampleScenario.node[77].veinsmobility  speed  ETV
vector 73573  IntersectionExampleScenario.node[77].veinsmobility  acceleration  ETV
vector 73574  IntersectionExampleScenario.node[77].veinsmobility  co2emission  ETV
vector 73577  IntersectionExampleScenario.node[78].veinsmobility  posx  ETV
vector 73578  IntersectionExampleScenario.node[78].veinsmobility  posy  ETV
vector 73579  IntersectionExampleScenario.node[78].veinsmobility  speed  ETV
vector 73580  IntersectionExampleScenario.node[78].veinsmobility  acceleration  ETV
vector 73581  IntersectionExampleScenario.node[78].veinsmobility  co2emission  ETV
vector 73584  IntersectionExampleScenario.node[79].veinsmobility  posx  ETV
vector 73585  IntersectionExampleScenario.node[79].veinsmobility  posy  ETV
vector 73586  IntersectionExampleScenario.node[79].veinsmobility  speed  ETV
vector 73587  IntersectionExampleScenario.node[79].veinsmobility  acceleration  ETV
vector 73588  IntersectionExampleScenario.node[79].veinsmobility  co2emission  ETV
73413	2156804 9392 16913 26963 129.75 203 294 0.973 10.916047529558 644.79349529497 2697.861551718
73412	2166196 9700 16913 26963 129.75 203 294 -4.4655771255493 2.5000004768372 33.927785873413 482.20271775324
73411	2175896 9897 16884 26963 129.5 203 295 0 14.625 2188.4416959956 25920.825215825
73410	2185793 10354 16855 26963 129.25 203 296 235.78662109375 483.14999389648 134146.53097534 61989322.872583
73409	2196147 10324 16855 26963 129.25 203 296 184.17810058594 483.31051635742 123769.08728027 53778371.04361
73420	2206471 8849 17004 27208 130.5 204.75 298 0.973 11.810082123732 686.47684274229 3236.0729810717
73419	2215320 8712 17004 27208 130.5 204.75 298 -6.868549823761 4 40.038900375366 508.18606711274
73418	2224032 8829 16973 27208 130.25 204.75 299 0 15.875 2170.9537060261 28547.439754688
73417	2232861 10489 16942 27208 130 204.75 300 486.63604736328 785.82187652588 162826.98040009 90451920.886618
73416	2243350 10429 16942 27208 130 204.75 300 239.04711914062 483.14999389648 137106.35427856 63726057.041141
vector 73591  IntersectionExampleScenario.node[80].veinsmobility  posx  ETV
vector 73592  IntersectionExampleScenario.node[80].veinsmobility  posy  ETV
vector 73593  IntersectionExampleScenario.node[80].veinsmobility  speed  ETV
vector 73594  IntersectionExampleScenario.node[80].veinsmobility  acceleration  ETV
vector 73595  IntersectionExampleScenario.node[80].veinsmobility  co2emission  ETV
73455	2254180 7207 19624 27382 150 206 225 0.973 12.099024792222 608.3662058804 2988.897126701
73454	2261387 7739 19624 27382 150 206 225 -3.7789418697357 2.5000019073486 41.566717147827 342.05822980915
73453	2269126 7777 19591 27382 149.75 206 226 0 16.27499961853 2220.0877119023 30493.113369095
73452	2276903 7918 19558 27382 149.5 206 227 235.79290771484 785.82187652588 117836.14662933 65218987.470531
73451	2284821 7944 19558 27382 149.5 206 227 483.14999389648 483.14999389648 109675.0486145 52989499.068693
vector 73598  IntersectionExampleScenario.node[81].veinsmobility  posx  ETV
vector 73599  IntersectionExampleScenario.node[81].veinsmobility  posy  ETV
vector 73600  IntersectionExampleScenario.node[81].veinsmobility  speed  ETV
vector 73601  IntersectionExampleScenario.node[81].veinsmobility  acceleration  ETV
vector 73602  IntersectionExampleScenario.node[81].veinsmobility  co2emission  ETV
73511	2293166 5450 22262 28079 171.25 211 160 0.973 11.200708441096 467.7067528426 2399.1146948789
73510	2298616 5234 22262 28079 171.25 211 160 -3.4780311584473 2.5 35.625318527222 192.97754302004
73509	2303850 5411 22227 28079 171 211 161 5.6500000953674 15.02499961853 2223.4675645828 31208.276335959
73508	2309261 5641 22192 28079 170.75 211 162 235.01690673828 785.82187652588 84181.435508728 48060377.202594
73507	2314902 5669 22192 28079 170.75 211 162 483.14999389648 483.14999389648 78270.29901123 37816294.489552
73462	2320571 7336 20145 28289 154.25 212.5 234 0.973 11.450879080643 596.84942240935 2860.0342220658
73461	2327907 6624 20145 28289 154.25 212.5 234 -7.3439340591431 4 37.32285118103 471.71975753043
73460	2334531 7054 20114 28289 154 212.5 235 0 15.375 2212.9979789257 30954.471572816
73459	2341585 8260 20083 28289 153.75 212.5 236 486.85000610352 486.85000610352 114896.60144043 55937411.112546
73458	2349845 8245 20083 28289 153.75 212.5 236 236.18798828125 785.82187652588 121209.23519135 66484277.176992
vector 73605  IntersectionExampleScenario.node[82].veinsmobility  posx  ETV
vector 73606  IntersectionExampleScenario.node[82].veinsmobility  posy  ETV
vector 73607  IntersectionExampleScenario.node[82].veinsmobility  speed  ETV
vector 73612  IntersectionExampleScenario.node[83].veinsmobility  posx  ETV
vector 73613  IntersectionExampleScenario.node[83].veinsmobility  posy  ETV
vector 73608  IntersectionExampleScenario.node[82].veinsmobility  acceleration  ETV
vector 73609  IntersectionExampleScenario.node[82].veinsmobility  co2emission  ETV
73490	2358645 6689 21009 28428 161.5 213.5 209 0.973 11.810082123732 575.76613724678 3024.2654708362
73489	2365334 6968 21009 28428 161.5 213.5 209 -3.9776816368103 2.5000000968575 40.038900375366 354.96908233715
73488	2372302 7041 20976 28428 161.25 213.5 210 0 15.875 2179.9776658248 29610.635356474
73487	2379343 7380 20943 28428 161 213.5 211 486.85000610352 731.99806213379 110636.6227417 59001866.138558
73486	2386723 7371 20943 28428 161 213.5 211 486.85000610352 785.82187652588 117818.55208588 67650819.879234
vector 73614  IntersectionExampleScenario.node[83].veinsmobility  speed  ETV
vector 73615  IntersectionExampleScenario.node[83].veinsmobility  acceleration  ETV
vector 73616  IntersectionExampleScenario.node[83].veinsmobility  co2emission  ETV
73497	2394341 6826 21352 28853 164.25 216.5 210 0.973 11.36141391502 562.28953252203 2743.0370866666
73496	2401167 6999 21352 28853 164.25 216.5 210 -4.3910255432129 2.5 37.32285118103 328.32073479391
73495	2408166 7071 21321 28853 164 216.5 211 1.6223104000092 15.25 2242.8808681965 28907.405978591
73494	2415237 7396 21290 28853 163.75 216.5 212 486.85000610352 733.74073791504 111564.90620422 59753526.611661
73493	2422633 7404 21290 28853 163.75 216.5 212 486.85000610352 800.04531860352 120373.51722717 70423970.568734
73504	2430037 6763 21697 29087 167 218.25 206 0.973 11.36141391502 580.5939254101 2851.2674166891
73503	2436800 6729 21697 29087 167 218.25 206 -4.5 2.5 39.699392318726 369.97846575598
73502	2443529 6935 21664 29087 166.75 218.25 207 1.0636644363403 15.592000961304 2272.6918016672 30226.869375887
73501	2450464 7274 21631 29087 166.5 218.25 208 486.85000610352 733.25444030762 109292.16345215 58430512.037017
73500	2457738 7258 21631 29087 166.5 218.25 208 486.85000610352 807.15704345703 118777.87428284 69983359.648713
vector 73619  IntersectionExampleScenario.node[84].veinsmobility  posx  ETV
vector 73620  IntersectionExampleScenario.node[84].veinsmobility  posy  ETV
vector 73621  IntersectionExampleScenario.node[84].veinsmobility  speed  ETV
vector 73622  IntersectionExampleScenario.node[84].veinsmobility  acceleration  ETV
vector 73623  IntersectionExampleScenario.node[84].veinsmobility  co2emission  ETV
73483	2465397 7495 20976 29478 161.25 221.25 241 0.97223939240464 11.648172402475 614.24176922157 3005.639236937
73482	2472892 6782 20976 29478 161.25 221.25 241 -7.1630792617798 4 38.680875778198 475.21272998936
73481	2479674 7170 20943 29478 161 221.25 242 0 15.64999961853 2217.0011982918 31576.668155059
73480	2486844 8471 20912 29478 160.75 221.25 243 184.17810058594 734.53523254395 111057.1725769 54935618.829712
73479	2495315 8505 20912 29478 160.75 221.25 243 486.85000610352 486.85000610352 118304.55148315 57596571.611647
vector 73626  IntersectionExampleScenario.node[85].veinsmobility  posx  ETV
vector 73627  IntersectionExampleScenario.node[85].veinsmobility  posy  ETV
vector 73628  IntersectionExampleScenario.node[85].veinsmobility  speed  ETV
vector 73629  IntersectionExampleScenario.node[85].veinsmobility  acceleration  ETV
vector 73630  IntersectionExampleScenario.node[85].veinsmobility  co2emission  ETV
73518	2504221 6496 22406 29704 172.25 223 204 0.973 11.648172402475 558.11922009333 2870.2312484946
73517	2510717 6639 22406 29704 172.25 223 204 -3.8020079135895 2.5000009536743 38.171613693237 339.45067943879
73516	2517356 6871 22369 29704 172 223 205 0 15.64999961853 2184.790767353 28761.21568896
73515	2524227 7182 22332 29704 171.75 223 206 184.17810058594 483.18145751953 84250.52545166 36312757.378527
73514	2531409 7197 22332 29704 171.75 223 206 486.85000610352 733.24403381348 108511.03764343 58175784.370215
vector 73633  IntersectionExampleScenario.node[86].veinsmobility  posx  ETV
vector 73634  IntersectionExampleScenario.node[86].veinsmobility  posy  ETV
vector 73635  IntersectionExampleScenario.node[86].veinsmobility  speed  ETV
vector 73636  IntersectionExampleScenario.node[86].veinsmobility  acceleration  ETV
vector 73637  IntersectionExampleScenario.node[86].veinsmobility  co2emission  ETV
vector 73640  IntersectionExampleScenario.node[87].veinsmobility  posx  ETV
vector 73641  IntersectionExampleScenario.node[87].veinsmobility  posy  ETV
vector 73642  IntersectionExampleScenario.node[87].veinsmobility  speed  ETV
vector 73643  IntersectionExampleScenario.node[87].veinsmobility  acceleration  ETV
vector 73644  IntersectionExampleScenario.node[87].veinsmobility  co2emission  ETV
vector 73647  IntersectionExampleScenario.node[88].veinsmobility  posx  ETV
vector 73648  IntersectionExampleScenario.node[88].veinsmobility  posy  ETV
vector 73649  IntersectionExampleScenario.node[88].veinsmobility  speed  ETV
vector 73650  IntersectionExampleScenario.node[88].veinsmobility  acceleration  ETV
vector 73651  IntersectionExampleScenario.node[88].veinsmobility  co2emission  ETV
vector 73654  IntersectionExampleScenario.node[89].veinsmobility  posx  ETV
vector 73655  IntersectionExampleScenario.node[89].veinsmobility  posy  ETV
vector 73656  IntersectionExampleScenario.node[89].veinsmobility  speed  ETV
vector 73657  IntersectionExampleScenario.node[89].veinsmobility  acceleration  ETV
vector 73658  IntersectionExampleScenario.node[89].veinsmobility  co2emission  ETV
73434	2540210 12046 17379 30708 133.5 230.5 389 0.973 10.562040798468 751.68178077469 2785.2996911093
73433	2552256 11559 17379 30708 133.5 230.5 389 -25.487422943115 4 32.739515304565 1225.858805356
73432	2563815 12006 17344 30708 133.25 230.5 390 0 14.25276184082 2136.7630972676 25164.678243533
73431	2575821 13672 17311 30708 133 230.5 391 483.14999389648 735.57568359375 198293.59156799 101921197.78735
73430	2589493 13643 17311 30708 133 230.5 391 196.984375 486.85000610352 169133.67550659 75161912.916763
73427	2603136 12515 17344 30708 133.25 230.5 390 0.973 11.810082123732 832.92137122455 3352.8312907361
73426	2615651 12573 17344 30708 133.25 230.5 390 -4.6848480701447 2.5 43.759786605835 698.91444800436
73425	2628224 12665 17311 30708 133 230.5 391 0 15.875 2227.3173352759 27577.511078777
73424	2640889 13712 17280 30708 132.75 230.5 392 235.62652587891 483.14999389648 181321.99758911 85032793.188123
73423	2654601 13684 17280 30708 132.75 230.5 392 174.53436279297 483.14999389648 165417.62716675 72241326.414714
vector 73661  IntersectionExampleScenario.node[90].veinsmobility  posx  ETV
vector 73662  IntersectionExampleScenario.node[90].veinsmobility  posy  ETV
vector 73663  IntersectionExampleScenario.node[90].veinsmobility  speed  ETV
vector 73664  IntersectionExampleScenario.node[90].veinsmobility  acceleration  ETV
vector 73665  IntersectionExampleScenario.node[90].veinsmobility  co2emission  ETV
vector 73668  IntersectionExampleScenario.node[91].veinsmobility  posx  ETV
vector 73669  IntersectionExampleScenario.node[91].veinsmobility  posy  ETV
vector 73670  IntersectionExampleScenario.node[91].veinsmobility  speed  ETV
vector 73671  IntersectionExampleScenario.node[91].veinsmobility  acceleration  ETV
vector 73672  IntersectionExampleScenario.node[91].veinsmobility  co2emission  ETV
73448	2669087 11938 18634 31134 142.5 233.5 365 0.973 11.200708441096 746.07345826017 3128.0241198739
73447	2681025 12330 18634 31134 142.5 233.5 365 -4.5 2.5 35.625318527222 482.21501016174
73446	2693355 12553 18599 31134 142.25 233.5 366 0 15.02499961853 2223.7854959797 27260.681556455
73445	2705908 12844 18564 31134 142 233.5 367 483.14999389648 483.14999389648 177316.04776001 85670247.392998
73444	2718752 12791 18564 31134 142 233.5 367 184.17810058594 735.17132568359 163741.07200623 77452137.328093
vector 73675  IntersectionExampleScenario.node[92].veinsmobility  posx  ETV
vector 73676  IntersectionExampleScenario.node[92].veinsmobility  posy  ETV
vector 73677  IntersectionExampleScenario.node[92].veinsmobility  speed  ETV
vector 73678  IntersectionExampleScenario.node[92].veinsmobility  acceleration  ETV
vector 73679  IntersectionExampleScenario.node[92].veinsmobility  co2emission  ETV
73469	2731944 10090 20557 31440 157.75 235.5 312 0.97223939240464 11.648172402475 685.04309604015 2917.9483528319
73468	2742034 10550 20557 31440 157.75 235.5 312 -3.9381816387177 2.5000001192093 38.680875778198 409.38577955962
73467	2752584 10660 20528 31440 157.5 235.5 313 0 15.64999961853 2214.6351928413 27798.257791473
73466	2763244 10977 20498 31440 157.25 235.5 314 483.14999389648 734.68505859375 160211.88684082 82935285.747615
73465	2774221 10958 20498 31440 157.25 235.5 314 184.17810058594 486.8576965332 130972.75827026 56565620.951429
73560	2785179 6243 25164 31745 190.25 237.5 190 0.973 11.200708441096 552.26200471798 2706.2505541583
73559	2791422 5639 25164 31745 190.25 237.5 190 -7.3439340591431 4 37.32285118103 461.95544180475
73558	2797061 6113 25125 31745 190 237.5 191 0 15.038680076599 2199.558147192 30621.569577455
73557	2803174 6708 25086 31745 189.75 237.5 192 483.14999389648 785.82187652588 107569.12133026 62193446.766193
73556	2809882 6715 25086 31745 189.75 237.5 192 483.14999389648 732.85830688477 101286.55091858 54472124.952511
vector 73682  IntersectionExampleScenario.node[93].veinsmobility  posx  ETV
vector 73683  IntersectionExampleScenario.node[93].veinsmobility  posy  ETV
vector 73684  IntersectionExampleScenario.node[93].veinsmobility  speed  ETV
vector 73685  IntersectionExampleScenario.node[93].veinsmobility  acceleration  ETV
vector 73686  IntersectionExampleScenario.node[93].veinsmobility  co2emission  ETV
73567	2816998 5718 26175 32171 197.25 240.25 173 0.973 11.36141391502 543.77341062868 2941.3747583626
73566	2822716 5572 26175 32171 197.25 240.25 173 -3.3377380371094 2.5 38.001859664917 332.83631851268
73565	2828288 5769 26140 32171 197 240.25 174 5.4388198852539 15.25 2185.7629060745 29476.464275925
73564	2834057 6112 26105 32171 196.75 240.25 175 486.73229980469 785.82187652588 99685.829536438 58555605.827967
73563	2840169 6120 26105 32171 196.75 240.25 175 236.74810791016 483.14999389648 76306.555114746 34233236.529275
73588	2846289 5358 26787 32327 201.75 241.25 159 0.973 11.648172402475 545.2736737411 3256.9824223164
73587	2851647 5016 26787 32327 201.75 241.25 159 -4.2806396484375 2.5 39.359884262085 342.23302722321
73586	2856663 5368 26750 32327 201.5 241.25 160 5.6500000953674 15.64999961853 2213.427570343 31538.204217762
73585	2862031 5621 26713 32327 201.25 241.25 161 237.86480712891 785.82187652588 84329.962150574 48249947.738442
73584	2867652 5636 26713 32327 201.25 241.25 161 483.14999389648 483.14999389648 77787.149017334 37582860.57295
vector 73689  IntersectionExampleScenario.node[94].veinsmobility  posx  ETV
vector 73690  IntersectionExampleScenario.node[94].veinsmobility  posy  ETV
vector 73691  IntersectionExampleScenario.node[94].veinsmobility  speed  ETV
vector 73692  IntersectionExampleScenario.node[94].veinsmobility  acceleration  ETV
vector 73693  IntersectionExampleScenario.node[94].veinsmobility  co2emission  ETV
vector 73696  IntersectionExampleScenario.node[95].veinsmobility  posx  ETV
vector 73697  IntersectionExampleScenario.node[95].veinsmobility  posy  ETV
73539	2873843 8235 23192 32885 177.5 244.75 270 0.973 11.200708441096 678.55830397085 3349.16649155
73538	2882078 7454 23192 32885 177.5 244.75 270 -44.450355529785 4 35.964826583862 2361.8848164764
73537	2889532 7950 23151 32885 177.25 244.75 271 0 15.02499961853 2211.2768907547 29053.000259683
73536	2897482 9520 23110 32885 177 244.75 272 486.85000610352 486.85000610352 132423.20166016 64470236.536494
73535	2907002 9500 23110 32885 177 244.75 272 237.70941162109 785.82187652588 139810.59873199 76158574.060508
vector 73698  IntersectionExampleScenario.node[95].veinsmobility  speed  ETV
vector 73699  IntersectionExampleScenario.node[95].veinsmobility  acceleration  ETV
vector 73700  IntersectionExampleScenario.node[95].veinsmobility  co2emission  ETV
73574	2916749 5924 26540 33013 200 245.5 183 0.973 11.90022389248 549.43032865842 3005.5631694388
73573	2922673 5948 26540 33013 200 245.5 183 -2.1482048034668 2.5 39.869146347046 305.41739314711
73572	2928621 6151 26507 33013 199.75 245.5 184 2.484846830368 16 2207.0416839123 30036.313190595
73571	2934772 6468 26473 33013 199.5 245.5 185 237.82470703125 486.85000610352 81926.018005371 37273015.473652
73570	2941240 6464 26473 33013 199.5 245.5 185 483.14999389648 785.82187652588 104599.99456024 60953107.939859
vector 73703  IntersectionExampleScenario.node[96].veinsmobility  posx  ETV
vector 73704  IntersectionExampleScenario.node[96].veinsmobility  posy  ETV
vector 73705  IntersectionExampleScenario.node[96].veinsmobility  speed  ETV
vector 73706  IntersectionExampleScenario.node[96].veinsmobility  acceleration  ETV
vector 73707  IntersectionExampleScenario.node[96].veinsmobility  co2emission  ETV
vector 73710  IntersectionExampleScenario.node[97].veinsmobility  posx  ETV
vector 73711  IntersectionExampleScenario.node[97].veinsmobility  posy  ETV
vector 73712  IntersectionExampleScenario.node[97].veinsmobility  speed  ETV
vector 73713  IntersectionExampleScenario.node[97].veinsmobility  acceleration  ETV
vector 73714  IntersectionExampleScenario.node[97].veinsmobility  co2emission  ETV
vector 73717  IntersectionExampleScenario.node[98].veinsmobility  posx  ETV
vector 73718  IntersectionExampleScenario.node[98].veinsmobility  posy  ETV
vector 73724  IntersectionExampleScenario.node[99].veinsmobility  posx  ETV
vector 73725  IntersectionExampleScenario.node[99].veinsmobility  posy  ETV
vector 73719  IntersectionExampleScenario.node[98].veinsmobility  speed  ETV
vector 73726  IntersectionExampleScenario.node[99].veinsmobility  speed  ETV
vector 73720  IntersectionExampleScenario.node[98].veinsmobility  acceleration  ETV
vector 73721  IntersectionExampleScenario.node[98].veinsmobility  co2emission  ETV
vector 73727  IntersectionExampleScenario.node[99].veinsmobility  acceleration  ETV
vector 73728  IntersectionExampleScenario.node[99].veinsmobility  co2emission  ETV
[...]
vector 76849  IntersectionExampleScenario.node[545].veinsmobility  acceleration  ETV
vector 76850  IntersectionExampleScenario.node[545].veinsmobility  co2emission  ETV
76731	21696070 7905 196331 208763 1472 1529.75 232 0.973 11.36141391502 576.84327952348 2745.0331330146
76730	21703975 8258 196331 208763 1472 1529.75 232 -3.7390322685242 2.5 36.98334312439 315.88356130142
76729	21712233 8285 196272 208763 1471.75 1529.75 233 0 15.25 2188.1773323081 28096.74197695
76728	21720518 8655 196213 208763 1471.5 1529.75 234 486.85000610352 733.86695861816 122336.59973145 65037230.252014
76727	21729173 8637 196213 208763 1471.5 1529.75 234 486.7438659668 785.82187652588 130299.37778473 74467972.400624
76759	21737810 6387 199304 209024 1485.25 1531.25 185 0.973 11.450879080643 542.97632115044 2851.0507086728
76758	21744197 6400 199304 209024 1485.25 1531.25 185 -3.1924438476562 2.5 37.32285118103 309.54415185184
76757	21750597 6594 199245 209024 1485 1531.25 186 3.9162490367889 15.375 2210.8153350353 28846.010074857
76756	21757191 6910 199188 209024 1484.75 1531.25 187 236.59466552734 486.85000610352 82481.305419922 37416389.921176
76755	21764101 6913 199188 209024 1484.75 1531.25 187 483.14999389648 785.82187652588 106111.19963837 62038244.838727
vector 76853  IntersectionExampleScenario.node[546].veinsmobility  posx  ETV
vector 76854  IntersectionExampleScenario.node[546].veinsmobility  posy  ETV
vector 76855  IntersectionExampleScenario.node[546].veinsmobility  speed  ETV
vector 76856  IntersectionExampleScenario.node[546].veinsmobility  acceleration  ETV
vector 76857  IntersectionExampleScenario.node[546].veinsmobility  co2emission  ETV
vector 76860  IntersectionExampleScenario.node[547].veinsmobility  posx  ETV
vector 76861  IntersectionExampleScenario.node[547].veinsmobility  posy  ETV
vector 76862  IntersectionExampleScenario.node[547].veinsmobility  speed  ETV
vector 76867  IntersectionExampleScenario.node[548].veinsmobility  posx  ETV
vector 76868  IntersectionExampleScenario.node[548].veinsmobility  posy  ETV
vector 76863  IntersectionExampleScenario.node[547].veinsmobility  acceleration  ETV
vector 76864  IntersectionExampleScenario.node[547].veinsmobility  co2emission  ETV
vector 76869  IntersectionExampleScenario.node[548].veinsmobility  speed  ETV
vector 76870  IntersectionExampleScenario.node[548].veinsmobility  acceleration  ETV
vector 76871  IntersectionExampleScenario.node[548].veinsmobility  co2emission  ETV
76493	21772232 20716 178259 209522 1375.75 1534 634 0.973 11.00486315618 1069.4637206165 3391.4681386171
76492	21792948 20716 178259 209522 1375.75 1534 634 -9.0031261444092 4 35.625318527222 1028.3878668299
76491	21813664 20917 178210 209522 1375.5 1534 635 0 14.75 2283.2917477004 23607.049601455
76490	21834581 23329 178161 209522 1375.25 1534 636 167.30548095703 734.74969482422 268868.14541626 119461782.56714
76489	21857910 23532 178161 209522 1375.25 1534 636 486.85000610352 486.85012817383 309636.60525513 150746583.82692
76535	21881442 18160 182491 209663 1398.25 1534.75 547 0.973 11.648172402475 976.54573211847 3684.0883695204
76534	21899602 18489 182491 209663 1398.25 1534.75 547 -4.5 2.5 38.341367721558 697.07042372367
76533	21918091 18532 182448 209663 1398 1534.75 548 0 15.64999961853 2182.8323217919 24772.917171056
76532	21936623 20243 182405 209663 1397.75 1534.75 549 184.17810058594 483.14999389648 227395.06265259 96376670.400231
76531	21956866 20291 182405 209663 1397.75 1534.75 549 486.84994506836 733.05070495605 275460.54533386 139428794.62175
73027	21977157 533 0 202640 0 1500 26 0 33 570 13884
73028	21977690 548 0 202640 0 1500 26 0 235 2961 450923
76538	21978238 20380 182830 210227 1400.25 1537.75 551 486.84985351562 734.39430236816 276681.5393219 140191633.6371
76539	21998618 20286 182830 210227 1400.25 1537.75 551 168.58435058594 483.26431274414 225048.82260132 94294881.385646
76540	22018904 19253 182873 210227 1400.5 1537.75 550 0 15.25 2252.4381430037 25711.334669516
76541	22038157 19511 182918 210227 1400.75 1537.75 549 -4.5 2.5 37.15309715271 620.08370442309
76542	22057668 18649 182918 210227 1400.75 1537.75 549 0.973 11.36141391502 936.32900745128 3161.1955531706
76545	22076317 20351 182873 210227 1400.5 1537.75 550 486.84994506836 486.85003662109 267767.50299072 130362610.28707
76546	22096668 20274 182873 210227 1400.5 1537.75 550 151.97033691406 728.48173522949 227393.3421936 99193399.034787
76547	22116942 19562 182918 210227 1400.75 1537.75 549 0 15.993463516235 2326.5772545682 27128.888528164
76548	22136504 19730 182963 210227 1401 1537.75 548 -4.5 2.5000019073486 41.227170944214 590.90891866096
76549	22156234 18457 182963 210227 1401 1537.75 548 0.973 11.093806525473 961.99981866446 3261.4306789892
76559	22174691 19057 184370 210227 1409.25 1537.75 515 486.85000610352 486.85015869141 250727.75366211 122066808.6533
76560	22193748 18977 184370 210227 1409.25 1537.75 515 184.17810058594 471.60000610352 204894.47857666 83384976.150462
76561	22212725 17681 184411 210227 1409.5 1537.75 514 0 13.571084022522 1146.1947141672 9325.8393412887
76562	22230406 17992 184452 210227 1409.75 1537.75 513 -6.8290009498596 2.5000019073486 -22.60000038147 651.61896920208
76563	22248398 16630 184452 210227 1409.75 1537.75 513 0.973 9.8772939209111 715.64078429059 1670.5134635328
76566	22265028 18871 184534 210180 1410.25 1537.5 510 486.85000610352 486.85003662109 248293.50326538 120881693.6545
76567	22283899 18799 184534 210180 1410.25 1537.5 510 162.00311279297 465.15447998047 198324.05029297 79175981.935018
76568	22302698 17897 184577 210180 1410.5 1537.5 509 0 14.49716091156 1210.3788619693 10584.563685177
76569	22320595 18340 184620 210180 1410.75 1537.5 508 -4.5 2.5 -22.436957284808 608.12271654621
76570	22338935 16994 184620 210180 1410.75 1537.5 508 0.973 9.8772939209111 729.00225823983 1682.0797343936
76587	22355929 17420 186183 210180 1419.75 1537.5 472 486.8498840332 486.85003662109 229793.19497681 111874814.52892
76588	22373349 17389 186183 210180 1419.75 1537.5 472 184.17810058594 457.46588134766 182081.89816284 71759562.229118
76589	22390738 16080 186230 210180 1420 1537.5 471 0 15.02499961853 1090.9783082977 8332.6085980845
76590	22406818 16520 186277 210180 1420.25 1537.5 470 -4.5 2.5 -22.462663799524 630.77352511115
76591	22423338 15028 186277 210180 1420.25 1537.5 470 0.973 11.200708441096 663.46886754191 1777.9618931642
76594	22438366 16982 186775 210180 1423 1537.5 459 486.85000610352 486.85003662109 223464.15292358 108793524.27419
76595	22455348 16877 186775 210180 1423 1537.5 459 172.9296875 448.26351928711 172924.34292603 66723084.523008
76596	22472225 16225 186822 210180 1423.25 1537.5 458 0 14.912268638611 1096.8051305837 8176.2063355939
76597	22488450 16545 186869 210180 1423.5 1537.5 457 -4.5 4 -22.232333987951 494.15994595357
76598	22504995 14915 186869 210180 1423.5 1537.5 457 0.973 10.756497587458 653.29074575614 1713.9439037332
76608	22519910 16207 187722 210180 1428.25 1537.5 438 486.84997558594 486.85003662109 213240.30264282 103816042.62832
76609	22536117 16147 187722 210180 1428.25 1537.5 438 184.17810058594 440.81311035156 163085.35931396 62080499.481274
76610	22552264 14951 187769 210180 1428.5 1537.5 437 0 11.46931552887 1026.2069832161 7436.7111145494
76611	22567215 15271 187816 210180 1428.75 1537.5 436 -4.5 2.5 -18.736739635468 438.99625641144
76612	22582486 14273 187816 210180 1428.75 1537.5 436 0.973 8.7129174880625 576.80481050204 1134.4923632785
76657	22596759 12655 192172 210180 1452.25 1537.5 342 486.84997558594 486.85000610352 166502.70172119 81061841.170924
76658	22609414 12606 192172 210180 1452.25 1537.5 342 184.17810058594 433.05276489258 126667.00320435 48020020.080112
76659	22622020 12466 192223 210180 1452.5 1537.5 341 0 15.913236618042 996.75680709444 8187.2851440377
76660	22634486 12633 192274 210180 1452.75 1537.5 340 -4.1867251396179 2.5000002384186 -16.637083053589 447.72861220925
76661	22647119 11485 192274 210180 1452.75 1537.5 340 0.973 11.648172402475 529.09534762552 1736.737601562
76685	22658604 11692 193493 210180 1458.75 1537.5 316 486.85000610352 486.85006713867 153844.6053772 74899248.745777
76686	22670296 11625 193493 210180 1458.75 1537.5 316 184.17810058594 424.59527587891 114681.61621094 42667364.918164
76687	22681921 10855 193546 210180 1459 1537.5 315 0 13.14999961853 961.17161715217 7625.1832873865
76688	22692776 11004 193598 210180 1459.25 1537.5 314 -5.0017700195312 4 -18.696340084076 502.93660001129
76689	22703780 10150 193598 210180 1459.25 1537.5 314 0.973 9.8772939209111 451.36249129973 1180.5043194373
76692	22713930 11544 193700 210180 1459.75 1537.5 312 486.85000610352 486.85003662109 151897.20193481 73951153.703929
76693	22725474 11481 193700 210180 1459.75 1537.5 312 162.00311279297 417.48892211914 109162.79302979 39504226.813451
76694	22736955 11052 193753 210180 1460 1537.5 311 0 13.210968017578 1018.5297277384 8295.5577552528
76695	22748007 11023 193806 210180 1460.25 1537.5 310 -4.5 2.5000019073486 -20.455568552017 458.38898608539
76696	22759030 10204 193806 210180 1460.25 1537.5 310 0.973 9.8772939209111 497.47532030791 1496.6904766041
76713	22769234 10212 195604 210180 1468.75 1537.5 276 486.84994506836 486.85000610352 134370.6015625 65418328.131406
76714	22779446 10154 195604 210180 1468.75 1537.5 276 184.17810058594 409.58764648438 96860.46484375 34825478.122264
76715	22789600 9993 195659 210180 1469 1537.5 275 0 12.862537384033 902.3274214752 7698.5170071508
76716	22799593 10126 195714 210180 1469.25 1537.5 274 -4.5 2.5 -14.257526397705 276.0901793009
76717	22809719 9263 195714 210180 1469.25 1537.5 274 0.973 8.5795037135332 408.79813003651 955.45568385938
76720	22818982 9878 196099 210180 1471 1537.5 267 486.85000610352 486.85003662109 129988.95169067 63285121.953709
76721	22828860 9825 196099 210180 1471 1537.5 267 167.29217529297 399.76596069336 90533.661621094 31623860.160178
76722	22838685 9628 196156 210180 1471.25 1537.5 266 0 13.556344032288 931.71228301805 7408.2932450098
76723	22848313 9703 196213 210180 1471.5 1537.5 265 -4.5 2.5 -11.992988586426 286.95155023252
76724	22858016 8770 196213 210180 1471.5 1537.5 265 0.973 9.442030466751 408.61104980068 1096.4753379993
76741	22866786 8250 198591 210180 1482 1537.5 223 486.84997558594 486.85012817383 108567.55209351 52856113.755947
76742	22875036 8219 198591 210180 1482 1537.5 223 184.17810058594 391.99740600586 75251.83493042 26056090.576307
76743	22883255 7382 198646 210180 1482.25 1537.5 222 0 14.39999961853 832.93483173847 6927.0848020061
76744	22890637 7324 198701 210180 1482.5 1537.5 221 -3.4874620437622 2.5 -12.529885292053 230.56565950853
76745	22897961 6681 198701 210180 1482.5 1537.5 221 0.973 10.756497587458 346.90801842086 1221.5037277341
76748	22904642 7967 198969 210180 1483.75 1537.5 216 184.17810058594 483.18588256836 87434.833312988 37509569.39341
76749	22912609 7982 198969 210180 1483.75 1537.5 216 316.34643554688 483.14999389648 100519.24682617 47132271.589371
76750	22920591 6805 199024 210180 1484 1537.5 215 0 15.256384849548 1865.1308665276 24643.48112115
76751	22927396 6647 199079 210180 1484.25 1537.5 214 -4.5 2.5 38.341367721558 515.80239005181
76752	22934043 7120 199079 210180 1484.25 1537.5 214 0.973 11.36141391502 571.2782139161 2762.1461221974
76762	22941163 7826 199188 210180 1484.75 1537.5 212 162.00311279297 483.14999389648 83670.243103027 35315681.896245
76763	22948989 7837 199188 210180 1484.75 1537.5 212 347.82476806641 483.14999389648 99939.876678467 47303141.465519
76764	22956826 7473 199245 210180 1485 1537.5 211 0 16.013338088989 1830.897545401 24172.54717099
76765	22964299 7411 199304 210180 1485.25 1537.5 210 -4.5 2.5 41.397043228149 438.62448680418
76766	22971710 7324 199304 210180 1485.25 1537.5 210 0.973 11.448021859873 578.650149477 2876.8367993432
76769	22979034 7794 199245 210180 1485 1537.5 211 495.8254699707 810.23281097412 121956.43027496 72713224.734999
76770	22986828 7806 199245 210180 1485 1537.5 211 486.32543945312 486.85000610352 102724.45651245 50010967.009764
76771	22994634 6510 199304 210180 1485.25 1537.5 210 0 14.674912452698 1260.6780431271 14803.076182616
76772	23001144 6481 199365 210180 1485.5 1537.5 209 -9.1075115203857 4 -6.1000003814697 462.78713706683
76773	23007625 6527 199365 210180 1485.5 1537.5 209 0.973 10.585077417244 410.03568967943 1512.8657066289
76776	23014152 7757 199304 210180 1485.25 1537.5 210 213.88439941406 486.85000610352 89132.800384521 39346798.145793
76777	23021909 7768 199304 210180 1485.25 1537.5 210 483.14999389648 674.07357788086 106610.27131653 54651454.610814
76778	23029677 6592 199365 210180 1485.5 1537.5 209 0 14.75 1824.3458766937 24508.123196954
76779	23036269 6453 199426 210180 1485.75 1537.5 208 -8.024284362793 4 35.795072555542 461.87261899389
76780	23042722 6889 199426 210180 1485.75 1537.5 208 0.973 11.00486315618 529.13822814663 2495.9991903751
76783	23049611 6602 201035 210180 1492.75 1537.5 180 416.9211730957 483.14999389648 86242.50982666 41348407.750686
76784	23056213 6653 201035 210180 1492.75 1537.5 180 486.63604736328 785.82187652588 102583.72476959 60222024.219077
76785	23062866 5532 201092 210180 1493 1537.5 179 0 15.02499961853 1455.86404562 19023.608959978
76786	23068398 5285 201149 210180 1493.25 1537.5 178 -8.6476802825928 4 35.809072494507 472.97502719023
76787	23073683 5819 201149 210180 1493.25 1537.5 178 0.973 11.200708441096 471.92289249439 2454.3859393887
76790	23079502 6364 201480 210180 1494.75 1537.5 172 486.85000610352 486.85003662109 83738.20111084 40767943.751625
76791	23085866 5886 201480 210180 1494.75 1537.5 172 184.17810058594 382.07211303711 56775.681274414 19322745.742636
76792	23091752 5792 201537 210180 1495 1537.5 171 0 15.02499961853 792.25786032528 7591.1043376446
76793	23097544 5603 201594 210180 1495.25 1537.5 170 -4.5 4 -11.97832775116 291.58950528745
76794	23103147 5142 201594 210180 1495.25 1537.5 170 0.973 11.200708441096 324.34465422268 1503.7458584179
76797	23108289 5485 202751 210180 1500.5 1537.5 149 184.17810058594 603.97552490234 58858.304473877 25257075.055248
76798	23113774 5513 202751 210180 1500.5 1537.5 149 483.14999389648 483.14999389648 71989.349090576 34781653.573724
76799	23119287 5260 202808 210180 1500.75 1537.5 148 3.7269127368927 15.64999961853 1701.2105410099 21885.141680217
76800	23124547 5102 202865 210180 1501 1537.5 147 -2.5691051483154 2.5 38.682149887085 303.86988137182
76801	23129649 5023 202865 210180 1501 1537.5 147 0.97223939240464 11.648172402475 469.78333958177 2753.6621745375
76804	23134672 5124 203307 210180 1503 1537.5 139 504.2614440918 785.82187652588 83224.353813171 51107326.712361
76805	23139796 5142 203307 210180 1503 1537.5 139 486.85000610352 486.85000610352 67672.150848389 32946187.053576
76806	23144938 5081 203364 210180 1503.25 1537.5 138 0 15.02499961853 1129.7867034003 13904.486516244
76807	23150019 4977 203421 210180 1503.5 1537.5 137 -3.713475227356 2.5000004768372 -9.6431655883789 214.70123662539
76808	23154996 4473 203421 210180 1503.5 1537.5 137 0.973 11.200708441096 299.5747149434 1350.1556104545
76811	23159469 5113 203307 210180 1503 1537.5 139 168.58435058594 471.60000610352 50290.721954346 19644403.639181
76812	23164582 5142 203307 210180 1503 1537.5 139 483.14999389648 483.14999389648 67157.849151611 32447314.407702
76813	23169724 4652 203364 210180 1503.25 1537.5 138 0 15.029158592224 1209.5135331154 15063.282584151
76814	23174376 4410 203421 210180 1503.5 1537.5 137 -29.314308166504 2.5 -22.60000038147 1160.4955436145
76815	23178786 4468 203421 210180 1503.5 1537.5 137 0.973 11.200708441096 346.46007510745 1678.1427939719
76818	23183254 3256 206074 210180 1515.75 1537.5 88 483.14999389648 483.14999389648 42517.199462891 20542184.660991
76819	23186510 3251 206074 210180 1515.75 1537.5 88 498.39999389648 785.82187652588 56776.991828918 37377315.281445
76820	23189761 3148 206125 210180 1516 1537.5 87 0 15.02499961853 1146.567481041 16308.39588804
76821	23192909 2610 206176 210180 1516.25 1537.5 86 -34.889461517334 2.5 -22.60000038147 1395.3467300728
76822	23195519 3057 206176 210180 1516.25 1537.5 86 0.973 11.200708441096 260.98071105872 1336.6274784196
76825	23198576 2960 206479 210180 1517.75 1537.5 80 483.14999389648 483.14999389648 38651.999511719 18674713.328174
76826	23201536 2932 206479 210180 1517.75 1537.5 80 527.1842956543 803.92188262939 53952.406723022 36987908.881097
76827	23204468 2912 206530 210180 1518 1537.5 79 5.6500000953674 15.662495613098 1120.8630619049 16437.622193773
76828	23207380 2501 206580 210180 1518.25 1537.5 78 -4.5 2.5 15.573446273804 197.40660728203
76829	23209881 2802 206580 210180 1518.25 1537.5 78 0.973 11.200708441096 262.95961353859 1385.3118033466
76832	23212683 2253 207400 210180 1522.5 1537.5 61 581.10018920898 785.82187652588 42250.169837952 29517574.480724
76833	23214936 2257 207400 210180 1522.5 1537.5 61 486.85000610352 486.85000610352 29697.850372314 14458398.635023
76834	23217193 2207 207448 210180 1522.75 1537.5 60 5.6500000953674 15.64999961853 838.9262638092 12168.270552855
76835	23219400 2074 207495 210180 1523 1537.5 59 -2.1256256103516 2.5 36.934335708618 128.34866420499
76836	23221474 2136 207495 210180 1523 1537.5 59 0.973 11.648172402475 241.64314285533 1593.9042762075
76839	23223610 2161 207495 210180 1523 1537.5 59 184.17810058594 381.20156860352 16112.098846436 4625225.6236506
76840	23225771 2182 207495 210180 1523 1537.5 59 483.14999389648 483.14999389648 28505.849639893 13772601.079528
76841	23227953 2134 207544 210180 1523.25 1537.5 58 5.6500000953674 15.64999961853 807.16681194305 11654.904993095
76842	23230087 2057 207593 210180 1523.5 1537.5 57 -2.1222877502441 2.5 32.683599472046 112.87386937079
76843	23232144 2066 207593 210180 1523.5 1537.5 57 0.973 11.648172402475 215.88250370002 1356.7897797731
76846	23234210 1615 208210 210180 1526.75 1537.5 44 176.21716308594 313.24841308594 10393.487670898 2537299.4441539
76847	23235825 1628 208210 210180 1526.75 1537.5 44 483.14999389648 483.14999389648 21258.599731445 10271092.330496
76848	23237453 1577 208257 210180 1527 1537.5 43 5.6500000953674 15.02499961853 567.9748468399 7845.1141516371
76849	23239030 1489 208304 210180 1527.25 1537.5 42 -0.12916564941406 2.5 36.983552932739 93.788124837087
76850	23240519 1547 208304 210180 1527.25 1537.5 42 1.6778656626784 11.200708441096 178.39947124126 1168.8331301556
76853	23242066 925 209067 210180 1531.5 1537.5 25 486.85000610352 486.85000610352 12171.250152588 5925573.2110748
76854	23242991 908 209067 210180 1531.5 1537.5 25 184.17810058594 250.48120117188 5277.7556152344 1125165.0868459
76855	23243899 878 209112 210180 1531.75 1537.5 24 5.6500000953674 15.02499961853 285.1403093338 3634.8554558835
76856	23244777 706 209157 210180 1532 1537.5 23 -0.086727142333984 2.5 37.187818527222 93.76701034309
76857	23245483 846 209157 210180 1532 1537.5 23 1.8321577376031 11.200708441096 138.60975913014 1085.2637124644
76860	23246329 740 209291 210180 1532.75 1537.5 20 486.85000610352 486.85000610352 9737.0001220703 4740458.5688599
76861	23247069 728 209291 210180 1532.75 1537.5 20 162.90466308594 210.55255126953 3637.3314208984 665992.21274366
76862	23247797 693 209336 210180 1533 1537.5 19 5.6500000953674 15.236898422241 210.89916801453 2532.7030768238
76863	23248490 501 209381 210180 1533.25 1537.5 18 0.28171157836914 2.5 38.347593307495 93.989464170449
76864	23248991 664 209381 210180 1533.25 1537.5 18 3.1863720797979 11.200708441096 132.19211540664 1083.8283234043
76867	23249655 650 209381 210180 1533.25 1537.5 18 184.17810058594 224.27813720703 3602.9310913086 724053.53529534
76868	23250305 667 209381 210180 1533.25 1537.5 18 483.14999389648 483.14999389648 8696.6998901367 4201810.4988391
76869	23250972 619 209428 210180 1533.5 1537.5 17 5.6500000953674 15.02499961853 180.29999542236 2064.6448875713
76870	23251591 413 209475 210180 1533.75 1537.5 16 -0.5 2.5 36.999998092651 93.99999046326
76871	23252004 579 209475 210180 1533.75 1537.5 16 0.973 11.200708441096 123.57536467337 1054.1204140581
