version 2
run nodebug-31-20200605-19:14:45-18076
attr configname nodebug
attr datetime 20200605-19:14:45
attr experiment nodebug
attr inifile omnetpp.ini
attr iterationvars ""
attr iterationvars2 $repetition=31
attr measurement ""
attr network "\"org.car2x.veins.modules.application.ExtTraCIScenarioManagerLaunchd.IntersectionExampleScenario\""
attr processid 18076
attr repetition 31
attr replication #31
attr resultdir results
attr runnumber 31
attr seedset 31
param **.coreDebug false
param **.debug false
param *.**.nic.mac1609_4.bitrate 18Mbps
param *.**.nic.mac1609_4.txPower 20mW
param *.**.nic.mac1609_4.useServiceChannel false
param *.**.nic.phy80211p.analogueModels "xmldoc(\"config.xml\")"
param *.**.nic.phy80211p.decider "xmldoc(\"config.xml\")"
param *.**.nic.phy80211p.sensitivity -89dBm
param *.**.nic.phy80211p.thermalNoise -110dBm
param *.**.nic.phy80211p.usePropagationDelay true
param *.**.nic.phy80211p.useThermalNoise true
param *.annotations.draw false
param *.connectionManager.alpha 2.0
param *.connectionManager.carrierFrequency "5.890e9 Hz"
param *.connectionManager.pMax 20mW
param *.connectionManager.sat -89dBm
param *.connectionManager.sendDirect true
param *.manager.autoShutdown true
param *.manager.host "\"localhost\""
param *.manager.launchConfig "xmldoc(\"paramics.launchd.xml\")"
param *.manager.margin 25
param *.manager.moduleDisplayString "\"\""
param *.manager.moduleName "\"node\""
param *.manager.moduleType "\"org.car2x.veins.nodes.Car\""
param *.manager.port 9999
param *.manager.updateInterval 250ms
param *.node[*0].veinsmobility.accidentCount 0
param *.node[*0].veinsmobility.accidentDuration 30s
param *.node[*0].veinsmobility.accidentStart 75s
param *.node[*].appl.LiderSelectZoneRadio 55.0
param *.node[*].appl.ShareDataZoneRadio 110.0
param *.node[*].appl.TiempoSemaforo 30.0
param *.node[*].appl.beaconInterval 1s
param *.node[*].appl.beaconPriority 3
param *.node[*].appl.dataOnSch false
param *.node[*].appl.dataPriority 2
param *.node[*].appl.debug false
param *.node[*].appl.headerLength "256 bit"
param *.node[*].appl.maxOffset 0.005s
param *.node[*].appl.sendBeacons false
param *.node[*].appl.sendData true
param *.node[*].applType "\"Dummy\""
param *.node[*].mobilityType "\"TraCIMobility\""
param *.node[*].mobilityType.debug true
param *.node[*].veinsmobility.x 0
param *.node[*].veinsmobility.y 0
param *.node[*].veinsmobility.z 1.895
param *.node[*].veinsmobilityType "\"org.car2x.veins.modules.mobility.traci.TraCIMobility\""
param *.node[*].veinsmobilityType.debug true
param *.playgroundSizeX 8500m
param *.playgroundSizeY 8500m
param *.playgroundSizeZ 50m
param *.world.use2D false
param *.world.useTorus false

scalar IntersectionExampleScenario.node[1].appl 	VehicleRemoved 	0
scalar IntersectionExampleScenario.node[1].appl 	ArrivedAtDest 	1
scalar IntersectionExampleScenario.node[1].appl 	IntersectionEnterTime 	5.5
scalar IntersectionExampleScenario.node[1].appl 	IntersectionExitTime 	36.258579814283
scalar IntersectionExampleScenario.node[1].appl 	NumberOfCollisions 	0
scalar IntersectionExampleScenario.node[1].nic.phy80211p 	busyTime 	0
scalar IntersectionExampleScenario.node[1].nic.mac1609_4 	ReceivedUnicastPackets 	0
scalar IntersectionExampleScenario.node[1].nic.mac1609_4 	ReceivedBroadcasts 	0
scalar IntersectionExampleScenario.node[1].nic.mac1609_4 	SentPackets 	0
scalar IntersectionExampleScenario.node[1].nic.mac1609_4 	SNIRLostPackets 	0
scalar IntersectionExampleScenario.node[1].nic.mac1609_4 	RXTXLostPackets 	0
scalar IntersectionExampleScenario.node[1].nic.mac1609_4 	TotalLostPackets 	0
scalar IntersectionExampleScenario.node[1].nic.mac1609_4 	DroppedPacketsInMac 	0
scalar IntersectionExampleScenario.node[1].nic.mac1609_4 	TooLittleTime 	0
scalar IntersectionExampleScenario.node[1].nic.mac1609_4 	TimesIntoBackoff 	0
scalar IntersectionExampleScenario.node[1].nic.mac1609_4 	SlotsBackoff 	0
scalar IntersectionExampleScenario.node[1].nic.mac1609_4 	NumInternalContention 	0
scalar IntersectionExampleScenario.node[1].nic.mac1609_4 	totalBusyTime 	0
scalar IntersectionExampleScenario.node[1].veinsmobility 	startTime 	5.5
scalar IntersectionExampleScenario.node[1].veinsmobility 	totalTime 	46.5
scalar IntersectionExampleScenario.node[1].veinsmobility 	stopTime 	52.25
scalar IntersectionExampleScenario.node[1].veinsmobility 	minSpeed 	0
scalar IntersectionExampleScenario.node[1].veinsmobility 	maxSpeed 	16
scalar IntersectionExampleScenario.node[1].veinsmobility 	totalDistance 	554.25540924072
scalar IntersectionExampleScenario.node[1].veinsmobility 	totalCO2Emission 	142.17660248082
scalar IntersectionExampleScenario.node[2].appl 	VehicleRemoved 	0
scalar IntersectionExampleScenario.node[2].appl 	ArrivedAtDest 	1
scalar IntersectionExampleScenario.node[2].appl 	IntersectionEnterTime 	11.25
scalar IntersectionExampleScenario.node[2].appl 	IntersectionExitTime 	38.04779915823
scalar IntersectionExampleScenario.node[2].appl 	NumberOfCollisions 	0
scalar IntersectionExampleScenario.node[2].nic.phy80211p 	busyTime 	0
scalar IntersectionExampleScenario.node[2].nic.mac1609_4 	ReceivedUnicastPackets 	0
scalar IntersectionExampleScenario.node[2].nic.mac1609_4 	ReceivedBroadcasts 	0
scalar IntersectionExampleScenario.node[2].nic.mac1609_4 	SentPackets 	0
scalar IntersectionExampleScenario.node[2].nic.mac1609_4 	SNIRLostPackets 	0
scalar IntersectionExampleScenario.node[2].nic.mac1609_4 	RXTXLostPackets 	0
scalar IntersectionExampleScenario.node[2].nic.mac1609_4 	TotalLostPackets 	0
scalar IntersectionExampleScenario.node[2].nic.mac1609_4 	DroppedPacketsInMac 	0
scalar IntersectionExampleScenario.node[2].nic.mac1609_4 	TooLittleTime 	0
scalar IntersectionExampleScenario.node[2].nic.mac1609_4 	TimesIntoBackoff 	0
scalar IntersectionExampleScenario.node[2].nic.mac1609_4 	SlotsBackoff 	0
scalar IntersectionExampleScenario.node[2].nic.mac1609_4 	NumInternalContention 	0
scalar IntersectionExampleScenario.node[2].nic.mac1609_4 	totalBusyTime 	0
scalar IntersectionExampleScenario.node[2].veinsmobility 	startTime 	11.25
scalar IntersectionExampleScenario.node[2].veinsmobility 	totalTime 	43.75
scalar IntersectionExampleScenario.node[2].veinsmobility 	stopTime 	55.25
scalar IntersectionExampleScenario.node[2].veinsmobility 	minSpeed 	4.8707685470581
scalar IntersectionExampleScenario.node[2].veinsmobility 	maxSpeed 	15.64999961853
scalar IntersectionExampleScenario.node[2].veinsmobility 	totalDistance 	546.08152043767
scalar IntersectionExampleScenario.node[2].veinsmobility 	totalCO2Emission 	134.81235651751
scalar IntersectionExampleScenario.node[0].appl 	VehicleRemoved 	0
scalar IntersectionExampleScenario.node[0].appl 	ArrivedAtDest 	1
scalar IntersectionExampleScenario.node[0].appl 	IntersectionEnterTime 	2.5
scalar IntersectionExampleScenario.node[0].appl 	IntersectionExitTime 	44.623358750541
scalar IntersectionExampleScenario.node[0].appl 	NumberOfCollisions 	0
scalar IntersectionExampleScenario.node[0].nic.phy80211p 	busyTime 	0
scalar IntersectionExampleScenario.node[0].nic.mac1609_4 	ReceivedUnicastPackets 	0
scalar IntersectionExampleScenario.node[0].nic.mac1609_4 	ReceivedBroadcasts 	0
scalar IntersectionExampleScenario.node[0].nic.mac1609_4 	SentPackets 	0
scalar IntersectionExampleScenario.node[0].nic.mac1609_4 	SNIRLostPackets 	0
scalar IntersectionExampleScenario.node[0].nic.mac1609_4 	RXTXLostPackets 	0
scalar IntersectionExampleScenario.node[0].nic.mac1609_4 	TotalLostPackets 	0
scalar IntersectionExampleScenario.node[0].nic.mac1609_4 	DroppedPacketsInMac 	0
scalar IntersectionExampleScenario.node[0].nic.mac1609_4 	TooLittleTime 	0
scalar IntersectionExampleScenario.node[0].nic.mac1609_4 	TimesIntoBackoff 	0
scalar IntersectionExampleScenario.node[0].nic.mac1609_4 	SlotsBackoff 	0
scalar IntersectionExampleScenario.node[0].nic.mac1609_4 	NumInternalContention 	0
scalar IntersectionExampleScenario.node[0].nic.mac1609_4 	totalBusyTime 	0
scalar IntersectionExampleScenario.node[0].veinsmobility 	startTime 	2.5
scalar IntersectionExampleScenario.node[0].veinsmobility 	totalTime 	58.25
scalar IntersectionExampleScenario.node[0].veinsmobility 	stopTime 	61
scalar IntersectionExampleScenario.node[0].veinsmobility 	minSpeed 	0
scalar IntersectionExampleScenario.node[0].veinsmobility 	maxSpeed 	16.27499961853
scalar IntersectionExampleScenario.node[0].veinsmobility 	totalDistance 	544.91753293425
scalar IntersectionExampleScenario.node[0].veinsmobility 	totalCO2Emission 	155.40016414822
scalar IntersectionExampleScenario.node[3].appl 	VehicleRemoved 	0
scalar IntersectionExampleScenario.node[3].appl 	ArrivedAtDest 	1
scalar IntersectionExampleScenario.node[3].appl 	IntersectionEnterTime 	15
scalar IntersectionExampleScenario.node[3].appl 	IntersectionExitTime 	47.024285748572
scalar IntersectionExampleScenario.node[3].appl 	NumberOfCollisions 	0
scalar IntersectionExampleScenario.node[3].nic.phy80211p 	busyTime 	0
scalar IntersectionExampleScenario.node[3].nic.mac1609_4 	ReceivedUnicastPackets 	0
scalar IntersectionExampleScenario.node[3].nic.mac1609_4 	ReceivedBroadcasts 	0
scalar IntersectionExampleScenario.node[3].nic.mac1609_4 	SentPackets 	0
scalar IntersectionExampleScenario.node[3].nic.mac1609_4 	SNIRLostPackets 	0
scalar IntersectionExampleScenario.node[3].nic.mac1609_4 	RXTXLostPackets 	0
scalar IntersectionExampleScenario.node[3].nic.mac1609_4 	TotalLostPackets 	0
scalar IntersectionExampleScenario.node[3].nic.mac1609_4 	DroppedPacketsInMac 	0
scalar IntersectionExampleScenario.node[3].nic.mac1609_4 	TooLittleTime 	0
scalar IntersectionExampleScenario.node[3].nic.mac1609_4 	TimesIntoBackoff 	0
scalar IntersectionExampleScenario.node[3].nic.mac1609_4 	SlotsBackoff 	0
scalar IntersectionExampleScenario.node[3].nic.mac1609_4 	NumInternalContention 	0
scalar IntersectionExampleScenario.node[3].nic.mac1609_4 	totalBusyTime 	0
scalar IntersectionExampleScenario.node[3].veinsmobility 	startTime 	15
scalar IntersectionExampleScenario.node[3].veinsmobility 	totalTime 	48.5
scalar IntersectionExampleScenario.node[3].veinsmobility 	stopTime 	63.75
scalar IntersectionExampleScenario.node[3].veinsmobility 	minSpeed 	1.8739143610001
scalar IntersectionExampleScenario.node[3].veinsmobility 	maxSpeed 	15.875
scalar IntersectionExampleScenario.node[3].veinsmobility 	totalDistance 	543.83354746326
scalar IntersectionExampleScenario.node[3].veinsmobility 	totalCO2Emission 	137.32678578652
scalar IntersectionExampleScenario.node[5].appl 	VehicleRemoved 	0
scalar IntersectionExampleScenario.node[5].appl 	ArrivedAtDest 	1
scalar IntersectionExampleScenario.node[5].appl 	IntersectionEnterTime 	22.5
scalar IntersectionExampleScenario.node[5].appl 	IntersectionExitTime 	49.353248800588
scalar IntersectionExampleScenario.node[5].appl 	NumberOfCollisions 	0
scalar IntersectionExampleScenario.node[5].nic.phy80211p 	busyTime 	0
scalar IntersectionExampleScenario.node[5].nic.mac1609_4 	ReceivedUnicastPackets 	0
scalar IntersectionExampleScenario.node[5].nic.mac1609_4 	ReceivedBroadcasts 	0
scalar IntersectionExampleScenario.node[5].nic.mac1609_4 	SentPackets 	0
scalar IntersectionExampleScenario.node[5].nic.mac1609_4 	SNIRLostPackets 	0
scalar IntersectionExampleScenario.node[5].nic.mac1609_4 	RXTXLostPackets 	0
scalar IntersectionExampleScenario.node[5].nic.mac1609_4 	TotalLostPackets 	0
scalar IntersectionExampleScenario.node[5].nic.mac1609_4 	DroppedPacketsInMac 	0
scalar IntersectionExampleScenario.node[5].nic.mac1609_4 	TooLittleTime 	0
scalar IntersectionExampleScenario.node[5].nic.mac1609_4 	TimesIntoBackoff 	0
scalar IntersectionExampleScenario.node[5].nic.mac1609_4 	SlotsBackoff 	0
scalar IntersectionExampleScenario.node[5].nic.mac1609_4 	NumInternalContention 	0
scalar IntersectionExampleScenario.node[5].nic.mac1609_4 	totalBusyTime 	0
scalar IntersectionExampleScenario.node[5].veinsmobility 	startTime 	22.5
scalar IntersectionExampleScenario.node[5].veinsmobility 	totalTime 	43.25
scalar IntersectionExampleScenario.node[5].veinsmobility 	stopTime 	66
scalar IntersectionExampleScenario.node[5].veinsmobility 	minSpeed 	5.6500000953674
scalar IntersectionExampleScenario.node[5].veinsmobility 	maxSpeed 	15.02499961853
scalar IntersectionExampleScenario.node[5].veinsmobility 	totalDistance 	553.51237487793
scalar IntersectionExampleScenario.node[5].veinsmobility 	totalCO2Emission 	133.98215717569
scalar IntersectionExampleScenario.node[4].appl 	VehicleRemoved 	0
scalar IntersectionExampleScenario.node[4].appl 	ArrivedAtDest 	1
scalar IntersectionExampleScenario.node[4].appl 	IntersectionEnterTime 	17
scalar IntersectionExampleScenario.node[4].appl 	IntersectionExitTime 	60.6179538625
scalar IntersectionExampleScenario.node[4].appl 	NumberOfCollisions 	0
scalar IntersectionExampleScenario.node[4].nic.phy80211p 	busyTime 	0
scalar IntersectionExampleScenario.node[4].nic.mac1609_4 	ReceivedUnicastPackets 	0
scalar IntersectionExampleScenario.node[4].nic.mac1609_4 	ReceivedBroadcasts 	0
scalar IntersectionExampleScenario.node[4].nic.mac1609_4 	SentPackets 	0
scalar IntersectionExampleScenario.node[4].nic.mac1609_4 	SNIRLostPackets 	0
scalar IntersectionExampleScenario.node[4].nic.mac1609_4 	RXTXLostPackets 	0
scalar IntersectionExampleScenario.node[4].nic.mac1609_4 	TotalLostPackets 	0
scalar IntersectionExampleScenario.node[4].nic.mac1609_4 	DroppedPacketsInMac 	0
scalar IntersectionExampleScenario.node[4].nic.mac1609_4 	TooLittleTime 	0
scalar IntersectionExampleScenario.node[4].nic.mac1609_4 	TimesIntoBackoff 	0
scalar IntersectionExampleScenario.node[4].nic.mac1609_4 	SlotsBackoff 	0
scalar IntersectionExampleScenario.node[4].nic.mac1609_4 	NumInternalContention 	0
scalar IntersectionExampleScenario.node[4].nic.mac1609_4 	totalBusyTime 	0
scalar IntersectionExampleScenario.node[4].veinsmobility 	startTime 	17
scalar IntersectionExampleScenario.node[4].veinsmobility 	totalTime 	60.5
scalar IntersectionExampleScenario.node[4].veinsmobility 	stopTime 	77.75
scalar IntersectionExampleScenario.node[4].veinsmobility 	minSpeed 	0
scalar IntersectionExampleScenario.node[4].veinsmobility 	maxSpeed 	15.25
scalar IntersectionExampleScenario.node[4].veinsmobility 	totalDistance 	544.46377469451
scalar IntersectionExampleScenario.node[4].veinsmobility 	totalCO2Emission 	149.67524564102
scalar IntersectionExampleScenario.node[6].appl 	VehicleRemoved 	0
scalar IntersectionExampleScenario.node[6].appl 	ArrivedAtDest 	1
scalar IntersectionExampleScenario.node[6].appl 	IntersectionEnterTime 	28.75
scalar IntersectionExampleScenario.node[6].appl 	IntersectionExitTime 	63.371808980854
scalar IntersectionExampleScenario.node[6].appl 	NumberOfCollisions 	0
scalar IntersectionExampleScenario.node[6].nic.phy80211p 	busyTime 	0
scalar IntersectionExampleScenario.node[6].nic.mac1609_4 	ReceivedUnicastPackets 	0
scalar IntersectionExampleScenario.node[6].nic.mac1609_4 	ReceivedBroadcasts 	0
scalar IntersectionExampleScenario.node[6].nic.mac1609_4 	SentPackets 	0
scalar IntersectionExampleScenario.node[6].nic.mac1609_4 	SNIRLostPackets 	0
scalar IntersectionExampleScenario.node[6].nic.mac1609_4 	RXTXLostPackets 	0
scalar IntersectionExampleScenario.node[6].nic.mac1609_4 	TotalLostPackets 	0
scalar IntersectionExampleScenario.node[6].nic.mac1609_4 	DroppedPacketsInMac 	0
scalar IntersectionExampleScenario.node[6].nic.mac1609_4 	TooLittleTime 	0
scalar IntersectionExampleScenario.node[6].nic.mac1609_4 	TimesIntoBackoff 	0
scalar IntersectionExampleScenario.node[6].nic.mac1609_4 	SlotsBackoff 	0
scalar IntersectionExampleScenario.node[6].nic.mac1609_4 	NumInternalContention 	0
scalar IntersectionExampleScenario.node[6].nic.mac1609_4 	totalBusyTime 	0
scalar IntersectionExampleScenario.node[6].veinsmobility 	startTime 	28.75
scalar IntersectionExampleScenario.node[6].veinsmobility 	totalTime 	51.5
scalar IntersectionExampleScenario.node[6].veinsmobility 	stopTime 	80.5
scalar IntersectionExampleScenario.node[6].veinsmobility 	minSpeed 	0.77070152759552
scalar IntersectionExampleScenario.node[6].veinsmobility 	maxSpeed 	15.25
scalar IntersectionExampleScenario.node[6].veinsmobility 	totalDistance 	546.60716400514
scalar IntersectionExampleScenario.node[6].veinsmobility 	totalCO2Emission 	137.87880805897
scalar IntersectionExampleScenario.node[8].appl 	VehicleRemoved 	0
scalar IntersectionExampleScenario.node[8].appl 	ArrivedAtDest 	1
scalar IntersectionExampleScenario.node[8].appl 	IntersectionEnterTime 	31.5
scalar IntersectionExampleScenario.node[8].appl 	IntersectionExitTime 	65.029252080276
scalar IntersectionExampleScenario.node[8].appl 	NumberOfCollisions 	0
scalar IntersectionExampleScenario.node[8].nic.phy80211p 	busyTime 	0
scalar IntersectionExampleScenario.node[8].nic.mac1609_4 	ReceivedUnicastPackets 	0
scalar IntersectionExampleScenario.node[8].nic.mac1609_4 	ReceivedBroadcasts 	0
scalar IntersectionExampleScenario.node[8].nic.mac1609_4 	SentPackets 	0
scalar IntersectionExampleScenario.node[8].nic.mac1609_4 	SNIRLostPackets 	0
scalar IntersectionExampleScenario.node[8].nic.mac1609_4 	RXTXLostPackets 	0
scalar IntersectionExampleScenario.node[8].nic.mac1609_4 	TotalLostPackets 	0
scalar IntersectionExampleScenario.node[8].nic.mac1609_4 	DroppedPacketsInMac 	0
scalar IntersectionExampleScenario.node[8].nic.mac1609_4 	TooLittleTime 	0
scalar IntersectionExampleScenario.node[8].nic.mac1609_4 	TimesIntoBackoff 	0
scalar IntersectionExampleScenario.node[8].nic.mac1609_4 	SlotsBackoff 	0
scalar IntersectionExampleScenario.node[8].nic.mac1609_4 	NumInternalContention 	0
scalar IntersectionExampleScenario.node[8].nic.mac1609_4 	totalBusyTime 	0
scalar IntersectionExampleScenario.node[8].veinsmobility 	startTime 	31.5
scalar IntersectionExampleScenario.node[8].veinsmobility 	totalTime 	49
scalar IntersectionExampleScenario.node[8].veinsmobility 	stopTime 	80.75
scalar IntersectionExampleScenario.node[8].veinsmobility 	minSpeed 	3.0183601379395
scalar IntersectionExampleScenario.node[8].veinsmobility 	maxSpeed 	16.125
scalar IntersectionExampleScenario.node[8].veinsmobility 	totalDistance 	567.75918579102
scalar IntersectionExampleScenario.node[8].veinsmobility 	totalCO2Emission 	147.10400663329
scalar IntersectionExampleScenario.node[7].appl 	VehicleRemoved 	0
scalar IntersectionExampleScenario.node[7].appl 	ArrivedAtDest 	1
scalar IntersectionExampleScenario.node[7].appl 	IntersectionEnterTime 	29.25
scalar IntersectionExampleScenario.node[7].appl 	IntersectionExitTime 	68.297991909261
scalar IntersectionExampleScenario.node[7].appl 	NumberOfCollisions 	0
scalar IntersectionExampleScenario.node[7].nic.phy80211p 	busyTime 	0
scalar IntersectionExampleScenario.node[7].nic.mac1609_4 	ReceivedUnicastPackets 	0
scalar IntersectionExampleScenario.node[7].nic.mac1609_4 	ReceivedBroadcasts 	0
scalar IntersectionExampleScenario.node[7].nic.mac1609_4 	SentPackets 	0
scalar IntersectionExampleScenario.node[7].nic.mac1609_4 	SNIRLostPackets 	0
scalar IntersectionExampleScenario.node[7].nic.mac1609_4 	RXTXLostPackets 	0
scalar IntersectionExampleScenario.node[7].nic.mac1609_4 	TotalLostPackets 	0
scalar IntersectionExampleScenario.node[7].nic.mac1609_4 	DroppedPacketsInMac 	0
scalar IntersectionExampleScenario.node[7].nic.mac1609_4 	TooLittleTime 	0
scalar IntersectionExampleScenario.node[7].nic.mac1609_4 	TimesIntoBackoff 	0
scalar IntersectionExampleScenario.node[7].nic.mac1609_4 	SlotsBackoff 	0
scalar IntersectionExampleScenario.node[7].nic.mac1609_4 	NumInternalContention 	0
scalar IntersectionExampleScenario.node[7].nic.mac1609_4 	totalBusyTime 	0
scalar IntersectionExampleScenario.node[7].veinsmobility 	startTime 	29.25
scalar IntersectionExampleScenario.node[7].veinsmobility 	totalTime 	56
scalar IntersectionExampleScenario.node[7].veinsmobility 	stopTime 	85.5
scalar IntersectionExampleScenario.node[7].veinsmobility 	minSpeed 	0
scalar IntersectionExampleScenario.node[7].veinsmobility 	maxSpeed 	14.75
scalar IntersectionExampleScenario.node[7].veinsmobility 	totalDistance 	550.34266771426
scalar IntersectionExampleScenario.node[7].veinsmobility 	totalCO2Emission 	140.90280610606
scalar IntersectionExampleScenario.node[9].appl 	VehicleRemoved 	0
scalar IntersectionExampleScenario.node[9].appl 	ArrivedAtDest 	1
scalar IntersectionExampleScenario.node[9].appl 	IntersectionEnterTime 	34.5
scalar IntersectionExampleScenario.node[9].appl 	IntersectionExitTime 	69.26049598286
scalar IntersectionExampleScenario.node[9].appl 	NumberOfCollisions 	0
scalar IntersectionExampleScenario.node[9].nic.phy80211p 	busyTime 	0
scalar IntersectionExampleScenario.node[9].nic.mac1609_4 	ReceivedUnicastPackets 	0
scalar IntersectionExampleScenario.node[9].nic.mac1609_4 	ReceivedBroadcasts 	0
scalar IntersectionExampleScenario.node[9].nic.mac1609_4 	SentPackets 	0
scalar IntersectionExampleScenario.node[9].nic.mac1609_4 	SNIRLostPackets 	0
scalar IntersectionExampleScenario.node[9].nic.mac1609_4 	RXTXLostPackets 	0
scalar IntersectionExampleScenario.node[9].nic.mac1609_4 	TotalLostPackets 	0
scalar IntersectionExampleScenario.node[9].nic.mac1609_4 	DroppedPacketsInMac 	0
scalar IntersectionExampleScenario.node[9].nic.mac1609_4 	TooLittleTime 	0
scalar IntersectionExampleScenario.node[9].nic.mac1609_4 	TimesIntoBackoff 	0
scalar IntersectionExampleScenario.node[9].nic.mac1609_4 	SlotsBackoff 	0
scalar IntersectionExampleScenario.node[9].nic.mac1609_4 	NumInternalContention 	0
scalar IntersectionExampleScenario.node[9].nic.mac1609_4 	totalBusyTime 	0
scalar IntersectionExampleScenario.node[9].veinsmobility 	startTime 	34.5
scalar IntersectionExampleScenario.node[9].veinsmobility 	totalTime 	50.75
scalar IntersectionExampleScenario.node[9].veinsmobility 	stopTime 	85.5
scalar IntersectionExampleScenario.node[9].veinsmobility 	minSpeed 	0
scalar IntersectionExampleScenario.node[9].veinsmobility 	maxSpeed 	15.5
scalar IntersectionExampleScenario.node[9].veinsmobility 	totalDistance 	553.05271148682
scalar IntersectionExampleScenario.node[9].veinsmobility 	totalCO2Emission 	141.77472349869
scalar IntersectionExampleScenario.node[13].appl 	VehicleRemoved 	0
scalar IntersectionExampleScenario.node[13].appl 	ArrivedAtDest 	1
scalar IntersectionExampleScenario.node[13].appl 	IntersectionEnterTime 	43
scalar IntersectionExampleScenario.node[13].appl 	IntersectionExitTime 	71.566159947397
scalar IntersectionExampleScenario.node[13].appl 	NumberOfCollisions 	0
scalar IntersectionExampleScenario.node[13].nic.phy80211p 	busyTime 	0
scalar IntersectionExampleScenario.node[13].nic.mac1609_4 	ReceivedUnicastPackets 	0
scalar IntersectionExampleScenario.node[13].nic.mac1609_4 	ReceivedBroadcasts 	0
scalar IntersectionExampleScenario.node[13].nic.mac1609_4 	SentPackets 	0
scalar IntersectionExampleScenario.node[13].nic.mac1609_4 	SNIRLostPackets 	0
scalar IntersectionExampleScenario.node[13].nic.mac1609_4 	RXTXLostPackets 	0
scalar IntersectionExampleScenario.node[13].nic.mac1609_4 	TotalLostPackets 	0
scalar IntersectionExampleScenario.node[13].nic.mac1609_4 	DroppedPacketsInMac 	0
scalar IntersectionExampleScenario.node[13].nic.mac1609_4 	TooLittleTime 	0
scalar IntersectionExampleScenario.node[13].nic.mac1609_4 	TimesIntoBackoff 	0
scalar IntersectionExampleScenario.node[13].nic.mac1609_4 	SlotsBackoff 	0
scalar IntersectionExampleScenario.node[13].nic.mac1609_4 	NumInternalContention 	0
scalar IntersectionExampleScenario.node[13].nic.mac1609_4 	totalBusyTime 	0
scalar IntersectionExampleScenario.node[13].veinsmobility 	startTime 	43
scalar IntersectionExampleScenario.node[13].veinsmobility 	totalTime 	45
scalar IntersectionExampleScenario.node[13].veinsmobility 	stopTime 	88.25
scalar IntersectionExampleScenario.node[13].veinsmobility 	minSpeed 	4.6946606636047
scalar IntersectionExampleScenario.node[13].veinsmobility 	maxSpeed 	15.02499961853
scalar IntersectionExampleScenario.node[13].veinsmobility 	totalDistance 	553.24283599854
scalar IntersectionExampleScenario.node[13].veinsmobility 	totalCO2Emission 	128.14921158759
scalar IntersectionExampleScenario.node[14].appl 	VehicleRemoved 	0
scalar IntersectionExampleScenario.node[14].appl 	ArrivedAtDest 	1
scalar IntersectionExampleScenario.node[14].appl 	IntersectionEnterTime 	48.5
scalar IntersectionExampleScenario.node[14].appl 	IntersectionExitTime 	86.320097823336
scalar IntersectionExampleScenario.node[14].appl 	NumberOfCollisions 	0
scalar IntersectionExampleScenario.node[14].nic.phy80211p 	busyTime 	0
scalar IntersectionExampleScenario.node[14].nic.mac1609_4 	ReceivedUnicastPackets 	0
scalar IntersectionExampleScenario.node[14].nic.mac1609_4 	ReceivedBroadcasts 	0
scalar IntersectionExampleScenario.node[14].nic.mac1609_4 	SentPackets 	0
scalar IntersectionExampleScenario.node[14].nic.mac1609_4 	SNIRLostPackets 	0
scalar IntersectionExampleScenario.node[14].nic.mac1609_4 	RXTXLostPackets 	0
scalar IntersectionExampleScenario.node[14].nic.mac1609_4 	TotalLostPackets 	0
scalar IntersectionExampleScenario.node[14].nic.mac1609_4 	DroppedPacketsInMac 	0
scalar IntersectionExampleScenario.node[14].nic.mac1609_4 	TooLittleTime 	0
scalar IntersectionExampleScenario.node[14].nic.mac1609_4 	TimesIntoBackoff 	0
scalar IntersectionExampleScenario.node[14].nic.mac1609_4 	SlotsBackoff 	0
scalar IntersectionExampleScenario.node[14].nic.mac1609_4 	NumInternalContention 	0
scalar IntersectionExampleScenario.node[14].nic.mac1609_4 	totalBusyTime 	0
scalar IntersectionExampleScenario.node[14].veinsmobility 	startTime 	48.5
scalar IntersectionExampleScenario.node[14].veinsmobility 	totalTime 	53.25
scalar IntersectionExampleScenario.node[14].veinsmobility 	stopTime 	102
scalar IntersectionExampleScenario.node[14].veinsmobility 	minSpeed 	0
scalar IntersectionExampleScenario.node[14].veinsmobility 	maxSpeed 	16.27499961853
scalar IntersectionExampleScenario.node[14].veinsmobility 	totalDistance 	554.03341674805
scalar IntersectionExampleScenario.node[14].veinsmobility 	totalCO2Emission 	147.14096819511
scalar IntersectionExampleScenario.node[12].appl 	VehicleRemoved 	0
scalar IntersectionExampleScenario.node[12].appl 	ArrivedAtDest 	1
scalar IntersectionExampleScenario.node[12].appl 	IntersectionEnterTime 	40.25
scalar IntersectionExampleScenario.node[12].appl 	IntersectionExitTime 	84.543788222421
scalar IntersectionExampleScenario.node[12].appl 	NumberOfCollisions 	0
scalar IntersectionExampleScenario.node[12].nic.phy80211p 	busyTime 	0
scalar IntersectionExampleScenario.node[12].nic.mac1609_4 	ReceivedUnicastPackets 	0
scalar IntersectionExampleScenario.node[12].nic.mac1609_4 	ReceivedBroadcasts 	0
scalar IntersectionExampleScenario.node[12].nic.mac1609_4 	SentPackets 	0
scalar IntersectionExampleScenario.node[12].nic.mac1609_4 	SNIRLostPackets 	0
scalar IntersectionExampleScenario.node[12].nic.mac1609_4 	RXTXLostPackets 	0
scalar IntersectionExampleScenario.node[12].nic.mac1609_4 	TotalLostPackets 	0
scalar IntersectionExampleScenario.node[12].nic.mac1609_4 	DroppedPacketsInMac 	0
scalar IntersectionExampleScenario.node[12].nic.mac1609_4 	TooLittleTime 	0
scalar IntersectionExampleScenario.node[12].nic.mac1609_4 	TimesIntoBackoff 	0
scalar IntersectionExampleScenario.node[12].nic.mac1609_4 	SlotsBackoff 	0
scalar IntersectionExampleScenario.node[12].nic.mac1609_4 	NumInternalContention 	0
scalar IntersectionExampleScenario.node[12].nic.mac1609_4 	totalBusyTime 	0
scalar IntersectionExampleScenario.node[12].veinsmobility 	startTime 	40.25
scalar IntersectionExampleScenario.node[12].veinsmobility 	totalTime 	61.5
scalar IntersectionExampleScenario.node[12].veinsmobility 	stopTime 	102
scalar IntersectionExampleScenario.node[12].veinsmobility 	minSpeed 	0
scalar IntersectionExampleScenario.node[12].veinsmobility 	maxSpeed 	15.02499961853
scalar IntersectionExampleScenario.node[12].veinsmobility 	totalDistance 	543.13829709441
scalar IntersectionExampleScenario.node[12].veinsmobility 	totalCO2Emission 	148.09261469783
scalar IntersectionExampleScenario.node[18].appl 	VehicleRemoved 	0
scalar IntersectionExampleScenario.node[18].appl 	ArrivedAtDest 	1
scalar IntersectionExampleScenario.node[18].appl 	IntersectionEnterTime 	62
scalar IntersectionExampleScenario.node[18].appl 	IntersectionExitTime 	88.76992832878
scalar IntersectionExampleScenario.node[18].appl 	NumberOfCollisions 	0
scalar IntersectionExampleScenario.node[18].nic.phy80211p 	busyTime 	0
scalar IntersectionExampleScenario.node[18].nic.mac1609_4 	ReceivedUnicastPackets 	0
scalar IntersectionExampleScenario.node[18].nic.mac1609_4 	ReceivedBroadcasts 	0
scalar IntersectionExampleScenario.node[18].nic.mac1609_4 	SentPackets 	0
scalar IntersectionExampleScenario.node[18].nic.mac1609_4 	SNIRLostPackets 	0
scalar IntersectionExampleScenario.node[18].nic.mac1609_4 	RXTXLostPackets 	0
scalar IntersectionExampleScenario.node[18].nic.mac1609_4 	TotalLostPackets 	0
scalar IntersectionExampleScenario.node[18].nic.mac1609_4 	DroppedPacketsInMac 	0
scalar IntersectionExampleScenario.node[18].nic.mac1609_4 	TooLittleTime 	0
scalar IntersectionExampleScenario.node[18].nic.mac1609_4 	TimesIntoBackoff 	0
scalar IntersectionExampleScenario.node[18].nic.mac1609_4 	SlotsBackoff 	0
scalar IntersectionExampleScenario.node[18].nic.mac1609_4 	NumInternalContention 	0
scalar IntersectionExampleScenario.node[18].nic.mac1609_4 	totalBusyTime 	0
scalar IntersectionExampleScenario.node[18].veinsmobility 	startTime 	62
scalar IntersectionExampleScenario.node[18].veinsmobility 	totalTime 	43.25
scalar IntersectionExampleScenario.node[18].veinsmobility 	stopTime 	105.5
scalar IntersectionExampleScenario.node[18].veinsmobility 	minSpeed 	5.6500000953674
scalar IntersectionExampleScenario.node[18].veinsmobility 	maxSpeed 	15.02499961853
scalar IntersectionExampleScenario.node[18].veinsmobility 	totalDistance 	552.69017028809
scalar IntersectionExampleScenario.node[18].veinsmobility 	totalCO2Emission 	125.401713117
scalar IntersectionExampleScenario.node[10].appl 	VehicleRemoved 	0
scalar IntersectionExampleScenario.node[10].appl 	ArrivedAtDest 	1
scalar IntersectionExampleScenario.node[10].appl 	IntersectionEnterTime 	37.25
scalar IntersectionExampleScenario.node[10].appl 	IntersectionExitTime 	92.532799580687
scalar IntersectionExampleScenario.node[10].appl 	NumberOfCollisions 	0
scalar IntersectionExampleScenario.node[10].nic.phy80211p 	busyTime 	0
scalar IntersectionExampleScenario.node[10].nic.mac1609_4 	ReceivedUnicastPackets 	0
scalar IntersectionExampleScenario.node[10].nic.mac1609_4 	ReceivedBroadcasts 	0
scalar IntersectionExampleScenario.node[10].nic.mac1609_4 	SentPackets 	0
scalar IntersectionExampleScenario.node[10].nic.mac1609_4 	SNIRLostPackets 	0
scalar IntersectionExampleScenario.node[10].nic.mac1609_4 	RXTXLostPackets 	0
scalar IntersectionExampleScenario.node[10].nic.mac1609_4 	TotalLostPackets 	0
scalar IntersectionExampleScenario.node[10].nic.mac1609_4 	DroppedPacketsInMac 	0
scalar IntersectionExampleScenario.node[10].nic.mac1609_4 	TooLittleTime 	0
scalar IntersectionExampleScenario.node[10].nic.mac1609_4 	TimesIntoBackoff 	0
scalar IntersectionExampleScenario.node[10].nic.mac1609_4 	SlotsBackoff 	0
scalar IntersectionExampleScenario.node[10].nic.mac1609_4 	NumInternalContention 	0
scalar IntersectionExampleScenario.node[10].nic.mac1609_4 	totalBusyTime 	0
scalar IntersectionExampleScenario.node[10].veinsmobility 	startTime 	37.25
scalar IntersectionExampleScenario.node[10].veinsmobility 	totalTime 	72.75
scalar IntersectionExampleScenario.node[10].veinsmobility 	stopTime 	110.25
scalar IntersectionExampleScenario.node[10].veinsmobility 	minSpeed 	0
scalar IntersectionExampleScenario.node[10].veinsmobility 	maxSpeed 	15.02499961853
scalar IntersectionExampleScenario.node[10].veinsmobility 	totalDistance 	546.21670438201
scalar IntersectionExampleScenario.node[10].veinsmobility 	totalCO2Emission 	160.92324725139
scalar IntersectionExampleScenario.node[11].appl 	VehicleRemoved 	0
scalar IntersectionExampleScenario.node[11].appl 	ArrivedAtDest 	1
scalar IntersectionExampleScenario.node[11].appl 	IntersectionEnterTime 	38
scalar IntersectionExampleScenario.node[11].appl 	IntersectionExitTime 	94.253104141128
scalar IntersectionExampleScenario.node[11].appl 	NumberOfCollisions 	0
scalar IntersectionExampleScenario.node[11].nic.phy80211p 	busyTime 	0
scalar IntersectionExampleScenario.node[11].nic.mac1609_4 	ReceivedUnicastPackets 	0
scalar IntersectionExampleScenario.node[11].nic.mac1609_4 	ReceivedBroadcasts 	0
scalar IntersectionExampleScenario.node[11].nic.mac1609_4 	SentPackets 	0
scalar IntersectionExampleScenario.node[11].nic.mac1609_4 	SNIRLostPackets 	0
scalar IntersectionExampleScenario.node[11].nic.mac1609_4 	RXTXLostPackets 	0
scalar IntersectionExampleScenario.node[11].nic.mac1609_4 	TotalLostPackets 	0
scalar IntersectionExampleScenario.node[11].nic.mac1609_4 	DroppedPacketsInMac 	0
scalar IntersectionExampleScenario.node[11].nic.mac1609_4 	TooLittleTime 	0
scalar IntersectionExampleScenario.node[11].nic.mac1609_4 	TimesIntoBackoff 	0
scalar IntersectionExampleScenario.node[11].nic.mac1609_4 	SlotsBackoff 	0
scalar IntersectionExampleScenario.node[11].nic.mac1609_4 	NumInternalContention 	0
scalar IntersectionExampleScenario.node[11].nic.mac1609_4 	totalBusyTime 	0
scalar IntersectionExampleScenario.node[11].veinsmobility 	startTime 	38
scalar IntersectionExampleScenario.node[11].veinsmobility 	totalTime 	72.75
scalar IntersectionExampleScenario.node[11].veinsmobility 	stopTime 	111
scalar IntersectionExampleScenario.node[11].veinsmobility 	minSpeed 	0
scalar IntersectionExampleScenario.node[11].veinsmobility 	maxSpeed 	15.336415290833
scalar IntersectionExampleScenario.node[11].veinsmobility 	totalDistance 	575.32208768528
scalar IntersectionExampleScenario.node[11].veinsmobility 	totalCO2Emission 	172.4542994573
scalar IntersectionExampleScenario.node[15].appl 	VehicleRemoved 	0
scalar IntersectionExampleScenario.node[15].appl 	ArrivedAtDest 	1
scalar IntersectionExampleScenario.node[15].appl 	IntersectionEnterTime 	53
scalar IntersectionExampleScenario.node[15].appl 	IntersectionExitTime 	97.057809949707
scalar IntersectionExampleScenario.node[15].appl 	NumberOfCollisions 	0
scalar IntersectionExampleScenario.node[15].nic.phy80211p 	busyTime 	0
scalar IntersectionExampleScenario.node[15].nic.mac1609_4 	ReceivedUnicastPackets 	0
scalar IntersectionExampleScenario.node[15].nic.mac1609_4 	ReceivedBroadcasts 	0
scalar IntersectionExampleScenario.node[15].nic.mac1609_4 	SentPackets 	0
scalar IntersectionExampleScenario.node[15].nic.mac1609_4 	SNIRLostPackets 	0
scalar IntersectionExampleScenario.node[15].nic.mac1609_4 	RXTXLostPackets 	0
scalar IntersectionExampleScenario.node[15].nic.mac1609_4 	TotalLostPackets 	0
scalar IntersectionExampleScenario.node[15].nic.mac1609_4 	DroppedPacketsInMac 	0
scalar IntersectionExampleScenario.node[15].nic.mac1609_4 	TooLittleTime 	0
scalar IntersectionExampleScenario.node[15].nic.mac1609_4 	TimesIntoBackoff 	0
scalar IntersectionExampleScenario.node[15].nic.mac1609_4 	SlotsBackoff 	0
scalar IntersectionExampleScenario.node[15].nic.mac1609_4 	NumInternalContention 	0
scalar IntersectionExampleScenario.node[15].nic.mac1609_4 	totalBusyTime 	0
scalar IntersectionExampleScenario.node[15].veinsmobility 	startTime 	53
scalar IntersectionExampleScenario.node[15].veinsmobility 	totalTime 	60.5
scalar IntersectionExampleScenario.node[15].veinsmobility 	stopTime 	113.75
scalar IntersectionExampleScenario.node[15].veinsmobility 	minSpeed 	0
scalar IntersectionExampleScenario.node[15].veinsmobility 	maxSpeed 	15.64999961853
scalar IntersectionExampleScenario.node[15].veinsmobility 	totalDistance 	551.56543457118
scalar IntersectionExampleScenario.node[15].veinsmobility 	totalCO2Emission 	149.2279941493
scalar IntersectionExampleScenario.node[16].appl 	VehicleRemoved 	0
scalar IntersectionExampleScenario.node[16].appl 	ArrivedAtDest 	1
scalar IntersectionExampleScenario.node[16].appl 	IntersectionEnterTime 	59.25
scalar IntersectionExampleScenario.node[16].appl 	IntersectionExitTime 	100.30611782003
scalar IntersectionExampleScenario.node[16].appl 	NumberOfCollisions 	0
scalar IntersectionExampleScenario.node[16].nic.phy80211p 	busyTime 	0
scalar IntersectionExampleScenario.node[16].nic.mac1609_4 	ReceivedUnicastPackets 	0
scalar IntersectionExampleScenario.node[16].nic.mac1609_4 	ReceivedBroadcasts 	0
scalar IntersectionExampleScenario.node[16].nic.mac1609_4 	SentPackets 	0
scalar IntersectionExampleScenario.node[16].nic.mac1609_4 	SNIRLostPackets 	0
scalar IntersectionExampleScenario.node[16].nic.mac1609_4 	RXTXLostPackets 	0
scalar IntersectionExampleScenario.node[16].nic.mac1609_4 	TotalLostPackets 	0
scalar IntersectionExampleScenario.node[16].nic.mac1609_4 	DroppedPacketsInMac 	0
scalar IntersectionExampleScenario.node[16].nic.mac1609_4 	TooLittleTime 	0
scalar IntersectionExampleScenario.node[16].nic.mac1609_4 	TimesIntoBackoff 	0
scalar IntersectionExampleScenario.node[16].nic.mac1609_4 	SlotsBackoff 	0
scalar IntersectionExampleScenario.node[16].nic.mac1609_4 	NumInternalContention 	0
scalar IntersectionExampleScenario.node[16].nic.mac1609_4 	totalBusyTime 	0
scalar IntersectionExampleScenario.node[16].veinsmobility 	startTime 	59.25
scalar IntersectionExampleScenario.node[16].veinsmobility 	totalTime 	57.25
scalar IntersectionExampleScenario.node[16].veinsmobility 	stopTime 	116.75
scalar IntersectionExampleScenario.node[16].veinsmobility 	minSpeed 	0
scalar IntersectionExampleScenario.node[16].veinsmobility 	maxSpeed 	15.375
scalar IntersectionExampleScenario.node[16].veinsmobility 	totalDistance 	548.74360765567
scalar IntersectionExampleScenario.node[16].veinsmobility 	totalCO2Emission 	146.71427183564
scalar IntersectionExampleScenario.node[21].appl 	VehicleRemoved 	0
scalar IntersectionExampleScenario.node[21].appl 	ArrivedAtDest 	1
scalar IntersectionExampleScenario.node[21].appl 	IntersectionEnterTime 	67
scalar IntersectionExampleScenario.node[21].appl 	IntersectionExitTime 	101.30402243597
scalar IntersectionExampleScenario.node[21].appl 	NumberOfCollisions 	0
scalar IntersectionExampleScenario.node[21].nic.phy80211p 	busyTime 	0
scalar IntersectionExampleScenario.node[21].nic.mac1609_4 	ReceivedUnicastPackets 	0
scalar IntersectionExampleScenario.node[21].nic.mac1609_4 	ReceivedBroadcasts 	0
scalar IntersectionExampleScenario.node[21].nic.mac1609_4 	SentPackets 	0
scalar IntersectionExampleScenario.node[21].nic.mac1609_4 	SNIRLostPackets 	0
scalar IntersectionExampleScenario.node[21].nic.mac1609_4 	RXTXLostPackets 	0
scalar IntersectionExampleScenario.node[21].nic.mac1609_4 	TotalLostPackets 	0
scalar IntersectionExampleScenario.node[21].nic.mac1609_4 	DroppedPacketsInMac 	0
scalar IntersectionExampleScenario.node[21].nic.mac1609_4 	TooLittleTime 	0
scalar IntersectionExampleScenario.node[21].nic.mac1609_4 	TimesIntoBackoff 	0
scalar IntersectionExampleScenario.node[21].nic.mac1609_4 	SlotsBackoff 	0
scalar IntersectionExampleScenario.node[21].nic.mac1609_4 	NumInternalContention 	0
scalar IntersectionExampleScenario.node[21].nic.mac1609_4 	totalBusyTime 	0
scalar IntersectionExampleScenario.node[21].veinsmobility 	startTime 	67
scalar IntersectionExampleScenario.node[21].veinsmobility 	totalTime 	51
scalar IntersectionExampleScenario.node[21].veinsmobility 	stopTime 	118.25
scalar IntersectionExampleScenario.node[21].veinsmobility 	minSpeed 	0.95727372169495
scalar IntersectionExampleScenario.node[21].veinsmobility 	maxSpeed 	15.02499961853
scalar IntersectionExampleScenario.node[21].veinsmobility 	totalDistance 	553.78037261963
scalar IntersectionExampleScenario.node[21].veinsmobility 	totalCO2Emission 	134.53107808724
scalar IntersectionExampleScenario.node[27].appl 	VehicleRemoved 	0
scalar IntersectionExampleScenario.node[27].appl 	ArrivedAtDest 	1
scalar IntersectionExampleScenario.node[27].appl 	IntersectionEnterTime 	81
scalar IntersectionExampleScenario.node[27].appl 	IntersectionExitTime 	104.53849291839
scalar IntersectionExampleScenario.node[27].appl 	NumberOfCollisions 	0
scalar IntersectionExampleScenario.node[27].nic.phy80211p 	busyTime 	0
scalar IntersectionExampleScenario.node[27].nic.mac1609_4 	ReceivedUnicastPackets 	0
scalar IntersectionExampleScenario.node[27].nic.mac1609_4 	ReceivedBroadcasts 	0
scalar IntersectionExampleScenario.node[27].nic.mac1609_4 	SentPackets 	0
scalar IntersectionExampleScenario.node[27].nic.mac1609_4 	SNIRLostPackets 	0
scalar IntersectionExampleScenario.node[27].nic.mac1609_4 	RXTXLostPackets 	0
scalar IntersectionExampleScenario.node[27].nic.mac1609_4 	TotalLostPackets 	0
scalar IntersectionExampleScenario.node[27].nic.mac1609_4 	DroppedPacketsInMac 	0
scalar IntersectionExampleScenario.node[27].nic.mac1609_4 	TooLittleTime 	0
scalar IntersectionExampleScenario.node[27].nic.mac1609_4 	TimesIntoBackoff 	0
scalar IntersectionExampleScenario.node[27].nic.mac1609_4 	SlotsBackoff 	0
scalar IntersectionExampleScenario.node[27].nic.mac1609_4 	NumInternalContention 	0
scalar IntersectionExampleScenario.node[27].nic.mac1609_4 	totalBusyTime 	0
scalar IntersectionExampleScenario.node[27].veinsmobility 	startTime 	81
scalar IntersectionExampleScenario.node[27].veinsmobility 	totalTime 	38.75
scalar IntersectionExampleScenario.node[27].veinsmobility 	stopTime 	120
scalar IntersectionExampleScenario.node[27].veinsmobility 	minSpeed 	5.6500000953674
scalar IntersectionExampleScenario.node[27].veinsmobility 	maxSpeed 	16.89999961853
scalar IntersectionExampleScenario.node[27].veinsmobility 	totalDistance 	548.13092563226
scalar IntersectionExampleScenario.node[27].veinsmobility 	totalCO2Emission 	147.96824240483
scalar IntersectionExampleScenario.node[19].appl 	VehicleRemoved 	0
scalar IntersectionExampleScenario.node[19].appl 	ArrivedAtDest 	1
scalar IntersectionExampleScenario.node[19].appl 	IntersectionEnterTime 	63.25
scalar IntersectionExampleScenario.node[19].appl 	IntersectionExitTime 	109.27942214551
scalar IntersectionExampleScenario.node[19].appl 	NumberOfCollisions 	0
scalar IntersectionExampleScenario.node[19].nic.phy80211p 	busyTime 	0
scalar IntersectionExampleScenario.node[19].nic.mac1609_4 	ReceivedUnicastPackets 	0
scalar IntersectionExampleScenario.node[19].nic.mac1609_4 	ReceivedBroadcasts 	0
scalar IntersectionExampleScenario.node[19].nic.mac1609_4 	SentPackets 	0
scalar IntersectionExampleScenario.node[19].nic.mac1609_4 	SNIRLostPackets 	0
scalar IntersectionExampleScenario.node[19].nic.mac1609_4 	RXTXLostPackets 	0
scalar IntersectionExampleScenario.node[19].nic.mac1609_4 	TotalLostPackets 	0
scalar IntersectionExampleScenario.node[19].nic.mac1609_4 	DroppedPacketsInMac 	0
scalar IntersectionExampleScenario.node[19].nic.mac1609_4 	TooLittleTime 	0
scalar IntersectionExampleScenario.node[19].nic.mac1609_4 	TimesIntoBackoff 	0
scalar IntersectionExampleScenario.node[19].nic.mac1609_4 	SlotsBackoff 	0
scalar IntersectionExampleScenario.node[19].nic.mac1609_4 	NumInternalContention 	0
scalar IntersectionExampleScenario.node[19].nic.mac1609_4 	totalBusyTime 	0
scalar IntersectionExampleScenario.node[19].veinsmobility 	startTime 	63.25
scalar IntersectionExampleScenario.node[19].veinsmobility 	totalTime 	61.5
scalar IntersectionExampleScenario.node[19].veinsmobility 	stopTime 	125
scalar IntersectionExampleScenario.node[19].veinsmobility 	minSpeed 	0
scalar IntersectionExampleScenario.node[19].veinsmobility 	maxSpeed 	16.27499961853
scalar IntersectionExampleScenario.node[19].veinsmobility 	totalDistance 	551.43734741211
scalar IntersectionExampleScenario.node[19].veinsmobility 	totalCO2Emission 	158.36198212295
scalar IntersectionExampleScenario.node[22].appl 	VehicleRemoved 	0
scalar IntersectionExampleScenario.node[22].appl 	ArrivedAtDest 	1
scalar IntersectionExampleScenario.node[22].appl 	IntersectionEnterTime 	67.5
scalar IntersectionExampleScenario.node[22].appl 	IntersectionExitTime 	111.52887534269
scalar IntersectionExampleScenario.node[22].appl 	NumberOfCollisions 	0
scalar IntersectionExampleScenario.node[22].nic.phy80211p 	busyTime 	0
scalar IntersectionExampleScenario.node[22].nic.mac1609_4 	ReceivedUnicastPackets 	0
scalar IntersectionExampleScenario.node[22].nic.mac1609_4 	ReceivedBroadcasts 	0
scalar IntersectionExampleScenario.node[22].nic.mac1609_4 	SentPackets 	0
scalar IntersectionExampleScenario.node[22].nic.mac1609_4 	SNIRLostPackets 	0
scalar IntersectionExampleScenario.node[22].nic.mac1609_4 	RXTXLostPackets 	0
scalar IntersectionExampleScenario.node[22].nic.mac1609_4 	TotalLostPackets 	0
scalar IntersectionExampleScenario.node[22].nic.mac1609_4 	DroppedPacketsInMac 	0
scalar IntersectionExampleScenario.node[22].nic.mac1609_4 	TooLittleTime 	0
scalar IntersectionExampleScenario.node[22].nic.mac1609_4 	TimesIntoBackoff 	0
scalar IntersectionExampleScenario.node[22].nic.mac1609_4 	SlotsBackoff 	0
scalar IntersectionExampleScenario.node[22].nic.mac1609_4 	NumInternalContention 	0
scalar IntersectionExampleScenario.node[22].nic.mac1609_4 	totalBusyTime 	0
scalar IntersectionExampleScenario.node[22].veinsmobility 	startTime 	67.5
scalar IntersectionExampleScenario.node[22].veinsmobility 	totalTime 	60.25
scalar IntersectionExampleScenario.node[22].veinsmobility 	stopTime 	128
scalar IntersectionExampleScenario.node[22].veinsmobility 	minSpeed 	0
scalar IntersectionExampleScenario.node[22].veinsmobility 	maxSpeed 	15.458456993103
scalar IntersectionExampleScenario.node[22].veinsmobility 	totalDistance 	558.25883483887
scalar IntersectionExampleScenario.node[22].veinsmobility 	totalCO2Emission 	149.41765427961
scalar IntersectionExampleScenario.node[23].appl 	VehicleRemoved 	0
scalar IntersectionExampleScenario.node[23].appl 	ArrivedAtDest 	1
scalar IntersectionExampleScenario.node[23].appl 	IntersectionEnterTime 	70.5
scalar IntersectionExampleScenario.node[23].appl 	IntersectionExitTime 	113.54500724043
scalar IntersectionExampleScenario.node[23].appl 	NumberOfCollisions 	0
scalar IntersectionExampleScenario.node[23].nic.phy80211p 	busyTime 	0
scalar IntersectionExampleScenario.node[23].nic.mac1609_4 	ReceivedUnicastPackets 	0
scalar IntersectionExampleScenario.node[23].nic.mac1609_4 	ReceivedBroadcasts 	0
scalar IntersectionExampleScenario.node[23].nic.mac1609_4 	SentPackets 	0
scalar IntersectionExampleScenario.node[23].nic.mac1609_4 	SNIRLostPackets 	0
scalar IntersectionExampleScenario.node[23].nic.mac1609_4 	RXTXLostPackets 	0
scalar IntersectionExampleScenario.node[23].nic.mac1609_4 	TotalLostPackets 	0
scalar IntersectionExampleScenario.node[23].nic.mac1609_4 	DroppedPacketsInMac 	0
scalar IntersectionExampleScenario.node[23].nic.mac1609_4 	TooLittleTime 	0
scalar IntersectionExampleScenario.node[23].nic.mac1609_4 	TimesIntoBackoff 	0
scalar IntersectionExampleScenario.node[23].nic.mac1609_4 	SlotsBackoff 	0
scalar IntersectionExampleScenario.node[23].nic.mac1609_4 	NumInternalContention 	0
scalar IntersectionExampleScenario.node[23].nic.mac1609_4 	totalBusyTime 	0
scalar IntersectionExampleScenario.node[23].veinsmobility 	startTime 	70.5
scalar IntersectionExampleScenario.node[23].veinsmobility 	totalTime 	59
scalar IntersectionExampleScenario.node[23].veinsmobility 	stopTime 	129.75
scalar IntersectionExampleScenario.node[23].veinsmobility 	minSpeed 	0
scalar IntersectionExampleScenario.node[23].veinsmobility 	maxSpeed 	16
scalar IntersectionExampleScenario.node[23].veinsmobility 	totalDistance 	564.62998186993
scalar IntersectionExampleScenario.node[23].veinsmobility 	totalCO2Emission 	153.77687517054
scalar IntersectionExampleScenario.node[30].appl 	VehicleRemoved 	0
scalar IntersectionExampleScenario.node[30].appl 	ArrivedAtDest 	1
scalar IntersectionExampleScenario.node[30].appl 	IntersectionEnterTime 	85
scalar IntersectionExampleScenario.node[30].appl 	IntersectionExitTime 	116.85258140607
scalar IntersectionExampleScenario.node[30].appl 	NumberOfCollisions 	0
scalar IntersectionExampleScenario.node[30].nic.phy80211p 	busyTime 	0
scalar IntersectionExampleScenario.node[30].nic.mac1609_4 	ReceivedUnicastPackets 	0
scalar IntersectionExampleScenario.node[30].nic.mac1609_4 	ReceivedBroadcasts 	0
scalar IntersectionExampleScenario.node[30].nic.mac1609_4 	SentPackets 	0
scalar IntersectionExampleScenario.node[30].nic.mac1609_4 	SNIRLostPackets 	0
scalar IntersectionExampleScenario.node[30].nic.mac1609_4 	RXTXLostPackets 	0
scalar IntersectionExampleScenario.node[30].nic.mac1609_4 	TotalLostPackets 	0
scalar IntersectionExampleScenario.node[30].nic.mac1609_4 	DroppedPacketsInMac 	0
scalar IntersectionExampleScenario.node[30].nic.mac1609_4 	TooLittleTime 	0
scalar IntersectionExampleScenario.node[30].nic.mac1609_4 	TimesIntoBackoff 	0
scalar IntersectionExampleScenario.node[30].nic.mac1609_4 	SlotsBackoff 	0
scalar IntersectionExampleScenario.node[30].nic.mac1609_4 	NumInternalContention 	0
scalar IntersectionExampleScenario.node[30].nic.mac1609_4 	totalBusyTime 	0
scalar IntersectionExampleScenario.node[30].veinsmobility 	startTime 	85
scalar IntersectionExampleScenario.node[30].veinsmobility 	totalTime 	48.5
scalar IntersectionExampleScenario.node[30].veinsmobility 	stopTime 	133.75
scalar IntersectionExampleScenario.node[30].veinsmobility 	minSpeed 	0
scalar IntersectionExampleScenario.node[30].veinsmobility 	maxSpeed 	15.02499961853
scalar IntersectionExampleScenario.node[30].veinsmobility 	totalDistance 	550.0973294301
scalar IntersectionExampleScenario.node[30].veinsmobility 	totalCO2Emission 	136.08490990542
scalar IntersectionExampleScenario.node[35].appl 	VehicleRemoved 	0
scalar IntersectionExampleScenario.node[35].appl 	ArrivedAtDest 	1
scalar IntersectionExampleScenario.node[35].appl 	IntersectionEnterTime 	94.5
scalar IntersectionExampleScenario.node[35].appl 	IntersectionExitTime 	119.52573169212
scalar IntersectionExampleScenario.node[35].appl 	NumberOfCollisions 	0
scalar IntersectionExampleScenario.node[35].nic.phy80211p 	busyTime 	0
scalar IntersectionExampleScenario.node[35].nic.mac1609_4 	ReceivedUnicastPackets 	0
scalar IntersectionExampleScenario.node[35].nic.mac1609_4 	ReceivedBroadcasts 	0
scalar IntersectionExampleScenario.node[35].nic.mac1609_4 	SentPackets 	0
scalar IntersectionExampleScenario.node[35].nic.mac1609_4 	SNIRLostPackets 	0
scalar IntersectionExampleScenario.node[35].nic.mac1609_4 	RXTXLostPackets 	0
scalar IntersectionExampleScenario.node[35].nic.mac1609_4 	TotalLostPackets 	0
scalar IntersectionExampleScenario.node[35].nic.mac1609_4 	DroppedPacketsInMac 	0
scalar IntersectionExampleScenario.node[35].nic.mac1609_4 	TooLittleTime 	0
scalar IntersectionExampleScenario.node[35].nic.mac1609_4 	TimesIntoBackoff 	0
scalar IntersectionExampleScenario.node[35].nic.mac1609_4 	SlotsBackoff 	0
scalar IntersectionExampleScenario.node[35].nic.mac1609_4 	NumInternalContention 	0
scalar IntersectionExampleScenario.node[35].nic.mac1609_4 	totalBusyTime 	0
scalar IntersectionExampleScenario.node[35].veinsmobility 	startTime 	94.5
scalar IntersectionExampleScenario.node[35].veinsmobility 	totalTime 	41.25
scalar IntersectionExampleScenario.node[35].veinsmobility 	stopTime 	136
scalar IntersectionExampleScenario.node[35].veinsmobility 	minSpeed 	4.9339547157288
scalar IntersectionExampleScenario.node[35].veinsmobility 	maxSpeed 	15.317008018494
scalar IntersectionExampleScenario.node[35].veinsmobility 	totalDistance 	516.9261375093
scalar IntersectionExampleScenario.node[35].veinsmobility 	totalCO2Emission 	125.69271211029
scalar IntersectionExampleScenario.node[33].appl 	VehicleRemoved 	0
scalar IntersectionExampleScenario.node[33].appl 	ArrivedAtDest 	1
scalar IntersectionExampleScenario.node[33].appl 	IntersectionEnterTime 	92.25
scalar IntersectionExampleScenario.node[33].appl 	IntersectionExitTime 	122.35604531458
scalar IntersectionExampleScenario.node[33].appl 	NumberOfCollisions 	0
scalar IntersectionExampleScenario.node[33].nic.phy80211p 	busyTime 	0
scalar IntersectionExampleScenario.node[33].nic.mac1609_4 	ReceivedUnicastPackets 	0
scalar IntersectionExampleScenario.node[33].nic.mac1609_4 	ReceivedBroadcasts 	0
scalar IntersectionExampleScenario.node[33].nic.mac1609_4 	SentPackets 	0
scalar IntersectionExampleScenario.node[33].nic.mac1609_4 	SNIRLostPackets 	0
scalar IntersectionExampleScenario.node[33].nic.mac1609_4 	RXTXLostPackets 	0
scalar IntersectionExampleScenario.node[33].nic.mac1609_4 	TotalLostPackets 	0
scalar IntersectionExampleScenario.node[33].nic.mac1609_4 	DroppedPacketsInMac 	0
scalar IntersectionExampleScenario.node[33].nic.mac1609_4 	TooLittleTime 	0
scalar IntersectionExampleScenario.node[33].nic.mac1609_4 	TimesIntoBackoff 	0
scalar IntersectionExampleScenario.node[33].nic.mac1609_4 	SlotsBackoff 	0
scalar IntersectionExampleScenario.node[33].nic.mac1609_4 	NumInternalContention 	0
scalar IntersectionExampleScenario.node[33].nic.mac1609_4 	totalBusyTime 	0
scalar IntersectionExampleScenario.node[33].veinsmobility 	startTime 	92.25
scalar IntersectionExampleScenario.node[33].veinsmobility 	totalTime 	46.75
scalar IntersectionExampleScenario.node[33].veinsmobility 	stopTime 	139.25
scalar IntersectionExampleScenario.node[33].veinsmobility 	minSpeed 	4.477578163147
scalar IntersectionExampleScenario.node[33].veinsmobility 	maxSpeed 	15.612023353577
scalar IntersectionExampleScenario.node[33].veinsmobility 	totalDistance 	545.33358755807
scalar IntersectionExampleScenario.node[33].veinsmobility 	totalCO2Emission 	154.96914216759
scalar IntersectionExampleScenario.node[17].appl 	VehicleRemoved 	0
scalar IntersectionExampleScenario.node[17].appl 	ArrivedAtDest 	1
scalar IntersectionExampleScenario.node[17].appl 	IntersectionEnterTime 	60.5
scalar IntersectionExampleScenario.node[17].appl 	IntersectionExitTime 	125.25251203042
scalar IntersectionExampleScenario.node[17].appl 	NumberOfCollisions 	0
scalar IntersectionExampleScenario.node[17].nic.phy80211p 	busyTime 	0
scalar IntersectionExampleScenario.node[17].nic.mac1609_4 	ReceivedUnicastPackets 	0
scalar IntersectionExampleScenario.node[17].nic.mac1609_4 	ReceivedBroadcasts 	0
scalar IntersectionExampleScenario.node[17].nic.mac1609_4 	SentPackets 	0
scalar IntersectionExampleScenario.node[17].nic.mac1609_4 	SNIRLostPackets 	0
scalar IntersectionExampleScenario.node[17].nic.mac1609_4 	RXTXLostPackets 	0
scalar IntersectionExampleScenario.node[17].nic.mac1609_4 	TotalLostPackets 	0
scalar IntersectionExampleScenario.node[17].nic.mac1609_4 	DroppedPacketsInMac 	0
scalar IntersectionExampleScenario.node[17].nic.mac1609_4 	TooLittleTime 	0
scalar IntersectionExampleScenario.node[17].nic.mac1609_4 	TimesIntoBackoff 	0
scalar IntersectionExampleScenario.node[17].nic.mac1609_4 	SlotsBackoff 	0
scalar IntersectionExampleScenario.node[17].nic.mac1609_4 	NumInternalContention 	0
scalar IntersectionExampleScenario.node[17].nic.mac1609_4 	totalBusyTime 	0
scalar IntersectionExampleScenario.node[17].veinsmobility 	startTime 	60.5
scalar IntersectionExampleScenario.node[17].veinsmobility 	totalTime 	80
scalar IntersectionExampleScenario.node[17].veinsmobility 	stopTime 	140.75
scalar IntersectionExampleScenario.node[17].veinsmobility 	minSpeed 	0
scalar IntersectionExampleScenario.node[17].veinsmobility 	maxSpeed 	16.354887008667
scalar IntersectionExampleScenario.node[17].veinsmobility 	totalDistance 	554.34342193604
scalar IntersectionExampleScenario.node[17].veinsmobility 	totalCO2Emission 	184.80881116828
scalar IntersectionExampleScenario.node[20].appl 	VehicleRemoved 	0
scalar IntersectionExampleScenario.node[20].appl 	ArrivedAtDest 	1
scalar IntersectionExampleScenario.node[20].appl 	IntersectionEnterTime 	66.75
scalar IntersectionExampleScenario.node[20].appl 	IntersectionExitTime 	127.60319402439
scalar IntersectionExampleScenario.node[20].appl 	NumberOfCollisions 	0
scalar IntersectionExampleScenario.node[20].nic.phy80211p 	busyTime 	0
scalar IntersectionExampleScenario.node[20].nic.mac1609_4 	ReceivedUnicastPackets 	0
scalar IntersectionExampleScenario.node[20].nic.mac1609_4 	ReceivedBroadcasts 	0
scalar IntersectionExampleScenario.node[20].nic.mac1609_4 	SentPackets 	0
scalar IntersectionExampleScenario.node[20].nic.mac1609_4 	SNIRLostPackets 	0
scalar IntersectionExampleScenario.node[20].nic.mac1609_4 	RXTXLostPackets 	0
scalar IntersectionExampleScenario.node[20].nic.mac1609_4 	TotalLostPackets 	0
scalar IntersectionExampleScenario.node[20].nic.mac1609_4 	DroppedPacketsInMac 	0
scalar IntersectionExampleScenario.node[20].nic.mac1609_4 	TooLittleTime 	0
scalar IntersectionExampleScenario.node[20].nic.mac1609_4 	TimesIntoBackoff 	0
scalar IntersectionExampleScenario.node[20].nic.mac1609_4 	SlotsBackoff 	0
scalar IntersectionExampleScenario.node[20].nic.mac1609_4 	NumInternalContention 	0
scalar IntersectionExampleScenario.node[20].nic.mac1609_4 	totalBusyTime 	0
scalar IntersectionExampleScenario.node[20].veinsmobility 	startTime 	66.75
scalar IntersectionExampleScenario.node[20].veinsmobility 	totalTime 	76.25
scalar IntersectionExampleScenario.node[20].veinsmobility 	stopTime 	143.25
scalar IntersectionExampleScenario.node[20].veinsmobility 	minSpeed 	0
scalar IntersectionExampleScenario.node[20].veinsmobility 	maxSpeed 	16.125
scalar IntersectionExampleScenario.node[20].veinsmobility 	totalDistance 	550.94699859619
scalar IntersectionExampleScenario.node[20].veinsmobility 	totalCO2Emission 	171.24172479232
scalar IntersectionExampleScenario.node[24].appl 	VehicleRemoved 	0
scalar IntersectionExampleScenario.node[24].appl 	ArrivedAtDest 	1
scalar IntersectionExampleScenario.node[24].appl 	IntersectionEnterTime 	72.75
scalar IntersectionExampleScenario.node[24].appl 	IntersectionExitTime 	129.61305124563
scalar IntersectionExampleScenario.node[24].appl 	NumberOfCollisions 	0
scalar IntersectionExampleScenario.node[24].nic.phy80211p 	busyTime 	0
scalar IntersectionExampleScenario.node[24].nic.mac1609_4 	ReceivedUnicastPackets 	0
scalar IntersectionExampleScenario.node[24].nic.mac1609_4 	ReceivedBroadcasts 	0
scalar IntersectionExampleScenario.node[24].nic.mac1609_4 	SentPackets 	0
scalar IntersectionExampleScenario.node[24].nic.mac1609_4 	SNIRLostPackets 	0
scalar IntersectionExampleScenario.node[24].nic.mac1609_4 	RXTXLostPackets 	0
scalar IntersectionExampleScenario.node[24].nic.mac1609_4 	TotalLostPackets 	0
scalar IntersectionExampleScenario.node[24].nic.mac1609_4 	DroppedPacketsInMac 	0
scalar IntersectionExampleScenario.node[24].nic.mac1609_4 	TooLittleTime 	0
scalar IntersectionExampleScenario.node[24].nic.mac1609_4 	TimesIntoBackoff 	0
scalar IntersectionExampleScenario.node[24].nic.mac1609_4 	SlotsBackoff 	0
scalar IntersectionExampleScenario.node[24].nic.mac1609_4 	NumInternalContention 	0
scalar IntersectionExampleScenario.node[24].nic.mac1609_4 	totalBusyTime 	0
scalar IntersectionExampleScenario.node[24].veinsmobility 	startTime 	72.75
scalar IntersectionExampleScenario.node[24].veinsmobility 	totalTime 	73
scalar IntersectionExampleScenario.node[24].veinsmobility 	stopTime 	146
scalar IntersectionExampleScenario.node[24].veinsmobility 	minSpeed 	0
scalar IntersectionExampleScenario.node[24].veinsmobility 	maxSpeed 	16.5
scalar IntersectionExampleScenario.node[24].veinsmobility 	totalDistance 	546.15158247931
scalar IntersectionExampleScenario.node[24].veinsmobility 	totalCO2Emission 	168.84230135913
scalar IntersectionExampleScenario.node[36].appl 	VehicleRemoved 	0
scalar IntersectionExampleScenario.node[36].appl 	ArrivedAtDest 	1
scalar IntersectionExampleScenario.node[36].appl 	IntersectionEnterTime 	96.25
scalar IntersectionExampleScenario.node[36].appl 	IntersectionExitTime 	133.27657358494
scalar IntersectionExampleScenario.node[36].appl 	NumberOfCollisions 	0
scalar IntersectionExampleScenario.node[36].nic.phy80211p 	busyTime 	0
scalar IntersectionExampleScenario.node[36].nic.mac1609_4 	ReceivedUnicastPackets 	0
scalar IntersectionExampleScenario.node[36].nic.mac1609_4 	ReceivedBroadcasts 	0
scalar IntersectionExampleScenario.node[36].nic.mac1609_4 	SentPackets 	0
scalar IntersectionExampleScenario.node[36].nic.mac1609_4 	SNIRLostPackets 	0
scalar IntersectionExampleScenario.node[36].nic.mac1609_4 	RXTXLostPackets 	0
scalar IntersectionExampleScenario.node[36].nic.mac1609_4 	TotalLostPackets 	0
scalar IntersectionExampleScenario.node[36].nic.mac1609_4 	DroppedPacketsInMac 	0
scalar IntersectionExampleScenario.node[36].nic.mac1609_4 	TooLittleTime 	0
scalar IntersectionExampleScenario.node[36].nic.mac1609_4 	TimesIntoBackoff 	0
scalar IntersectionExampleScenario.node[36].nic.mac1609_4 	SlotsBackoff 	0
scalar IntersectionExampleScenario.node[36].nic.mac1609_4 	NumInternalContention 	0
scalar IntersectionExampleScenario.node[36].nic.mac1609_4 	totalBusyTime 	0
scalar IntersectionExampleScenario.node[36].veinsmobility 	startTime 	96.25
scalar IntersectionExampleScenario.node[36].veinsmobility 	totalTime 	52.5
scalar IntersectionExampleScenario.node[36].veinsmobility 	stopTime 	149
scalar IntersectionExampleScenario.node[36].veinsmobility 	minSpeed 	0
scalar IntersectionExampleScenario.node[36].veinsmobility 	maxSpeed 	16.125
scalar IntersectionExampleScenario.node[36].veinsmobility 	totalDistance 	553.83194732666
scalar IntersectionExampleScenario.node[36].veinsmobility 	totalCO2Emission 	148.65806023551
scalar IntersectionExampleScenario.node[32].appl 	VehicleRemoved 	0
scalar IntersectionExampleScenario.node[32].appl 	ArrivedAtDest 	1
scalar IntersectionExampleScenario.node[32].appl 	IntersectionEnterTime 	90.25
scalar IntersectionExampleScenario.node[32].appl 	IntersectionExitTime 	131.58611170627
scalar IntersectionExampleScenario.node[32].appl 	NumberOfCollisions 	0
scalar IntersectionExampleScenario.node[32].nic.phy80211p 	busyTime 	0
scalar IntersectionExampleScenario.node[32].nic.mac1609_4 	ReceivedUnicastPackets 	0
scalar IntersectionExampleScenario.node[32].nic.mac1609_4 	ReceivedBroadcasts 	0
scalar IntersectionExampleScenario.node[32].nic.mac1609_4 	SentPackets 	0
scalar IntersectionExampleScenario.node[32].nic.mac1609_4 	SNIRLostPackets 	0
scalar IntersectionExampleScenario.node[32].nic.mac1609_4 	RXTXLostPackets 	0
scalar IntersectionExampleScenario.node[32].nic.mac1609_4 	TotalLostPackets 	0
scalar IntersectionExampleScenario.node[32].nic.mac1609_4 	DroppedPacketsInMac 	0
scalar IntersectionExampleScenario.node[32].nic.mac1609_4 	TooLittleTime 	0
scalar IntersectionExampleScenario.node[32].nic.mac1609_4 	TimesIntoBackoff 	0
scalar IntersectionExampleScenario.node[32].nic.mac1609_4 	SlotsBackoff 	0
scalar IntersectionExampleScenario.node[32].nic.mac1609_4 	NumInternalContention 	0
scalar IntersectionExampleScenario.node[32].nic.mac1609_4 	totalBusyTime 	0
scalar IntersectionExampleScenario.node[32].veinsmobility 	startTime 	90.25
scalar IntersectionExampleScenario.node[32].veinsmobility 	totalTime 	58.75
scalar IntersectionExampleScenario.node[32].veinsmobility 	stopTime 	149.25
scalar IntersectionExampleScenario.node[32].veinsmobility 	minSpeed 	0
scalar IntersectionExampleScenario.node[32].veinsmobility 	maxSpeed 	15.02499961853
scalar IntersectionExampleScenario.node[32].veinsmobility 	totalDistance 	546.21665860564
scalar IntersectionExampleScenario.node[32].veinsmobility 	totalCO2Emission 	145.34430538394
scalar IntersectionExampleScenario.node[44].appl 	VehicleRemoved 	0
scalar IntersectionExampleScenario.node[44].appl 	ArrivedAtDest 	1
scalar IntersectionExampleScenario.node[44].appl 	IntersectionEnterTime 	108
scalar IntersectionExampleScenario.node[44].appl 	IntersectionExitTime 	135.52777421041
scalar IntersectionExampleScenario.node[44].appl 	NumberOfCollisions 	0
scalar IntersectionExampleScenario.node[44].nic.phy80211p 	busyTime 	0
scalar IntersectionExampleScenario.node[44].nic.mac1609_4 	ReceivedUnicastPackets 	0
scalar IntersectionExampleScenario.node[44].nic.mac1609_4 	ReceivedBroadcasts 	0
scalar IntersectionExampleScenario.node[44].nic.mac1609_4 	SentPackets 	0
scalar IntersectionExampleScenario.node[44].nic.mac1609_4 	SNIRLostPackets 	0
scalar IntersectionExampleScenario.node[44].nic.mac1609_4 	RXTXLostPackets 	0
scalar IntersectionExampleScenario.node[44].nic.mac1609_4 	TotalLostPackets 	0
scalar IntersectionExampleScenario.node[44].nic.mac1609_4 	DroppedPacketsInMac 	0
scalar IntersectionExampleScenario.node[44].nic.mac1609_4 	TooLittleTime 	0
scalar IntersectionExampleScenario.node[44].nic.mac1609_4 	TimesIntoBackoff 	0
scalar IntersectionExampleScenario.node[44].nic.mac1609_4 	SlotsBackoff 	0
scalar IntersectionExampleScenario.node[44].nic.mac1609_4 	NumInternalContention 	0
scalar IntersectionExampleScenario.node[44].nic.mac1609_4 	totalBusyTime 	0
scalar IntersectionExampleScenario.node[44].veinsmobility 	startTime 	108
scalar IntersectionExampleScenario.node[44].veinsmobility 	totalTime 	44.5
scalar IntersectionExampleScenario.node[44].veinsmobility 	stopTime 	152.75
scalar IntersectionExampleScenario.node[44].veinsmobility 	minSpeed 	5.4044661521912
scalar IntersectionExampleScenario.node[44].veinsmobility 	maxSpeed 	15.02499961853
scalar IntersectionExampleScenario.node[44].veinsmobility 	totalDistance 	545.97565509827
scalar IntersectionExampleScenario.node[44].veinsmobility 	totalCO2Emission 	136.96623943771
scalar IntersectionExampleScenario.node[48].appl 	VehicleRemoved 	0
scalar IntersectionExampleScenario.node[48].appl 	ArrivedAtDest 	1
scalar IntersectionExampleScenario.node[48].appl 	IntersectionEnterTime 	116.5
scalar IntersectionExampleScenario.node[48].appl 	IntersectionExitTime 	139.25655402153
scalar IntersectionExampleScenario.node[48].appl 	NumberOfCollisions 	0
scalar IntersectionExampleScenario.node[48].nic.phy80211p 	busyTime 	0
scalar IntersectionExampleScenario.node[48].nic.mac1609_4 	ReceivedUnicastPackets 	0
scalar IntersectionExampleScenario.node[48].nic.mac1609_4 	ReceivedBroadcasts 	0
scalar IntersectionExampleScenario.node[48].nic.mac1609_4 	SentPackets 	0
scalar IntersectionExampleScenario.node[48].nic.mac1609_4 	SNIRLostPackets 	0
scalar IntersectionExampleScenario.node[48].nic.mac1609_4 	RXTXLostPackets 	0
scalar IntersectionExampleScenario.node[48].nic.mac1609_4 	TotalLostPackets 	0
scalar IntersectionExampleScenario.node[48].nic.mac1609_4 	DroppedPacketsInMac 	0
scalar IntersectionExampleScenario.node[48].nic.mac1609_4 	TooLittleTime 	0
scalar IntersectionExampleScenario.node[48].nic.mac1609_4 	TimesIntoBackoff 	0
scalar IntersectionExampleScenario.node[48].nic.mac1609_4 	SlotsBackoff 	0
scalar IntersectionExampleScenario.node[48].nic.mac1609_4 	NumInternalContention 	0
scalar IntersectionExampleScenario.node[48].nic.mac1609_4 	totalBusyTime 	0
scalar IntersectionExampleScenario.node[48].veinsmobility 	startTime 	116.5
scalar IntersectionExampleScenario.node[48].veinsmobility 	totalTime 	38.25
scalar IntersectionExampleScenario.node[48].veinsmobility 	stopTime 	155
scalar IntersectionExampleScenario.node[48].veinsmobility 	minSpeed 	5.6500000953674
scalar IntersectionExampleScenario.node[48].veinsmobility 	maxSpeed 	16.125
scalar IntersectionExampleScenario.node[48].veinsmobility 	totalDistance 	551.50833892822
scalar IntersectionExampleScenario.node[48].veinsmobility 	totalCO2Emission 	125.92021724515
scalar IntersectionExampleScenario.node[26].appl 	VehicleRemoved 	0
scalar IntersectionExampleScenario.node[26].appl 	ArrivedAtDest 	1
scalar IntersectionExampleScenario.node[26].appl 	IntersectionEnterTime 	80.5
scalar IntersectionExampleScenario.node[26].appl 	IntersectionExitTime 	140.54168741571
scalar IntersectionExampleScenario.node[26].appl 	NumberOfCollisions 	0
scalar IntersectionExampleScenario.node[26].nic.phy80211p 	busyTime 	0
scalar IntersectionExampleScenario.node[26].nic.mac1609_4 	ReceivedUnicastPackets 	0
scalar IntersectionExampleScenario.node[26].nic.mac1609_4 	ReceivedBroadcasts 	0
scalar IntersectionExampleScenario.node[26].nic.mac1609_4 	SentPackets 	0
scalar IntersectionExampleScenario.node[26].nic.mac1609_4 	SNIRLostPackets 	0
scalar IntersectionExampleScenario.node[26].nic.mac1609_4 	RXTXLostPackets 	0
scalar IntersectionExampleScenario.node[26].nic.mac1609_4 	TotalLostPackets 	0
scalar IntersectionExampleScenario.node[26].nic.mac1609_4 	DroppedPacketsInMac 	0
scalar IntersectionExampleScenario.node[26].nic.mac1609_4 	TooLittleTime 	0
scalar IntersectionExampleScenario.node[26].nic.mac1609_4 	TimesIntoBackoff 	0
scalar IntersectionExampleScenario.node[26].nic.mac1609_4 	SlotsBackoff 	0
scalar IntersectionExampleScenario.node[26].nic.mac1609_4 	NumInternalContention 	0
scalar IntersectionExampleScenario.node[26].nic.mac1609_4 	totalBusyTime 	0
scalar IntersectionExampleScenario.node[26].veinsmobility 	startTime 	80.5
scalar IntersectionExampleScenario.node[26].veinsmobility 	totalTime 	76.75
scalar IntersectionExampleScenario.node[26].veinsmobility 	stopTime 	157.5
scalar IntersectionExampleScenario.node[26].veinsmobility 	minSpeed 	0
scalar IntersectionExampleScenario.node[26].veinsmobility 	maxSpeed 	15.64999961853
scalar IntersectionExampleScenario.node[26].veinsmobility 	totalDistance 	543.8990545407
scalar IntersectionExampleScenario.node[26].veinsmobility 	totalCO2Emission 	169.61016739568
scalar IntersectionExampleScenario.node[29].appl 	VehicleRemoved 	0
scalar IntersectionExampleScenario.node[29].appl 	ArrivedAtDest 	1
scalar IntersectionExampleScenario.node[29].appl 	IntersectionEnterTime 	85
scalar IntersectionExampleScenario.node[29].appl 	IntersectionExitTime 	142.37326248791
scalar IntersectionExampleScenario.node[29].appl 	NumberOfCollisions 	0
scalar IntersectionExampleScenario.node[29].nic.phy80211p 	busyTime 	0
scalar IntersectionExampleScenario.node[29].nic.mac1609_4 	ReceivedUnicastPackets 	0
scalar IntersectionExampleScenario.node[29].nic.mac1609_4 	ReceivedBroadcasts 	0
scalar IntersectionExampleScenario.node[29].nic.mac1609_4 	SentPackets 	0
scalar IntersectionExampleScenario.node[29].nic.mac1609_4 	SNIRLostPackets 	0
scalar IntersectionExampleScenario.node[29].nic.mac1609_4 	RXTXLostPackets 	0
scalar IntersectionExampleScenario.node[29].nic.mac1609_4 	TotalLostPackets 	0
scalar IntersectionExampleScenario.node[29].nic.mac1609_4 	DroppedPacketsInMac 	0
scalar IntersectionExampleScenario.node[29].nic.mac1609_4 	TooLittleTime 	0
scalar IntersectionExampleScenario.node[29].nic.mac1609_4 	TimesIntoBackoff 	0
scalar IntersectionExampleScenario.node[29].nic.mac1609_4 	SlotsBackoff 	0
scalar IntersectionExampleScenario.node[29].nic.mac1609_4 	NumInternalContention 	0
scalar IntersectionExampleScenario.node[29].nic.mac1609_4 	totalBusyTime 	0
scalar IntersectionExampleScenario.node[29].veinsmobility 	startTime 	85
scalar IntersectionExampleScenario.node[29].veinsmobility 	totalTime 	73.5
scalar IntersectionExampleScenario.node[29].veinsmobility 	stopTime 	158.75
scalar IntersectionExampleScenario.node[29].veinsmobility 	minSpeed 	0
scalar IntersectionExampleScenario.node[29].veinsmobility 	maxSpeed 	15.64999961853
scalar IntersectionExampleScenario.node[29].veinsmobility 	totalDistance 	525.91760040293
scalar IntersectionExampleScenario.node[29].veinsmobility 	totalCO2Emission 	168.40954370293
scalar IntersectionExampleScenario.node[28].appl 	VehicleRemoved 	0
scalar IntersectionExampleScenario.node[28].appl 	ArrivedAtDest 	1
scalar IntersectionExampleScenario.node[28].appl 	IntersectionEnterTime 	84.25
scalar IntersectionExampleScenario.node[28].appl 	IntersectionExitTime 	144.86349833847
scalar IntersectionExampleScenario.node[28].appl 	NumberOfCollisions 	0
scalar IntersectionExampleScenario.node[28].nic.phy80211p 	busyTime 	0
scalar IntersectionExampleScenario.node[28].nic.mac1609_4 	ReceivedUnicastPackets 	0
scalar IntersectionExampleScenario.node[28].nic.mac1609_4 	ReceivedBroadcasts 	0
scalar IntersectionExampleScenario.node[28].nic.mac1609_4 	SentPackets 	0
scalar IntersectionExampleScenario.node[28].nic.mac1609_4 	SNIRLostPackets 	0
scalar IntersectionExampleScenario.node[28].nic.mac1609_4 	RXTXLostPackets 	0
scalar IntersectionExampleScenario.node[28].nic.mac1609_4 	TotalLostPackets 	0
scalar IntersectionExampleScenario.node[28].nic.mac1609_4 	DroppedPacketsInMac 	0
scalar IntersectionExampleScenario.node[28].nic.mac1609_4 	TooLittleTime 	0
scalar IntersectionExampleScenario.node[28].nic.mac1609_4 	TimesIntoBackoff 	0
scalar IntersectionExampleScenario.node[28].nic.mac1609_4 	SlotsBackoff 	0
scalar IntersectionExampleScenario.node[28].nic.mac1609_4 	NumInternalContention 	0
scalar IntersectionExampleScenario.node[28].nic.mac1609_4 	totalBusyTime 	0
scalar IntersectionExampleScenario.node[28].veinsmobility 	startTime 	84.25
scalar IntersectionExampleScenario.node[28].veinsmobility 	totalTime 	76.75
scalar IntersectionExampleScenario.node[28].veinsmobility 	stopTime 	161.25
scalar IntersectionExampleScenario.node[28].veinsmobility 	minSpeed 	-0.2562255859375
scalar IntersectionExampleScenario.node[28].veinsmobility 	maxSpeed 	15.5
scalar IntersectionExampleScenario.node[28].veinsmobility 	totalDistance 	560.49833679199
scalar IntersectionExampleScenario.node[28].veinsmobility 	totalCO2Emission 	168.46103886655
scalar IntersectionExampleScenario.node[31].appl 	VehicleRemoved 	0
scalar IntersectionExampleScenario.node[31].appl 	ArrivedAtDest 	1
scalar IntersectionExampleScenario.node[31].appl 	IntersectionEnterTime 	85.25
scalar IntersectionExampleScenario.node[31].appl 	IntersectionExitTime 	147.27030948593
scalar IntersectionExampleScenario.node[31].appl 	NumberOfCollisions 	0
scalar IntersectionExampleScenario.node[31].nic.phy80211p 	busyTime 	0
scalar IntersectionExampleScenario.node[31].nic.mac1609_4 	ReceivedUnicastPackets 	0
scalar IntersectionExampleScenario.node[31].nic.mac1609_4 	ReceivedBroadcasts 	0
scalar IntersectionExampleScenario.node[31].nic.mac1609_4 	SentPackets 	0
scalar IntersectionExampleScenario.node[31].nic.mac1609_4 	SNIRLostPackets 	0
scalar IntersectionExampleScenario.node[31].nic.mac1609_4 	RXTXLostPackets 	0
scalar IntersectionExampleScenario.node[31].nic.mac1609_4 	TotalLostPackets 	0
scalar IntersectionExampleScenario.node[31].nic.mac1609_4 	DroppedPacketsInMac 	0
scalar IntersectionExampleScenario.node[31].nic.mac1609_4 	TooLittleTime 	0
scalar IntersectionExampleScenario.node[31].nic.mac1609_4 	TimesIntoBackoff 	0
scalar IntersectionExampleScenario.node[31].nic.mac1609_4 	SlotsBackoff 	0
scalar IntersectionExampleScenario.node[31].nic.mac1609_4 	NumInternalContention 	0
scalar IntersectionExampleScenario.node[31].nic.mac1609_4 	totalBusyTime 	0
scalar IntersectionExampleScenario.node[31].veinsmobility 	startTime 	85.25
scalar IntersectionExampleScenario.node[31].veinsmobility 	totalTime 	78
scalar IntersectionExampleScenario.node[31].veinsmobility 	stopTime 	163.5
scalar IntersectionExampleScenario.node[31].veinsmobility 	minSpeed 	-0.28430622816086
scalar IntersectionExampleScenario.node[31].veinsmobility 	maxSpeed 	15.58797454834
scalar IntersectionExampleScenario.node[31].veinsmobility 	totalDistance 	580.77938842913
scalar IntersectionExampleScenario.node[31].veinsmobility 	totalCO2Emission 	176.92299384179
scalar IntersectionExampleScenario.node[34].appl 	VehicleRemoved 	0
scalar IntersectionExampleScenario.node[34].appl 	ArrivedAtDest 	1
scalar IntersectionExampleScenario.node[34].appl 	IntersectionEnterTime 	94
scalar IntersectionExampleScenario.node[34].appl 	IntersectionExitTime 	148.57645608345
scalar IntersectionExampleScenario.node[34].appl 	NumberOfCollisions 	0
scalar IntersectionExampleScenario.node[34].nic.phy80211p 	busyTime 	0
scalar IntersectionExampleScenario.node[34].nic.mac1609_4 	ReceivedUnicastPackets 	0
scalar IntersectionExampleScenario.node[34].nic.mac1609_4 	ReceivedBroadcasts 	0
scalar IntersectionExampleScenario.node[34].nic.mac1609_4 	SentPackets 	0
scalar IntersectionExampleScenario.node[34].nic.mac1609_4 	SNIRLostPackets 	0
scalar IntersectionExampleScenario.node[34].nic.mac1609_4 	RXTXLostPackets 	0
scalar IntersectionExampleScenario.node[34].nic.mac1609_4 	TotalLostPackets 	0
scalar IntersectionExampleScenario.node[34].nic.mac1609_4 	DroppedPacketsInMac 	0
scalar IntersectionExampleScenario.node[34].nic.mac1609_4 	TooLittleTime 	0
scalar IntersectionExampleScenario.node[34].nic.mac1609_4 	TimesIntoBackoff 	0
scalar IntersectionExampleScenario.node[34].nic.mac1609_4 	SlotsBackoff 	0
scalar IntersectionExampleScenario.node[34].nic.mac1609_4 	NumInternalContention 	0
scalar IntersectionExampleScenario.node[34].nic.mac1609_4 	totalBusyTime 	0
scalar IntersectionExampleScenario.node[34].veinsmobility 	startTime 	94
scalar IntersectionExampleScenario.node[34].veinsmobility 	totalTime 	71.25
scalar IntersectionExampleScenario.node[34].veinsmobility 	stopTime 	165.5
scalar IntersectionExampleScenario.node[34].veinsmobility 	minSpeed 	0
scalar IntersectionExampleScenario.node[34].veinsmobility 	maxSpeed 	15.875
scalar IntersectionExampleScenario.node[34].veinsmobility 	totalDistance 	565.38341428191
scalar IntersectionExampleScenario.node[34].veinsmobility 	totalCO2Emission 	172.53130842103
scalar IntersectionExampleScenario.node[40].appl 	VehicleRemoved 	0
scalar IntersectionExampleScenario.node[40].appl 	ArrivedAtDest 	1
scalar IntersectionExampleScenario.node[40].appl 	IntersectionEnterTime 	100.25
scalar IntersectionExampleScenario.node[40].appl 	IntersectionExitTime 	150.34933402433
scalar IntersectionExampleScenario.node[40].appl 	NumberOfCollisions 	0
scalar IntersectionExampleScenario.node[40].nic.phy80211p 	busyTime 	0
scalar IntersectionExampleScenario.node[40].nic.mac1609_4 	ReceivedUnicastPackets 	0
scalar IntersectionExampleScenario.node[40].nic.mac1609_4 	ReceivedBroadcasts 	0
scalar IntersectionExampleScenario.node[40].nic.mac1609_4 	SentPackets 	0
scalar IntersectionExampleScenario.node[40].nic.mac1609_4 	SNIRLostPackets 	0
scalar IntersectionExampleScenario.node[40].nic.mac1609_4 	RXTXLostPackets 	0
scalar IntersectionExampleScenario.node[40].nic.mac1609_4 	TotalLostPackets 	0
scalar IntersectionExampleScenario.node[40].nic.mac1609_4 	DroppedPacketsInMac 	0
scalar IntersectionExampleScenario.node[40].nic.mac1609_4 	TooLittleTime 	0
scalar IntersectionExampleScenario.node[40].nic.mac1609_4 	TimesIntoBackoff 	0
scalar IntersectionExampleScenario.node[40].nic.mac1609_4 	SlotsBackoff 	0
scalar IntersectionExampleScenario.node[40].nic.mac1609_4 	NumInternalContention 	0
scalar IntersectionExampleScenario.node[40].nic.mac1609_4 	totalBusyTime 	0
scalar IntersectionExampleScenario.node[40].veinsmobility 	startTime 	100.25
scalar IntersectionExampleScenario.node[40].veinsmobility 	totalTime 	65.5
scalar IntersectionExampleScenario.node[40].veinsmobility 	stopTime 	166
scalar IntersectionExampleScenario.node[40].veinsmobility 	minSpeed 	0
scalar IntersectionExampleScenario.node[40].veinsmobility 	maxSpeed 	16.125
scalar IntersectionExampleScenario.node[40].veinsmobility 	totalDistance 	536.77700805664
scalar IntersectionExampleScenario.node[40].veinsmobility 	totalCO2Emission 	166.3563920479
scalar IntersectionExampleScenario.node[37].appl 	VehicleRemoved 	0
scalar IntersectionExampleScenario.node[37].appl 	ArrivedAtDest 	1
scalar IntersectionExampleScenario.node[37].appl 	IntersectionEnterTime 	97.5
scalar IntersectionExampleScenario.node[37].appl 	IntersectionExitTime 	152.30881219351
scalar IntersectionExampleScenario.node[37].appl 	NumberOfCollisions 	0
scalar IntersectionExampleScenario.node[37].nic.phy80211p 	busyTime 	0
scalar IntersectionExampleScenario.node[37].nic.mac1609_4 	ReceivedUnicastPackets 	0
scalar IntersectionExampleScenario.node[37].nic.mac1609_4 	ReceivedBroadcasts 	0
scalar IntersectionExampleScenario.node[37].nic.mac1609_4 	SentPackets 	0
scalar IntersectionExampleScenario.node[37].nic.mac1609_4 	SNIRLostPackets 	0
scalar IntersectionExampleScenario.node[37].nic.mac1609_4 	RXTXLostPackets 	0
scalar IntersectionExampleScenario.node[37].nic.mac1609_4 	TotalLostPackets 	0
scalar IntersectionExampleScenario.node[37].nic.mac1609_4 	DroppedPacketsInMac 	0
scalar IntersectionExampleScenario.node[37].nic.mac1609_4 	TooLittleTime 	0
scalar IntersectionExampleScenario.node[37].nic.mac1609_4 	TimesIntoBackoff 	0
scalar IntersectionExampleScenario.node[37].nic.mac1609_4 	SlotsBackoff 	0
scalar IntersectionExampleScenario.node[37].nic.mac1609_4 	NumInternalContention 	0
[...]
scalar IntersectionExampleScenario.node[611].veinsmobility 	totalCO2Emission 	78.707667635914
scalar IntersectionExampleScenario.node[612].appl 	VehicleRemoved 	0
scalar IntersectionExampleScenario.node[612].appl 	ArrivedAtDest 	0
scalar IntersectionExampleScenario.node[612].appl 	IntersectionEnterTime 	1764
scalar IntersectionExampleScenario.node[612].appl 	IntersectionExitTime 	-1
scalar IntersectionExampleScenario.node[612].appl 	NumberOfCollisions 	0
scalar IntersectionExampleScenario.node[612].nic.phy80211p 	busyTime 	0
scalar IntersectionExampleScenario.node[612].nic.mac1609_4 	ReceivedUnicastPackets 	0
scalar IntersectionExampleScenario.node[612].nic.mac1609_4 	ReceivedBroadcasts 	0
scalar IntersectionExampleScenario.node[612].nic.mac1609_4 	SentPackets 	0
scalar IntersectionExampleScenario.node[612].nic.mac1609_4 	SNIRLostPackets 	0
scalar IntersectionExampleScenario.node[612].nic.mac1609_4 	RXTXLostPackets 	0
scalar IntersectionExampleScenario.node[612].nic.mac1609_4 	TotalLostPackets 	0
scalar IntersectionExampleScenario.node[612].nic.mac1609_4 	DroppedPacketsInMac 	0
scalar IntersectionExampleScenario.node[612].nic.mac1609_4 	TooLittleTime 	0
scalar IntersectionExampleScenario.node[612].nic.mac1609_4 	TimesIntoBackoff 	0
scalar IntersectionExampleScenario.node[612].nic.mac1609_4 	SlotsBackoff 	0
scalar IntersectionExampleScenario.node[612].nic.mac1609_4 	NumInternalContention 	0
scalar IntersectionExampleScenario.node[612].nic.mac1609_4 	totalBusyTime 	0
scalar IntersectionExampleScenario.node[612].veinsmobility 	startTime 	1764
scalar IntersectionExampleScenario.node[612].veinsmobility 	totalTime 	36
scalar IntersectionExampleScenario.node[612].veinsmobility 	stopTime 	1800
scalar IntersectionExampleScenario.node[612].veinsmobility 	minSpeed 	0
scalar IntersectionExampleScenario.node[612].veinsmobility 	maxSpeed 	15.165787696838
scalar IntersectionExampleScenario.node[612].veinsmobility 	totalDistance 	287.42190551758
scalar IntersectionExampleScenario.node[612].veinsmobility 	totalCO2Emission 	78.040192044985
scalar IntersectionExampleScenario.node[613].appl 	VehicleRemoved 	0
scalar IntersectionExampleScenario.node[613].appl 	ArrivedAtDest 	0
scalar IntersectionExampleScenario.node[613].appl 	IntersectionEnterTime 	1769.75
scalar IntersectionExampleScenario.node[613].appl 	IntersectionExitTime 	-1
scalar IntersectionExampleScenario.node[613].appl 	NumberOfCollisions 	0
scalar IntersectionExampleScenario.node[613].nic.phy80211p 	busyTime 	0
scalar IntersectionExampleScenario.node[613].nic.mac1609_4 	ReceivedUnicastPackets 	0
scalar IntersectionExampleScenario.node[613].nic.mac1609_4 	ReceivedBroadcasts 	0
scalar IntersectionExampleScenario.node[613].nic.mac1609_4 	SentPackets 	0
scalar IntersectionExampleScenario.node[613].nic.mac1609_4 	SNIRLostPackets 	0
scalar IntersectionExampleScenario.node[613].nic.mac1609_4 	RXTXLostPackets 	0
scalar IntersectionExampleScenario.node[613].nic.mac1609_4 	TotalLostPackets 	0
scalar IntersectionExampleScenario.node[613].nic.mac1609_4 	DroppedPacketsInMac 	0
scalar IntersectionExampleScenario.node[613].nic.mac1609_4 	TooLittleTime 	0
scalar IntersectionExampleScenario.node[613].nic.mac1609_4 	TimesIntoBackoff 	0
scalar IntersectionExampleScenario.node[613].nic.mac1609_4 	SlotsBackoff 	0
scalar IntersectionExampleScenario.node[613].nic.mac1609_4 	NumInternalContention 	0
scalar IntersectionExampleScenario.node[613].nic.mac1609_4 	totalBusyTime 	0
scalar IntersectionExampleScenario.node[613].veinsmobility 	startTime 	1769.75
scalar IntersectionExampleScenario.node[613].veinsmobility 	totalTime 	30.25
scalar IntersectionExampleScenario.node[613].veinsmobility 	stopTime 	1800
scalar IntersectionExampleScenario.node[613].veinsmobility 	minSpeed 	3.5906658172607
scalar IntersectionExampleScenario.node[613].veinsmobility 	maxSpeed 	15.678365707397
scalar IntersectionExampleScenario.node[613].veinsmobility 	totalDistance 	297.87213777708
scalar IntersectionExampleScenario.node[613].veinsmobility 	totalCO2Emission 	81.657658904421
scalar IntersectionExampleScenario.node[614].appl 	VehicleRemoved 	0
scalar IntersectionExampleScenario.node[614].appl 	ArrivedAtDest 	0
scalar IntersectionExampleScenario.node[614].appl 	IntersectionEnterTime 	1776
scalar IntersectionExampleScenario.node[614].appl 	IntersectionExitTime 	-1
scalar IntersectionExampleScenario.node[614].appl 	NumberOfCollisions 	0
scalar IntersectionExampleScenario.node[614].nic.phy80211p 	busyTime 	0
scalar IntersectionExampleScenario.node[614].nic.mac1609_4 	ReceivedUnicastPackets 	0
scalar IntersectionExampleScenario.node[614].nic.mac1609_4 	ReceivedBroadcasts 	0
scalar IntersectionExampleScenario.node[614].nic.mac1609_4 	SentPackets 	0
scalar IntersectionExampleScenario.node[614].nic.mac1609_4 	SNIRLostPackets 	0
scalar IntersectionExampleScenario.node[614].nic.mac1609_4 	RXTXLostPackets 	0
scalar IntersectionExampleScenario.node[614].nic.mac1609_4 	TotalLostPackets 	0
scalar IntersectionExampleScenario.node[614].nic.mac1609_4 	DroppedPacketsInMac 	0
scalar IntersectionExampleScenario.node[614].nic.mac1609_4 	TooLittleTime 	0
scalar IntersectionExampleScenario.node[614].nic.mac1609_4 	TimesIntoBackoff 	0
scalar IntersectionExampleScenario.node[614].nic.mac1609_4 	SlotsBackoff 	0
scalar IntersectionExampleScenario.node[614].nic.mac1609_4 	NumInternalContention 	0
scalar IntersectionExampleScenario.node[614].nic.mac1609_4 	totalBusyTime 	0
scalar IntersectionExampleScenario.node[614].veinsmobility 	startTime 	1776
scalar IntersectionExampleScenario.node[614].veinsmobility 	totalTime 	24
scalar IntersectionExampleScenario.node[614].veinsmobility 	stopTime 	1800
scalar IntersectionExampleScenario.node[614].veinsmobility 	minSpeed 	2.3793044090271
scalar IntersectionExampleScenario.node[614].veinsmobility 	maxSpeed 	15.02499961853
scalar IntersectionExampleScenario.node[614].veinsmobility 	totalDistance 	258.03687286377
scalar IntersectionExampleScenario.node[614].veinsmobility 	totalCO2Emission 	65.058679871731
scalar IntersectionExampleScenario.node[615].appl 	VehicleRemoved 	0
scalar IntersectionExampleScenario.node[615].appl 	ArrivedAtDest 	0
scalar IntersectionExampleScenario.node[615].appl 	IntersectionEnterTime 	1779.25
scalar IntersectionExampleScenario.node[615].appl 	IntersectionExitTime 	-1
scalar IntersectionExampleScenario.node[615].appl 	NumberOfCollisions 	0
scalar IntersectionExampleScenario.node[615].nic.phy80211p 	busyTime 	0
scalar IntersectionExampleScenario.node[615].nic.mac1609_4 	ReceivedUnicastPackets 	0
scalar IntersectionExampleScenario.node[615].nic.mac1609_4 	ReceivedBroadcasts 	0
scalar IntersectionExampleScenario.node[615].nic.mac1609_4 	SentPackets 	0
scalar IntersectionExampleScenario.node[615].nic.mac1609_4 	SNIRLostPackets 	0
scalar IntersectionExampleScenario.node[615].nic.mac1609_4 	RXTXLostPackets 	0
scalar IntersectionExampleScenario.node[615].nic.mac1609_4 	TotalLostPackets 	0
scalar IntersectionExampleScenario.node[615].nic.mac1609_4 	DroppedPacketsInMac 	0
scalar IntersectionExampleScenario.node[615].nic.mac1609_4 	TooLittleTime 	0
scalar IntersectionExampleScenario.node[615].nic.mac1609_4 	TimesIntoBackoff 	0
scalar IntersectionExampleScenario.node[615].nic.mac1609_4 	SlotsBackoff 	0
scalar IntersectionExampleScenario.node[615].nic.mac1609_4 	NumInternalContention 	0
scalar IntersectionExampleScenario.node[615].nic.mac1609_4 	totalBusyTime 	0
scalar IntersectionExampleScenario.node[615].veinsmobility 	startTime 	1779.25
scalar IntersectionExampleScenario.node[615].veinsmobility 	totalTime 	20.75
scalar IntersectionExampleScenario.node[615].veinsmobility 	stopTime 	1800
scalar IntersectionExampleScenario.node[615].veinsmobility 	minSpeed 	5.3184728622437
scalar IntersectionExampleScenario.node[615].veinsmobility 	maxSpeed 	15.64999961853
scalar IntersectionExampleScenario.node[615].veinsmobility 	totalDistance 	257.1008605957
scalar IntersectionExampleScenario.node[615].veinsmobility 	totalCO2Emission 	60.160069918874
scalar IntersectionExampleScenario.node[616].appl 	VehicleRemoved 	0
scalar IntersectionExampleScenario.node[616].appl 	ArrivedAtDest 	0
scalar IntersectionExampleScenario.node[616].appl 	IntersectionEnterTime 	1779.75
scalar IntersectionExampleScenario.node[616].appl 	IntersectionExitTime 	-1
scalar IntersectionExampleScenario.node[616].appl 	NumberOfCollisions 	0
scalar IntersectionExampleScenario.node[616].nic.phy80211p 	busyTime 	0
scalar IntersectionExampleScenario.node[616].nic.mac1609_4 	ReceivedUnicastPackets 	0
scalar IntersectionExampleScenario.node[616].nic.mac1609_4 	ReceivedBroadcasts 	0
scalar IntersectionExampleScenario.node[616].nic.mac1609_4 	SentPackets 	0
scalar IntersectionExampleScenario.node[616].nic.mac1609_4 	SNIRLostPackets 	0
scalar IntersectionExampleScenario.node[616].nic.mac1609_4 	RXTXLostPackets 	0
scalar IntersectionExampleScenario.node[616].nic.mac1609_4 	TotalLostPackets 	0
scalar IntersectionExampleScenario.node[616].nic.mac1609_4 	DroppedPacketsInMac 	0
scalar IntersectionExampleScenario.node[616].nic.mac1609_4 	TooLittleTime 	0
scalar IntersectionExampleScenario.node[616].nic.mac1609_4 	TimesIntoBackoff 	0
scalar IntersectionExampleScenario.node[616].nic.mac1609_4 	SlotsBackoff 	0
scalar IntersectionExampleScenario.node[616].nic.mac1609_4 	NumInternalContention 	0
scalar IntersectionExampleScenario.node[616].nic.mac1609_4 	totalBusyTime 	0
scalar IntersectionExampleScenario.node[616].veinsmobility 	startTime 	1779.75
scalar IntersectionExampleScenario.node[616].veinsmobility 	totalTime 	20.25
scalar IntersectionExampleScenario.node[616].veinsmobility 	stopTime 	1800
scalar IntersectionExampleScenario.node[616].veinsmobility 	minSpeed 	5.6500000953674
scalar IntersectionExampleScenario.node[616].veinsmobility 	maxSpeed 	15.64999961853
scalar IntersectionExampleScenario.node[616].veinsmobility 	totalDistance 	278.36590576172
scalar IntersectionExampleScenario.node[616].veinsmobility 	totalCO2Emission 	63.762965305862
scalar IntersectionExampleScenario.node[617].appl 	VehicleRemoved 	0
scalar IntersectionExampleScenario.node[617].appl 	ArrivedAtDest 	0
scalar IntersectionExampleScenario.node[617].appl 	IntersectionEnterTime 	1787.25
scalar IntersectionExampleScenario.node[617].appl 	IntersectionExitTime 	-1
scalar IntersectionExampleScenario.node[617].appl 	NumberOfCollisions 	0
scalar IntersectionExampleScenario.node[617].nic.phy80211p 	busyTime 	0
scalar IntersectionExampleScenario.node[617].nic.mac1609_4 	ReceivedUnicastPackets 	0
scalar IntersectionExampleScenario.node[617].nic.mac1609_4 	ReceivedBroadcasts 	0
scalar IntersectionExampleScenario.node[617].nic.mac1609_4 	SentPackets 	0
scalar IntersectionExampleScenario.node[617].nic.mac1609_4 	SNIRLostPackets 	0
scalar IntersectionExampleScenario.node[617].nic.mac1609_4 	RXTXLostPackets 	0
scalar IntersectionExampleScenario.node[617].nic.mac1609_4 	TotalLostPackets 	0
scalar IntersectionExampleScenario.node[617].nic.mac1609_4 	DroppedPacketsInMac 	0
scalar IntersectionExampleScenario.node[617].nic.mac1609_4 	TooLittleTime 	0
scalar IntersectionExampleScenario.node[617].nic.mac1609_4 	TimesIntoBackoff 	0
scalar IntersectionExampleScenario.node[617].nic.mac1609_4 	SlotsBackoff 	0
scalar IntersectionExampleScenario.node[617].nic.mac1609_4 	NumInternalContention 	0
scalar IntersectionExampleScenario.node[617].nic.mac1609_4 	totalBusyTime 	0
scalar IntersectionExampleScenario.node[617].veinsmobility 	startTime 	1787.25
scalar IntersectionExampleScenario.node[617].veinsmobility 	totalTime 	12.75
scalar IntersectionExampleScenario.node[617].veinsmobility 	stopTime 	1800
scalar IntersectionExampleScenario.node[617].veinsmobility 	minSpeed 	5.6500000953674
scalar IntersectionExampleScenario.node[617].veinsmobility 	maxSpeed 	16.27499961853
scalar IntersectionExampleScenario.node[617].veinsmobility 	totalDistance 	177.70455932617
scalar IntersectionExampleScenario.node[617].veinsmobility 	totalCO2Emission 	52.538929394824
scalar IntersectionExampleScenario.node[618].appl 	VehicleRemoved 	0
scalar IntersectionExampleScenario.node[618].appl 	ArrivedAtDest 	0
scalar IntersectionExampleScenario.node[618].appl 	IntersectionEnterTime 	1791.5
scalar IntersectionExampleScenario.node[618].appl 	IntersectionExitTime 	-1
scalar IntersectionExampleScenario.node[618].appl 	NumberOfCollisions 	0
scalar IntersectionExampleScenario.node[618].nic.phy80211p 	busyTime 	0
scalar IntersectionExampleScenario.node[618].nic.mac1609_4 	ReceivedUnicastPackets 	0
scalar IntersectionExampleScenario.node[618].nic.mac1609_4 	ReceivedBroadcasts 	0
scalar IntersectionExampleScenario.node[618].nic.mac1609_4 	SentPackets 	0
scalar IntersectionExampleScenario.node[618].nic.mac1609_4 	SNIRLostPackets 	0
scalar IntersectionExampleScenario.node[618].nic.mac1609_4 	RXTXLostPackets 	0
scalar IntersectionExampleScenario.node[618].nic.mac1609_4 	TotalLostPackets 	0
scalar IntersectionExampleScenario.node[618].nic.mac1609_4 	DroppedPacketsInMac 	0
scalar IntersectionExampleScenario.node[618].nic.mac1609_4 	TooLittleTime 	0
scalar IntersectionExampleScenario.node[618].nic.mac1609_4 	TimesIntoBackoff 	0
scalar IntersectionExampleScenario.node[618].nic.mac1609_4 	SlotsBackoff 	0
scalar IntersectionExampleScenario.node[618].nic.mac1609_4 	NumInternalContention 	0
scalar IntersectionExampleScenario.node[618].nic.mac1609_4 	totalBusyTime 	0
scalar IntersectionExampleScenario.node[618].veinsmobility 	startTime 	1791.5
scalar IntersectionExampleScenario.node[618].veinsmobility 	totalTime 	8.5
scalar IntersectionExampleScenario.node[618].veinsmobility 	stopTime 	1800
scalar IntersectionExampleScenario.node[618].veinsmobility 	minSpeed 	5.6500000953674
scalar IntersectionExampleScenario.node[618].veinsmobility 	maxSpeed 	15.64999961853
scalar IntersectionExampleScenario.node[618].veinsmobility 	totalDistance 	110.18725585938
scalar IntersectionExampleScenario.node[618].veinsmobility 	totalCO2Emission 	42.682514672586
scalar IntersectionExampleScenario.node[619].appl 	VehicleRemoved 	0
scalar IntersectionExampleScenario.node[619].appl 	ArrivedAtDest 	0
scalar IntersectionExampleScenario.node[619].appl 	IntersectionEnterTime 	1794.25
scalar IntersectionExampleScenario.node[619].appl 	IntersectionExitTime 	-1
scalar IntersectionExampleScenario.node[619].appl 	NumberOfCollisions 	0
scalar IntersectionExampleScenario.node[619].nic.phy80211p 	busyTime 	0
scalar IntersectionExampleScenario.node[619].nic.mac1609_4 	ReceivedUnicastPackets 	0
scalar IntersectionExampleScenario.node[619].nic.mac1609_4 	ReceivedBroadcasts 	0
scalar IntersectionExampleScenario.node[619].nic.mac1609_4 	SentPackets 	0
scalar IntersectionExampleScenario.node[619].nic.mac1609_4 	SNIRLostPackets 	0
scalar IntersectionExampleScenario.node[619].nic.mac1609_4 	RXTXLostPackets 	0
scalar IntersectionExampleScenario.node[619].nic.mac1609_4 	TotalLostPackets 	0
scalar IntersectionExampleScenario.node[619].nic.mac1609_4 	DroppedPacketsInMac 	0
scalar IntersectionExampleScenario.node[619].nic.mac1609_4 	TooLittleTime 	0
scalar IntersectionExampleScenario.node[619].nic.mac1609_4 	TimesIntoBackoff 	0
scalar IntersectionExampleScenario.node[619].nic.mac1609_4 	SlotsBackoff 	0
scalar IntersectionExampleScenario.node[619].nic.mac1609_4 	NumInternalContention 	0
scalar IntersectionExampleScenario.node[619].nic.mac1609_4 	totalBusyTime 	0
scalar IntersectionExampleScenario.node[619].veinsmobility 	startTime 	1794.25
scalar IntersectionExampleScenario.node[619].veinsmobility 	totalTime 	5.75
scalar IntersectionExampleScenario.node[619].veinsmobility 	stopTime 	1800
scalar IntersectionExampleScenario.node[619].veinsmobility 	minSpeed 	5.6500000953674
scalar IntersectionExampleScenario.node[619].veinsmobility 	maxSpeed 	15.02499961853
scalar IntersectionExampleScenario.node[619].veinsmobility 	totalDistance 	66.347412109375
scalar IntersectionExampleScenario.node[619].veinsmobility 	totalCO2Emission 	34.265701811065
scalar IntersectionExampleScenario.node[620].appl 	VehicleRemoved 	0
scalar IntersectionExampleScenario.node[620].appl 	ArrivedAtDest 	0
scalar IntersectionExampleScenario.node[620].appl 	IntersectionEnterTime 	1794.5
scalar IntersectionExampleScenario.node[620].appl 	IntersectionExitTime 	-1
scalar IntersectionExampleScenario.node[620].appl 	NumberOfCollisions 	0
scalar IntersectionExampleScenario.node[620].nic.phy80211p 	busyTime 	0
scalar IntersectionExampleScenario.node[620].nic.mac1609_4 	ReceivedUnicastPackets 	0
scalar IntersectionExampleScenario.node[620].nic.mac1609_4 	ReceivedBroadcasts 	0
scalar IntersectionExampleScenario.node[620].nic.mac1609_4 	SentPackets 	0
scalar IntersectionExampleScenario.node[620].nic.mac1609_4 	SNIRLostPackets 	0
scalar IntersectionExampleScenario.node[620].nic.mac1609_4 	RXTXLostPackets 	0
scalar IntersectionExampleScenario.node[620].nic.mac1609_4 	TotalLostPackets 	0
scalar IntersectionExampleScenario.node[620].nic.mac1609_4 	DroppedPacketsInMac 	0
scalar IntersectionExampleScenario.node[620].nic.mac1609_4 	TooLittleTime 	0
scalar IntersectionExampleScenario.node[620].nic.mac1609_4 	TimesIntoBackoff 	0
scalar IntersectionExampleScenario.node[620].nic.mac1609_4 	SlotsBackoff 	0
scalar IntersectionExampleScenario.node[620].nic.mac1609_4 	NumInternalContention 	0
scalar IntersectionExampleScenario.node[620].nic.mac1609_4 	totalBusyTime 	0
scalar IntersectionExampleScenario.node[620].veinsmobility 	startTime 	1794.5
scalar IntersectionExampleScenario.node[620].veinsmobility 	totalTime 	5.5
scalar IntersectionExampleScenario.node[620].veinsmobility 	stopTime 	1800
scalar IntersectionExampleScenario.node[620].veinsmobility 	minSpeed 	5.6500000953674
scalar IntersectionExampleScenario.node[620].veinsmobility 	maxSpeed 	15.64999961853
scalar IntersectionExampleScenario.node[620].veinsmobility 	totalDistance 	63.245666503906
scalar IntersectionExampleScenario.node[620].veinsmobility 	totalCO2Emission 	35.206010931527
scalar IntersectionExampleScenario.node[621].appl 	VehicleRemoved 	0
scalar IntersectionExampleScenario.node[621].appl 	ArrivedAtDest 	0
scalar IntersectionExampleScenario.node[621].appl 	IntersectionEnterTime 	1798.25
scalar IntersectionExampleScenario.node[621].appl 	IntersectionExitTime 	-1
scalar IntersectionExampleScenario.node[621].appl 	NumberOfCollisions 	0
scalar IntersectionExampleScenario.node[621].nic.phy80211p 	busyTime 	0
scalar IntersectionExampleScenario.node[621].nic.mac1609_4 	ReceivedUnicastPackets 	0
scalar IntersectionExampleScenario.node[621].nic.mac1609_4 	ReceivedBroadcasts 	0
scalar IntersectionExampleScenario.node[621].nic.mac1609_4 	SentPackets 	0
scalar IntersectionExampleScenario.node[621].nic.mac1609_4 	SNIRLostPackets 	0
scalar IntersectionExampleScenario.node[621].nic.mac1609_4 	RXTXLostPackets 	0
scalar IntersectionExampleScenario.node[621].nic.mac1609_4 	TotalLostPackets 	0
scalar IntersectionExampleScenario.node[621].nic.mac1609_4 	DroppedPacketsInMac 	0
scalar IntersectionExampleScenario.node[621].nic.mac1609_4 	TooLittleTime 	0
scalar IntersectionExampleScenario.node[621].nic.mac1609_4 	TimesIntoBackoff 	0
scalar IntersectionExampleScenario.node[621].nic.mac1609_4 	SlotsBackoff 	0
scalar IntersectionExampleScenario.node[621].nic.mac1609_4 	NumInternalContention 	0
scalar IntersectionExampleScenario.node[621].nic.mac1609_4 	totalBusyTime 	0
scalar IntersectionExampleScenario.node[621].veinsmobility 	startTime 	1798.25
scalar IntersectionExampleScenario.node[621].veinsmobility 	totalTime 	1.75
scalar IntersectionExampleScenario.node[621].veinsmobility 	stopTime 	1800
scalar IntersectionExampleScenario.node[621].veinsmobility 	minSpeed 	5.6500000953674
scalar IntersectionExampleScenario.node[621].veinsmobility 	maxSpeed 	9.3999996185303
scalar IntersectionExampleScenario.node[621].veinsmobility 	totalDistance 	12.621887207031
scalar IntersectionExampleScenario.node[621].veinsmobility 	totalCO2Emission 	9.3856839288341
