version 2
run nodebug-1-20200605-18:21:30-18076
attr configname nodebug
attr datetime 20200605-18:21:30
attr experiment nodebug
attr inifile omnetpp.ini
attr iterationvars ""
attr iterationvars2 $repetition=1
attr measurement ""
attr network "\"org.car2x.veins.modules.application.ExtTraCIScenarioManagerLaunchd.IntersectionExampleScenario\""
attr processid 18076
attr repetition 1
attr replication #1
attr resultdir results
attr runnumber 1
attr seedset 1
param **.coreDebug false
param **.debug false
param *.**.nic.mac1609_4.bitrate 18Mbps
param *.**.nic.mac1609_4.txPower 20mW
param *.**.nic.mac1609_4.useServiceChannel false
param *.**.nic.phy80211p.analogueModels "xmldoc(\"config.xml\")"
param *.**.nic.phy80211p.decider "xmldoc(\"config.xml\")"
param *.**.nic.phy80211p.sensitivity -89dBm
param *.**.nic.phy80211p.thermalNoise -110dBm
param *.**.nic.phy80211p.usePropagationDelay true
param *.**.nic.phy80211p.useThermalNoise true
param *.annotations.draw false
param *.connectionManager.alpha 2.0
param *.connectionManager.carrierFrequency "5.890e9 Hz"
param *.connectionManager.pMax 20mW
param *.connectionManager.sat -89dBm
param *.connectionManager.sendDirect true
param *.manager.autoShutdown true
param *.manager.host "\"localhost\""
param *.manager.launchConfig "xmldoc(\"paramics.launchd.xml\")"
param *.manager.margin 25
param *.manager.moduleDisplayString "\"\""
param *.manager.moduleName "\"node\""
param *.manager.moduleType "\"org.car2x.veins.nodes.Car\""
param *.manager.port 9999
param *.manager.updateInterval 250ms
param *.node[*0].veinsmobility.accidentCount 0
param *.node[*0].veinsmobility.accidentDuration 30s
param *.node[*0].veinsmobility.accidentStart 75s
param *.node[*].appl.LiderSelectZoneRadio 55.0
param *.node[*].appl.ShareDataZoneRadio 110.0
param *.node[*].appl.TiempoSemaforo 30.0
param *.node[*].appl.beaconInterval 1s
param *.node[*].appl.beaconPriority 3
param *.node[*].appl.dataOnSch false
param *.node[*].appl.dataPriority 2
param *.node[*].appl.debug false
param *.node[*].appl.headerLength "256 bit"
param *.node[*].appl.maxOffset 0.005s
param *.node[*].appl.sendBeacons false
param *.node[*].appl.sendData true
param *.node[*].applType "\"Dummy\""
param *.node[*].mobilityType "\"TraCIMobility\""
param *.node[*].mobilityType.debug true
param *.node[*].veinsmobility.x 0
param *.node[*].veinsmobility.y 0
param *.node[*].veinsmobility.z 1.895
param *.node[*].veinsmobilityType "\"org.car2x.veins.modules.mobility.traci.TraCIMobility\""
param *.node[*].veinsmobilityType.debug true
param *.playgroundSizeX 8500m
param *.playgroundSizeY 8500m
param *.playgroundSizeZ 50m
param *.world.use2D false
param *.world.useTorus false

scalar IntersectionExampleScenario.node[3].appl 	VehicleRemoved 	0
scalar IntersectionExampleScenario.node[3].appl 	ArrivedAtDest 	1
scalar IntersectionExampleScenario.node[3].appl 	IntersectionEnterTime 	22.5
scalar IntersectionExampleScenario.node[3].appl 	IntersectionExitTime 	45.583808438445
scalar IntersectionExampleScenario.node[3].appl 	NumberOfCollisions 	0
scalar IntersectionExampleScenario.node[3].nic.phy80211p 	busyTime 	0
scalar IntersectionExampleScenario.node[3].nic.mac1609_4 	ReceivedUnicastPackets 	0
scalar IntersectionExampleScenario.node[3].nic.mac1609_4 	ReceivedBroadcasts 	0
scalar IntersectionExampleScenario.node[3].nic.mac1609_4 	SentPackets 	0
scalar IntersectionExampleScenario.node[3].nic.mac1609_4 	SNIRLostPackets 	0
scalar IntersectionExampleScenario.node[3].nic.mac1609_4 	RXTXLostPackets 	0
scalar IntersectionExampleScenario.node[3].nic.mac1609_4 	TotalLostPackets 	0
scalar IntersectionExampleScenario.node[3].nic.mac1609_4 	DroppedPacketsInMac 	0
scalar IntersectionExampleScenario.node[3].nic.mac1609_4 	TooLittleTime 	0
scalar IntersectionExampleScenario.node[3].nic.mac1609_4 	TimesIntoBackoff 	0
scalar IntersectionExampleScenario.node[3].nic.mac1609_4 	SlotsBackoff 	0
scalar IntersectionExampleScenario.node[3].nic.mac1609_4 	NumInternalContention 	0
scalar IntersectionExampleScenario.node[3].nic.mac1609_4 	totalBusyTime 	0
scalar IntersectionExampleScenario.node[3].veinsmobility 	startTime 	22.5
scalar IntersectionExampleScenario.node[3].veinsmobility 	totalTime 	39
scalar IntersectionExampleScenario.node[3].veinsmobility 	stopTime 	61.75
scalar IntersectionExampleScenario.node[3].veinsmobility 	minSpeed 	5.6500000953674
scalar IntersectionExampleScenario.node[3].veinsmobility 	maxSpeed 	15.64999961853
scalar IntersectionExampleScenario.node[3].veinsmobility 	totalDistance 	553.96304321289
scalar IntersectionExampleScenario.node[3].veinsmobility 	totalCO2Emission 	122.11459924096
scalar IntersectionExampleScenario.node[0].appl 	VehicleRemoved 	0
scalar IntersectionExampleScenario.node[0].appl 	ArrivedAtDest 	1
scalar IntersectionExampleScenario.node[0].appl 	IntersectionEnterTime 	15
scalar IntersectionExampleScenario.node[0].appl 	IntersectionExitTime 	53.287791570969
scalar IntersectionExampleScenario.node[0].appl 	NumberOfCollisions 	0
scalar IntersectionExampleScenario.node[0].nic.phy80211p 	busyTime 	0
scalar IntersectionExampleScenario.node[0].nic.mac1609_4 	ReceivedUnicastPackets 	0
scalar IntersectionExampleScenario.node[0].nic.mac1609_4 	ReceivedBroadcasts 	0
scalar IntersectionExampleScenario.node[0].nic.mac1609_4 	SentPackets 	0
scalar IntersectionExampleScenario.node[0].nic.mac1609_4 	SNIRLostPackets 	0
scalar IntersectionExampleScenario.node[0].nic.mac1609_4 	RXTXLostPackets 	0
scalar IntersectionExampleScenario.node[0].nic.mac1609_4 	TotalLostPackets 	0
scalar IntersectionExampleScenario.node[0].nic.mac1609_4 	DroppedPacketsInMac 	0
scalar IntersectionExampleScenario.node[0].nic.mac1609_4 	TooLittleTime 	0
scalar IntersectionExampleScenario.node[0].nic.mac1609_4 	TimesIntoBackoff 	0
scalar IntersectionExampleScenario.node[0].nic.mac1609_4 	SlotsBackoff 	0
scalar IntersectionExampleScenario.node[0].nic.mac1609_4 	NumInternalContention 	0
scalar IntersectionExampleScenario.node[0].nic.mac1609_4 	totalBusyTime 	0
scalar IntersectionExampleScenario.node[0].veinsmobility 	startTime 	15
scalar IntersectionExampleScenario.node[0].veinsmobility 	totalTime 	54.5
scalar IntersectionExampleScenario.node[0].veinsmobility 	stopTime 	69.75
scalar IntersectionExampleScenario.node[0].veinsmobility 	minSpeed 	0
scalar IntersectionExampleScenario.node[0].veinsmobility 	maxSpeed 	15.375
scalar IntersectionExampleScenario.node[0].veinsmobility 	totalDistance 	552.79933166504
scalar IntersectionExampleScenario.node[0].veinsmobility 	totalCO2Emission 	144.68591206543
scalar IntersectionExampleScenario.node[2].appl 	VehicleRemoved 	0
scalar IntersectionExampleScenario.node[2].appl 	ArrivedAtDest 	1
scalar IntersectionExampleScenario.node[2].appl 	IntersectionEnterTime 	21.25
scalar IntersectionExampleScenario.node[2].appl 	IntersectionExitTime 	54.335652437585
scalar IntersectionExampleScenario.node[2].appl 	NumberOfCollisions 	0
scalar IntersectionExampleScenario.node[2].nic.phy80211p 	busyTime 	0
scalar IntersectionExampleScenario.node[2].nic.mac1609_4 	ReceivedUnicastPackets 	0
scalar IntersectionExampleScenario.node[2].nic.mac1609_4 	ReceivedBroadcasts 	0
scalar IntersectionExampleScenario.node[2].nic.mac1609_4 	SentPackets 	0
scalar IntersectionExampleScenario.node[2].nic.mac1609_4 	SNIRLostPackets 	0
scalar IntersectionExampleScenario.node[2].nic.mac1609_4 	RXTXLostPackets 	0
scalar IntersectionExampleScenario.node[2].nic.mac1609_4 	TotalLostPackets 	0
scalar IntersectionExampleScenario.node[2].nic.mac1609_4 	DroppedPacketsInMac 	0
scalar IntersectionExampleScenario.node[2].nic.mac1609_4 	TooLittleTime 	0
scalar IntersectionExampleScenario.node[2].nic.mac1609_4 	TimesIntoBackoff 	0
scalar IntersectionExampleScenario.node[2].nic.mac1609_4 	SlotsBackoff 	0
scalar IntersectionExampleScenario.node[2].nic.mac1609_4 	NumInternalContention 	0
scalar IntersectionExampleScenario.node[2].nic.mac1609_4 	totalBusyTime 	0
scalar IntersectionExampleScenario.node[2].veinsmobility 	startTime 	21.25
scalar IntersectionExampleScenario.node[2].veinsmobility 	totalTime 	49.25
scalar IntersectionExampleScenario.node[2].veinsmobility 	stopTime 	70.75
scalar IntersectionExampleScenario.node[2].veinsmobility 	minSpeed 	0
scalar IntersectionExampleScenario.node[2].veinsmobility 	maxSpeed 	15.875
scalar IntersectionExampleScenario.node[2].veinsmobility 	totalDistance 	545.2755780556
scalar IntersectionExampleScenario.node[2].veinsmobility 	totalCO2Emission 	142.3644799566
scalar IntersectionExampleScenario.node[4].appl 	VehicleRemoved 	0
scalar IntersectionExampleScenario.node[4].appl 	ArrivedAtDest 	1
scalar IntersectionExampleScenario.node[4].appl 	IntersectionEnterTime 	25
scalar IntersectionExampleScenario.node[4].appl 	IntersectionExitTime 	60.524762685411
scalar IntersectionExampleScenario.node[4].appl 	NumberOfCollisions 	0
scalar IntersectionExampleScenario.node[4].nic.phy80211p 	busyTime 	0
scalar IntersectionExampleScenario.node[4].nic.mac1609_4 	ReceivedUnicastPackets 	0
scalar IntersectionExampleScenario.node[4].nic.mac1609_4 	ReceivedBroadcasts 	0
scalar IntersectionExampleScenario.node[4].nic.mac1609_4 	SentPackets 	0
scalar IntersectionExampleScenario.node[4].nic.mac1609_4 	SNIRLostPackets 	0
scalar IntersectionExampleScenario.node[4].nic.mac1609_4 	RXTXLostPackets 	0
scalar IntersectionExampleScenario.node[4].nic.mac1609_4 	TotalLostPackets 	0
scalar IntersectionExampleScenario.node[4].nic.mac1609_4 	DroppedPacketsInMac 	0
scalar IntersectionExampleScenario.node[4].nic.mac1609_4 	TooLittleTime 	0
scalar IntersectionExampleScenario.node[4].nic.mac1609_4 	TimesIntoBackoff 	0
scalar IntersectionExampleScenario.node[4].nic.mac1609_4 	SlotsBackoff 	0
scalar IntersectionExampleScenario.node[4].nic.mac1609_4 	NumInternalContention 	0
scalar IntersectionExampleScenario.node[4].nic.mac1609_4 	totalBusyTime 	0
scalar IntersectionExampleScenario.node[4].veinsmobility 	startTime 	25
scalar IntersectionExampleScenario.node[4].veinsmobility 	totalTime 	52.75
scalar IntersectionExampleScenario.node[4].veinsmobility 	stopTime 	78
scalar IntersectionExampleScenario.node[4].veinsmobility 	minSpeed 	0
scalar IntersectionExampleScenario.node[4].veinsmobility 	maxSpeed 	15.25
scalar IntersectionExampleScenario.node[4].veinsmobility 	totalDistance 	544.91891385466
scalar IntersectionExampleScenario.node[4].veinsmobility 	totalCO2Emission 	140.4576924346
scalar IntersectionExampleScenario.node[1].appl 	VehicleRemoved 	0
scalar IntersectionExampleScenario.node[1].appl 	ArrivedAtDest 	1
scalar IntersectionExampleScenario.node[1].appl 	IntersectionEnterTime 	21.25
scalar IntersectionExampleScenario.node[1].appl 	IntersectionExitTime 	67.543195090635
scalar IntersectionExampleScenario.node[1].appl 	NumberOfCollisions 	0
scalar IntersectionExampleScenario.node[1].nic.phy80211p 	busyTime 	0
scalar IntersectionExampleScenario.node[1].nic.mac1609_4 	ReceivedUnicastPackets 	0
scalar IntersectionExampleScenario.node[1].nic.mac1609_4 	ReceivedBroadcasts 	0
scalar IntersectionExampleScenario.node[1].nic.mac1609_4 	SentPackets 	0
scalar IntersectionExampleScenario.node[1].nic.mac1609_4 	SNIRLostPackets 	0
scalar IntersectionExampleScenario.node[1].nic.mac1609_4 	RXTXLostPackets 	0
scalar IntersectionExampleScenario.node[1].nic.mac1609_4 	TotalLostPackets 	0
scalar IntersectionExampleScenario.node[1].nic.mac1609_4 	DroppedPacketsInMac 	0
scalar IntersectionExampleScenario.node[1].nic.mac1609_4 	TooLittleTime 	0
scalar IntersectionExampleScenario.node[1].nic.mac1609_4 	TimesIntoBackoff 	0
scalar IntersectionExampleScenario.node[1].nic.mac1609_4 	SlotsBackoff 	0
scalar IntersectionExampleScenario.node[1].nic.mac1609_4 	NumInternalContention 	0
scalar IntersectionExampleScenario.node[1].nic.mac1609_4 	totalBusyTime 	0
scalar IntersectionExampleScenario.node[1].veinsmobility 	startTime 	21.25
scalar IntersectionExampleScenario.node[1].veinsmobility 	totalTime 	62.25
scalar IntersectionExampleScenario.node[1].veinsmobility 	stopTime 	83.75
scalar IntersectionExampleScenario.node[1].veinsmobility 	minSpeed 	0
scalar IntersectionExampleScenario.node[1].veinsmobility 	maxSpeed 	16.5
scalar IntersectionExampleScenario.node[1].veinsmobility 	totalDistance 	543.99999905974
scalar IntersectionExampleScenario.node[1].veinsmobility 	totalCO2Emission 	161.58494885877
scalar IntersectionExampleScenario.node[5].appl 	VehicleRemoved 	0
scalar IntersectionExampleScenario.node[5].appl 	ArrivedAtDest 	1
scalar IntersectionExampleScenario.node[5].appl 	IntersectionEnterTime 	25.5
scalar IntersectionExampleScenario.node[5].appl 	IntersectionExitTime 	70.086540327116
scalar IntersectionExampleScenario.node[5].appl 	NumberOfCollisions 	0
scalar IntersectionExampleScenario.node[5].nic.phy80211p 	busyTime 	0
scalar IntersectionExampleScenario.node[5].nic.mac1609_4 	ReceivedUnicastPackets 	0
scalar IntersectionExampleScenario.node[5].nic.mac1609_4 	ReceivedBroadcasts 	0
scalar IntersectionExampleScenario.node[5].nic.mac1609_4 	SentPackets 	0
scalar IntersectionExampleScenario.node[5].nic.mac1609_4 	SNIRLostPackets 	0
scalar IntersectionExampleScenario.node[5].nic.mac1609_4 	RXTXLostPackets 	0
scalar IntersectionExampleScenario.node[5].nic.mac1609_4 	TotalLostPackets 	0
scalar IntersectionExampleScenario.node[5].nic.mac1609_4 	DroppedPacketsInMac 	0
scalar IntersectionExampleScenario.node[5].nic.mac1609_4 	TooLittleTime 	0
scalar IntersectionExampleScenario.node[5].nic.mac1609_4 	TimesIntoBackoff 	0
scalar IntersectionExampleScenario.node[5].nic.mac1609_4 	SlotsBackoff 	0
scalar IntersectionExampleScenario.node[5].nic.mac1609_4 	NumInternalContention 	0
scalar IntersectionExampleScenario.node[5].nic.mac1609_4 	totalBusyTime 	0
scalar IntersectionExampleScenario.node[5].veinsmobility 	startTime 	25.5
scalar IntersectionExampleScenario.node[5].veinsmobility 	totalTime 	60.75
scalar IntersectionExampleScenario.node[5].veinsmobility 	stopTime 	86.5
scalar IntersectionExampleScenario.node[5].veinsmobility 	minSpeed 	0
scalar IntersectionExampleScenario.node[5].veinsmobility 	maxSpeed 	16.27499961853
scalar IntersectionExampleScenario.node[5].veinsmobility 	totalDistance 	548.09821293033
scalar IntersectionExampleScenario.node[5].veinsmobility 	totalCO2Emission 	155.69030789276
scalar IntersectionExampleScenario.node[6].appl 	VehicleRemoved 	0
scalar IntersectionExampleScenario.node[6].appl 	ArrivedAtDest 	1
scalar IntersectionExampleScenario.node[6].appl 	IntersectionEnterTime 	31
scalar IntersectionExampleScenario.node[6].appl 	IntersectionExitTime 	72.254881848028
scalar IntersectionExampleScenario.node[6].appl 	NumberOfCollisions 	0
scalar IntersectionExampleScenario.node[6].nic.phy80211p 	busyTime 	0
scalar IntersectionExampleScenario.node[6].nic.mac1609_4 	ReceivedUnicastPackets 	0
scalar IntersectionExampleScenario.node[6].nic.mac1609_4 	ReceivedBroadcasts 	0
scalar IntersectionExampleScenario.node[6].nic.mac1609_4 	SentPackets 	0
scalar IntersectionExampleScenario.node[6].nic.mac1609_4 	SNIRLostPackets 	0
scalar IntersectionExampleScenario.node[6].nic.mac1609_4 	RXTXLostPackets 	0
scalar IntersectionExampleScenario.node[6].nic.mac1609_4 	TotalLostPackets 	0
scalar IntersectionExampleScenario.node[6].nic.mac1609_4 	DroppedPacketsInMac 	0
scalar IntersectionExampleScenario.node[6].nic.mac1609_4 	TooLittleTime 	0
scalar IntersectionExampleScenario.node[6].nic.mac1609_4 	TimesIntoBackoff 	0
scalar IntersectionExampleScenario.node[6].nic.mac1609_4 	SlotsBackoff 	0
scalar IntersectionExampleScenario.node[6].nic.mac1609_4 	NumInternalContention 	0
scalar IntersectionExampleScenario.node[6].nic.mac1609_4 	totalBusyTime 	0
scalar IntersectionExampleScenario.node[6].veinsmobility 	startTime 	31
scalar IntersectionExampleScenario.node[6].veinsmobility 	totalTime 	58
scalar IntersectionExampleScenario.node[6].veinsmobility 	stopTime 	89.25
scalar IntersectionExampleScenario.node[6].veinsmobility 	minSpeed 	0
scalar IntersectionExampleScenario.node[6].veinsmobility 	maxSpeed 	15.875
scalar IntersectionExampleScenario.node[6].veinsmobility 	totalDistance 	546.62429505904
scalar IntersectionExampleScenario.node[6].veinsmobility 	totalCO2Emission 	147.94915969947
scalar IntersectionExampleScenario.node[7].appl 	VehicleRemoved 	0
scalar IntersectionExampleScenario.node[7].appl 	ArrivedAtDest 	1
scalar IntersectionExampleScenario.node[7].appl 	IntersectionEnterTime 	31.75
scalar IntersectionExampleScenario.node[7].appl 	IntersectionExitTime 	74.302638452587
scalar IntersectionExampleScenario.node[7].appl 	NumberOfCollisions 	0
scalar IntersectionExampleScenario.node[7].nic.phy80211p 	busyTime 	0
scalar IntersectionExampleScenario.node[7].nic.mac1609_4 	ReceivedUnicastPackets 	0
scalar IntersectionExampleScenario.node[7].nic.mac1609_4 	ReceivedBroadcasts 	0
scalar IntersectionExampleScenario.node[7].nic.mac1609_4 	SentPackets 	0
scalar IntersectionExampleScenario.node[7].nic.mac1609_4 	SNIRLostPackets 	0
scalar IntersectionExampleScenario.node[7].nic.mac1609_4 	RXTXLostPackets 	0
scalar IntersectionExampleScenario.node[7].nic.mac1609_4 	TotalLostPackets 	0
scalar IntersectionExampleScenario.node[7].nic.mac1609_4 	DroppedPacketsInMac 	0
scalar IntersectionExampleScenario.node[7].nic.mac1609_4 	TooLittleTime 	0
scalar IntersectionExampleScenario.node[7].nic.mac1609_4 	TimesIntoBackoff 	0
scalar IntersectionExampleScenario.node[7].nic.mac1609_4 	SlotsBackoff 	0
scalar IntersectionExampleScenario.node[7].nic.mac1609_4 	NumInternalContention 	0
scalar IntersectionExampleScenario.node[7].nic.mac1609_4 	totalBusyTime 	0
scalar IntersectionExampleScenario.node[7].veinsmobility 	startTime 	31.75
scalar IntersectionExampleScenario.node[7].veinsmobility 	totalTime 	59
scalar IntersectionExampleScenario.node[7].veinsmobility 	stopTime 	91
scalar IntersectionExampleScenario.node[7].veinsmobility 	minSpeed 	0
scalar IntersectionExampleScenario.node[7].veinsmobility 	maxSpeed 	14.894940376282
scalar IntersectionExampleScenario.node[7].veinsmobility 	totalDistance 	573.9868850708
scalar IntersectionExampleScenario.node[7].veinsmobility 	totalCO2Emission 	147.20151681773
scalar IntersectionExampleScenario.node[8].appl 	VehicleRemoved 	0
scalar IntersectionExampleScenario.node[8].appl 	ArrivedAtDest 	1
scalar IntersectionExampleScenario.node[8].appl 	IntersectionEnterTime 	35.25
scalar IntersectionExampleScenario.node[8].appl 	IntersectionExitTime 	77.289439454238
scalar IntersectionExampleScenario.node[8].appl 	NumberOfCollisions 	0
scalar IntersectionExampleScenario.node[8].nic.phy80211p 	busyTime 	0
scalar IntersectionExampleScenario.node[8].nic.mac1609_4 	ReceivedUnicastPackets 	0
scalar IntersectionExampleScenario.node[8].nic.mac1609_4 	ReceivedBroadcasts 	0
scalar IntersectionExampleScenario.node[8].nic.mac1609_4 	SentPackets 	0
scalar IntersectionExampleScenario.node[8].nic.mac1609_4 	SNIRLostPackets 	0
scalar IntersectionExampleScenario.node[8].nic.mac1609_4 	RXTXLostPackets 	0
scalar IntersectionExampleScenario.node[8].nic.mac1609_4 	TotalLostPackets 	0
scalar IntersectionExampleScenario.node[8].nic.mac1609_4 	DroppedPacketsInMac 	0
scalar IntersectionExampleScenario.node[8].nic.mac1609_4 	TooLittleTime 	0
scalar IntersectionExampleScenario.node[8].nic.mac1609_4 	TimesIntoBackoff 	0
scalar IntersectionExampleScenario.node[8].nic.mac1609_4 	SlotsBackoff 	0
scalar IntersectionExampleScenario.node[8].nic.mac1609_4 	NumInternalContention 	0
scalar IntersectionExampleScenario.node[8].nic.mac1609_4 	totalBusyTime 	0
scalar IntersectionExampleScenario.node[8].veinsmobility 	startTime 	35.25
scalar IntersectionExampleScenario.node[8].veinsmobility 	totalTime 	59
scalar IntersectionExampleScenario.node[8].veinsmobility 	stopTime 	94.5
scalar IntersectionExampleScenario.node[8].veinsmobility 	minSpeed 	0
scalar IntersectionExampleScenario.node[8].veinsmobility 	maxSpeed 	14.75
scalar IntersectionExampleScenario.node[8].veinsmobility 	totalDistance 	554.74066162109
scalar IntersectionExampleScenario.node[8].veinsmobility 	totalCO2Emission 	144.51084105921
scalar IntersectionExampleScenario.node[11].appl 	VehicleRemoved 	0
scalar IntersectionExampleScenario.node[11].appl 	ArrivedAtDest 	1
scalar IntersectionExampleScenario.node[11].appl 	IntersectionEnterTime 	48.25
scalar IntersectionExampleScenario.node[11].appl 	IntersectionExitTime 	78.51202153237
scalar IntersectionExampleScenario.node[11].appl 	NumberOfCollisions 	0
scalar IntersectionExampleScenario.node[11].nic.phy80211p 	busyTime 	0
scalar IntersectionExampleScenario.node[11].nic.mac1609_4 	ReceivedUnicastPackets 	0
scalar IntersectionExampleScenario.node[11].nic.mac1609_4 	ReceivedBroadcasts 	0
scalar IntersectionExampleScenario.node[11].nic.mac1609_4 	SentPackets 	0
scalar IntersectionExampleScenario.node[11].nic.mac1609_4 	SNIRLostPackets 	0
scalar IntersectionExampleScenario.node[11].nic.mac1609_4 	RXTXLostPackets 	0
scalar IntersectionExampleScenario.node[11].nic.mac1609_4 	TotalLostPackets 	0
scalar IntersectionExampleScenario.node[11].nic.mac1609_4 	DroppedPacketsInMac 	0
scalar IntersectionExampleScenario.node[11].nic.mac1609_4 	TooLittleTime 	0
scalar IntersectionExampleScenario.node[11].nic.mac1609_4 	TimesIntoBackoff 	0
scalar IntersectionExampleScenario.node[11].nic.mac1609_4 	SlotsBackoff 	0
scalar IntersectionExampleScenario.node[11].nic.mac1609_4 	NumInternalContention 	0
scalar IntersectionExampleScenario.node[11].nic.mac1609_4 	totalBusyTime 	0
scalar IntersectionExampleScenario.node[11].veinsmobility 	startTime 	48.25
scalar IntersectionExampleScenario.node[11].veinsmobility 	totalTime 	47
scalar IntersectionExampleScenario.node[11].veinsmobility 	stopTime 	95.5
scalar IntersectionExampleScenario.node[11].veinsmobility 	minSpeed 	2.4941158294678
scalar IntersectionExampleScenario.node[11].veinsmobility 	maxSpeed 	15.64999961853
scalar IntersectionExampleScenario.node[11].veinsmobility 	totalDistance 	544.71081049652
scalar IntersectionExampleScenario.node[11].veinsmobility 	totalCO2Emission 	136.50874731863
scalar IntersectionExampleScenario.node[19].appl 	VehicleRemoved 	0
scalar IntersectionExampleScenario.node[19].appl 	ArrivedAtDest 	1
scalar IntersectionExampleScenario.node[19].appl 	IntersectionEnterTime 	59.5
scalar IntersectionExampleScenario.node[19].appl 	IntersectionExitTime 	83.329729559831
scalar IntersectionExampleScenario.node[19].appl 	NumberOfCollisions 	0
scalar IntersectionExampleScenario.node[19].nic.phy80211p 	busyTime 	0
scalar IntersectionExampleScenario.node[19].nic.mac1609_4 	ReceivedUnicastPackets 	0
scalar IntersectionExampleScenario.node[19].nic.mac1609_4 	ReceivedBroadcasts 	0
scalar IntersectionExampleScenario.node[19].nic.mac1609_4 	SentPackets 	0
scalar IntersectionExampleScenario.node[19].nic.mac1609_4 	SNIRLostPackets 	0
scalar IntersectionExampleScenario.node[19].nic.mac1609_4 	RXTXLostPackets 	0
scalar IntersectionExampleScenario.node[19].nic.mac1609_4 	TotalLostPackets 	0
scalar IntersectionExampleScenario.node[19].nic.mac1609_4 	DroppedPacketsInMac 	0
scalar IntersectionExampleScenario.node[19].nic.mac1609_4 	TooLittleTime 	0
scalar IntersectionExampleScenario.node[19].nic.mac1609_4 	TimesIntoBackoff 	0
scalar IntersectionExampleScenario.node[19].nic.mac1609_4 	SlotsBackoff 	0
scalar IntersectionExampleScenario.node[19].nic.mac1609_4 	NumInternalContention 	0
scalar IntersectionExampleScenario.node[19].nic.mac1609_4 	totalBusyTime 	0
scalar IntersectionExampleScenario.node[19].veinsmobility 	startTime 	59.5
scalar IntersectionExampleScenario.node[19].veinsmobility 	totalTime 	40.5
scalar IntersectionExampleScenario.node[19].veinsmobility 	stopTime 	100.25
scalar IntersectionExampleScenario.node[19].veinsmobility 	minSpeed 	5.6500000953674
scalar IntersectionExampleScenario.node[19].veinsmobility 	maxSpeed 	15.73572063446
scalar IntersectionExampleScenario.node[19].veinsmobility 	totalDistance 	545.43217136866
scalar IntersectionExampleScenario.node[19].veinsmobility 	totalCO2Emission 	135.4381998382
scalar IntersectionExampleScenario.node[9].appl 	VehicleRemoved 	0
scalar IntersectionExampleScenario.node[9].appl 	ArrivedAtDest 	1
scalar IntersectionExampleScenario.node[9].appl 	IntersectionEnterTime 	38
scalar IntersectionExampleScenario.node[9].appl 	IntersectionExitTime 	85.593768039049
scalar IntersectionExampleScenario.node[9].appl 	NumberOfCollisions 	0
scalar IntersectionExampleScenario.node[9].nic.phy80211p 	busyTime 	0
scalar IntersectionExampleScenario.node[9].nic.mac1609_4 	ReceivedUnicastPackets 	0
scalar IntersectionExampleScenario.node[9].nic.mac1609_4 	ReceivedBroadcasts 	0
scalar IntersectionExampleScenario.node[9].nic.mac1609_4 	SentPackets 	0
scalar IntersectionExampleScenario.node[9].nic.mac1609_4 	SNIRLostPackets 	0
scalar IntersectionExampleScenario.node[9].nic.mac1609_4 	RXTXLostPackets 	0
scalar IntersectionExampleScenario.node[9].nic.mac1609_4 	TotalLostPackets 	0
scalar IntersectionExampleScenario.node[9].nic.mac1609_4 	DroppedPacketsInMac 	0
scalar IntersectionExampleScenario.node[9].nic.mac1609_4 	TooLittleTime 	0
scalar IntersectionExampleScenario.node[9].nic.mac1609_4 	TimesIntoBackoff 	0
scalar IntersectionExampleScenario.node[9].nic.mac1609_4 	SlotsBackoff 	0
scalar IntersectionExampleScenario.node[9].nic.mac1609_4 	NumInternalContention 	0
scalar IntersectionExampleScenario.node[9].nic.mac1609_4 	totalBusyTime 	0
scalar IntersectionExampleScenario.node[9].veinsmobility 	startTime 	38
scalar IntersectionExampleScenario.node[9].veinsmobility 	totalTime 	64
scalar IntersectionExampleScenario.node[9].veinsmobility 	stopTime 	102.25
scalar IntersectionExampleScenario.node[9].veinsmobility 	minSpeed 	0
scalar IntersectionExampleScenario.node[9].veinsmobility 	maxSpeed 	15.64999961853
scalar IntersectionExampleScenario.node[9].veinsmobility 	totalDistance 	554.4931640625
scalar IntersectionExampleScenario.node[9].veinsmobility 	totalCO2Emission 	156.49962482348
scalar IntersectionExampleScenario.node[14].appl 	VehicleRemoved 	0
scalar IntersectionExampleScenario.node[14].appl 	ArrivedAtDest 	1
scalar IntersectionExampleScenario.node[14].appl 	IntersectionEnterTime 	50.25
scalar IntersectionExampleScenario.node[14].appl 	IntersectionExitTime 	86.282622372673
scalar IntersectionExampleScenario.node[14].appl 	NumberOfCollisions 	0
scalar IntersectionExampleScenario.node[14].nic.phy80211p 	busyTime 	0
scalar IntersectionExampleScenario.node[14].nic.mac1609_4 	ReceivedUnicastPackets 	0
scalar IntersectionExampleScenario.node[14].nic.mac1609_4 	ReceivedBroadcasts 	0
scalar IntersectionExampleScenario.node[14].nic.mac1609_4 	SentPackets 	0
scalar IntersectionExampleScenario.node[14].nic.mac1609_4 	SNIRLostPackets 	0
scalar IntersectionExampleScenario.node[14].nic.mac1609_4 	RXTXLostPackets 	0
scalar IntersectionExampleScenario.node[14].nic.mac1609_4 	TotalLostPackets 	0
scalar IntersectionExampleScenario.node[14].nic.mac1609_4 	DroppedPacketsInMac 	0
scalar IntersectionExampleScenario.node[14].nic.mac1609_4 	TooLittleTime 	0
scalar IntersectionExampleScenario.node[14].nic.mac1609_4 	TimesIntoBackoff 	0
scalar IntersectionExampleScenario.node[14].nic.mac1609_4 	SlotsBackoff 	0
scalar IntersectionExampleScenario.node[14].nic.mac1609_4 	NumInternalContention 	0
scalar IntersectionExampleScenario.node[14].nic.mac1609_4 	totalBusyTime 	0
scalar IntersectionExampleScenario.node[14].veinsmobility 	startTime 	50.25
scalar IntersectionExampleScenario.node[14].veinsmobility 	totalTime 	53
scalar IntersectionExampleScenario.node[14].veinsmobility 	stopTime 	103.5
scalar IntersectionExampleScenario.node[14].veinsmobility 	minSpeed 	0
scalar IntersectionExampleScenario.node[14].veinsmobility 	maxSpeed 	15.25
scalar IntersectionExampleScenario.node[14].veinsmobility 	totalDistance 	545.27942335913
scalar IntersectionExampleScenario.node[14].veinsmobility 	totalCO2Emission 	138.97961731159
scalar IntersectionExampleScenario.node[15].appl 	VehicleRemoved 	0
scalar IntersectionExampleScenario.node[15].appl 	ArrivedAtDest 	1
scalar IntersectionExampleScenario.node[15].appl 	IntersectionEnterTime 	50.75
scalar IntersectionExampleScenario.node[15].appl 	IntersectionExitTime 	88.311632449186
scalar IntersectionExampleScenario.node[15].appl 	NumberOfCollisions 	0
scalar IntersectionExampleScenario.node[15].nic.phy80211p 	busyTime 	0
scalar IntersectionExampleScenario.node[15].nic.mac1609_4 	ReceivedUnicastPackets 	0
scalar IntersectionExampleScenario.node[15].nic.mac1609_4 	ReceivedBroadcasts 	0
scalar IntersectionExampleScenario.node[15].nic.mac1609_4 	SentPackets 	0
scalar IntersectionExampleScenario.node[15].nic.mac1609_4 	SNIRLostPackets 	0
scalar IntersectionExampleScenario.node[15].nic.mac1609_4 	RXTXLostPackets 	0
scalar IntersectionExampleScenario.node[15].nic.mac1609_4 	TotalLostPackets 	0
scalar IntersectionExampleScenario.node[15].nic.mac1609_4 	DroppedPacketsInMac 	0
scalar IntersectionExampleScenario.node[15].nic.mac1609_4 	TooLittleTime 	0
scalar IntersectionExampleScenario.node[15].nic.mac1609_4 	TimesIntoBackoff 	0
scalar IntersectionExampleScenario.node[15].nic.mac1609_4 	SlotsBackoff 	0
scalar IntersectionExampleScenario.node[15].nic.mac1609_4 	NumInternalContention 	0
scalar IntersectionExampleScenario.node[15].nic.mac1609_4 	totalBusyTime 	0
scalar IntersectionExampleScenario.node[15].veinsmobility 	startTime 	50.75
scalar IntersectionExampleScenario.node[15].veinsmobility 	totalTime 	53.75
scalar IntersectionExampleScenario.node[15].veinsmobility 	stopTime 	104.75
scalar IntersectionExampleScenario.node[15].veinsmobility 	minSpeed 	1.497428894043
scalar IntersectionExampleScenario.node[15].veinsmobility 	maxSpeed 	15.997673988342
scalar IntersectionExampleScenario.node[15].veinsmobility 	totalDistance 	569.00556127635
scalar IntersectionExampleScenario.node[15].veinsmobility 	totalCO2Emission 	153.30350928675
scalar IntersectionExampleScenario.node[12].appl 	VehicleRemoved 	0
scalar IntersectionExampleScenario.node[12].appl 	ArrivedAtDest 	1
scalar IntersectionExampleScenario.node[12].appl 	IntersectionEnterTime 	48.75
scalar IntersectionExampleScenario.node[12].appl 	IntersectionExitTime 	93.260452875664
scalar IntersectionExampleScenario.node[12].appl 	NumberOfCollisions 	0
scalar IntersectionExampleScenario.node[12].nic.phy80211p 	busyTime 	0
scalar IntersectionExampleScenario.node[12].nic.mac1609_4 	ReceivedUnicastPackets 	0
scalar IntersectionExampleScenario.node[12].nic.mac1609_4 	ReceivedBroadcasts 	0
scalar IntersectionExampleScenario.node[12].nic.mac1609_4 	SentPackets 	0
scalar IntersectionExampleScenario.node[12].nic.mac1609_4 	SNIRLostPackets 	0
scalar IntersectionExampleScenario.node[12].nic.mac1609_4 	RXTXLostPackets 	0
scalar IntersectionExampleScenario.node[12].nic.mac1609_4 	TotalLostPackets 	0
scalar IntersectionExampleScenario.node[12].nic.mac1609_4 	DroppedPacketsInMac 	0
scalar IntersectionExampleScenario.node[12].nic.mac1609_4 	TooLittleTime 	0
scalar IntersectionExampleScenario.node[12].nic.mac1609_4 	TimesIntoBackoff 	0
scalar IntersectionExampleScenario.node[12].nic.mac1609_4 	SlotsBackoff 	0
scalar IntersectionExampleScenario.node[12].nic.mac1609_4 	NumInternalContention 	0
scalar IntersectionExampleScenario.node[12].nic.mac1609_4 	totalBusyTime 	0
scalar IntersectionExampleScenario.node[12].veinsmobility 	startTime 	48.75
scalar IntersectionExampleScenario.node[12].veinsmobility 	totalTime 	60.75
scalar IntersectionExampleScenario.node[12].veinsmobility 	stopTime 	109.75
scalar IntersectionExampleScenario.node[12].veinsmobility 	minSpeed 	0
scalar IntersectionExampleScenario.node[12].veinsmobility 	maxSpeed 	15.375
scalar IntersectionExampleScenario.node[12].veinsmobility 	totalDistance 	553.95890045166
scalar IntersectionExampleScenario.node[12].veinsmobility 	totalCO2Emission 	151.55230122193
scalar IntersectionExampleScenario.node[13].appl 	VehicleRemoved 	0
scalar IntersectionExampleScenario.node[13].appl 	ArrivedAtDest 	1
scalar IntersectionExampleScenario.node[13].appl 	IntersectionEnterTime 	50.25
scalar IntersectionExampleScenario.node[13].appl 	IntersectionExitTime 	94.323048640479
scalar IntersectionExampleScenario.node[13].appl 	NumberOfCollisions 	0
scalar IntersectionExampleScenario.node[13].nic.phy80211p 	busyTime 	0
scalar IntersectionExampleScenario.node[13].nic.mac1609_4 	ReceivedUnicastPackets 	0
scalar IntersectionExampleScenario.node[13].nic.mac1609_4 	ReceivedBroadcasts 	0
scalar IntersectionExampleScenario.node[13].nic.mac1609_4 	SentPackets 	0
scalar IntersectionExampleScenario.node[13].nic.mac1609_4 	SNIRLostPackets 	0
scalar IntersectionExampleScenario.node[13].nic.mac1609_4 	RXTXLostPackets 	0
scalar IntersectionExampleScenario.node[13].nic.mac1609_4 	TotalLostPackets 	0
scalar IntersectionExampleScenario.node[13].nic.mac1609_4 	DroppedPacketsInMac 	0
scalar IntersectionExampleScenario.node[13].nic.mac1609_4 	TooLittleTime 	0
scalar IntersectionExampleScenario.node[13].nic.mac1609_4 	TimesIntoBackoff 	0
scalar IntersectionExampleScenario.node[13].nic.mac1609_4 	SlotsBackoff 	0
scalar IntersectionExampleScenario.node[13].nic.mac1609_4 	NumInternalContention 	0
scalar IntersectionExampleScenario.node[13].nic.mac1609_4 	totalBusyTime 	0
scalar IntersectionExampleScenario.node[13].veinsmobility 	startTime 	50.25
scalar IntersectionExampleScenario.node[13].veinsmobility 	totalTime 	59.75
scalar IntersectionExampleScenario.node[13].veinsmobility 	stopTime 	110.25
scalar IntersectionExampleScenario.node[13].veinsmobility 	minSpeed 	0
scalar IntersectionExampleScenario.node[13].veinsmobility 	maxSpeed 	16
scalar IntersectionExampleScenario.node[13].veinsmobility 	totalDistance 	570.08438450508
scalar IntersectionExampleScenario.node[13].veinsmobility 	totalCO2Emission 	158.21076336585
scalar IntersectionExampleScenario.node[20].appl 	VehicleRemoved 	0
scalar IntersectionExampleScenario.node[20].appl 	ArrivedAtDest 	1
scalar IntersectionExampleScenario.node[20].appl 	IntersectionEnterTime 	69.75
scalar IntersectionExampleScenario.node[20].appl 	IntersectionExitTime 	96.093867804651
scalar IntersectionExampleScenario.node[20].appl 	NumberOfCollisions 	0
scalar IntersectionExampleScenario.node[20].nic.phy80211p 	busyTime 	0
scalar IntersectionExampleScenario.node[20].nic.mac1609_4 	ReceivedUnicastPackets 	0
scalar IntersectionExampleScenario.node[20].nic.mac1609_4 	ReceivedBroadcasts 	0
scalar IntersectionExampleScenario.node[20].nic.mac1609_4 	SentPackets 	0
scalar IntersectionExampleScenario.node[20].nic.mac1609_4 	SNIRLostPackets 	0
scalar IntersectionExampleScenario.node[20].nic.mac1609_4 	RXTXLostPackets 	0
scalar IntersectionExampleScenario.node[20].nic.mac1609_4 	TotalLostPackets 	0
scalar IntersectionExampleScenario.node[20].nic.mac1609_4 	DroppedPacketsInMac 	0
scalar IntersectionExampleScenario.node[20].nic.mac1609_4 	TooLittleTime 	0
scalar IntersectionExampleScenario.node[20].nic.mac1609_4 	TimesIntoBackoff 	0
scalar IntersectionExampleScenario.node[20].nic.mac1609_4 	SlotsBackoff 	0
scalar IntersectionExampleScenario.node[20].nic.mac1609_4 	NumInternalContention 	0
scalar IntersectionExampleScenario.node[20].nic.mac1609_4 	totalBusyTime 	0
scalar IntersectionExampleScenario.node[20].veinsmobility 	startTime 	69.75
scalar IntersectionExampleScenario.node[20].veinsmobility 	totalTime 	41.75
scalar IntersectionExampleScenario.node[20].veinsmobility 	stopTime 	111.75
scalar IntersectionExampleScenario.node[20].veinsmobility 	minSpeed 	5.6398410797119
scalar IntersectionExampleScenario.node[20].veinsmobility 	maxSpeed 	16.27499961853
scalar IntersectionExampleScenario.node[20].veinsmobility 	totalDistance 	551.23679351807
scalar IntersectionExampleScenario.node[20].veinsmobility 	totalCO2Emission 	133.03614627848
scalar IntersectionExampleScenario.node[10].appl 	VehicleRemoved 	0
scalar IntersectionExampleScenario.node[10].appl 	ArrivedAtDest 	1
scalar IntersectionExampleScenario.node[10].appl 	IntersectionEnterTime 	41.75
scalar IntersectionExampleScenario.node[10].appl 	IntersectionExitTime 	100.30576681258
scalar IntersectionExampleScenario.node[10].appl 	NumberOfCollisions 	0
scalar IntersectionExampleScenario.node[10].nic.phy80211p 	busyTime 	0
scalar IntersectionExampleScenario.node[10].nic.mac1609_4 	ReceivedUnicastPackets 	0
scalar IntersectionExampleScenario.node[10].nic.mac1609_4 	ReceivedBroadcasts 	0
scalar IntersectionExampleScenario.node[10].nic.mac1609_4 	SentPackets 	0
scalar IntersectionExampleScenario.node[10].nic.mac1609_4 	SNIRLostPackets 	0
scalar IntersectionExampleScenario.node[10].nic.mac1609_4 	RXTXLostPackets 	0
scalar IntersectionExampleScenario.node[10].nic.mac1609_4 	TotalLostPackets 	0
scalar IntersectionExampleScenario.node[10].nic.mac1609_4 	DroppedPacketsInMac 	0
scalar IntersectionExampleScenario.node[10].nic.mac1609_4 	TooLittleTime 	0
scalar IntersectionExampleScenario.node[10].nic.mac1609_4 	TimesIntoBackoff 	0
scalar IntersectionExampleScenario.node[10].nic.mac1609_4 	SlotsBackoff 	0
scalar IntersectionExampleScenario.node[10].nic.mac1609_4 	NumInternalContention 	0
scalar IntersectionExampleScenario.node[10].nic.mac1609_4 	totalBusyTime 	0
scalar IntersectionExampleScenario.node[10].veinsmobility 	startTime 	41.75
scalar IntersectionExampleScenario.node[10].veinsmobility 	totalTime 	74
scalar IntersectionExampleScenario.node[10].veinsmobility 	stopTime 	116
scalar IntersectionExampleScenario.node[10].veinsmobility 	minSpeed 	0
scalar IntersectionExampleScenario.node[10].veinsmobility 	maxSpeed 	16
scalar IntersectionExampleScenario.node[10].veinsmobility 	totalDistance 	550.89945220947
scalar IntersectionExampleScenario.node[10].veinsmobility 	totalCO2Emission 	172.06205890471
scalar IntersectionExampleScenario.node[18].appl 	VehicleRemoved 	0
scalar IntersectionExampleScenario.node[18].appl 	ArrivedAtDest 	1
scalar IntersectionExampleScenario.node[18].appl 	IntersectionEnterTime 	53
scalar IntersectionExampleScenario.node[18].appl 	IntersectionExitTime 	102.81730308683
scalar IntersectionExampleScenario.node[18].appl 	NumberOfCollisions 	0
scalar IntersectionExampleScenario.node[18].nic.phy80211p 	busyTime 	0
scalar IntersectionExampleScenario.node[18].nic.mac1609_4 	ReceivedUnicastPackets 	0
scalar IntersectionExampleScenario.node[18].nic.mac1609_4 	ReceivedBroadcasts 	0
scalar IntersectionExampleScenario.node[18].nic.mac1609_4 	SentPackets 	0
scalar IntersectionExampleScenario.node[18].nic.mac1609_4 	SNIRLostPackets 	0
scalar IntersectionExampleScenario.node[18].nic.mac1609_4 	RXTXLostPackets 	0
scalar IntersectionExampleScenario.node[18].nic.mac1609_4 	TotalLostPackets 	0
scalar IntersectionExampleScenario.node[18].nic.mac1609_4 	DroppedPacketsInMac 	0
scalar IntersectionExampleScenario.node[18].nic.mac1609_4 	TooLittleTime 	0
scalar IntersectionExampleScenario.node[18].nic.mac1609_4 	TimesIntoBackoff 	0
scalar IntersectionExampleScenario.node[18].nic.mac1609_4 	SlotsBackoff 	0
scalar IntersectionExampleScenario.node[18].nic.mac1609_4 	NumInternalContention 	0
scalar IntersectionExampleScenario.node[18].nic.mac1609_4 	totalBusyTime 	0
scalar IntersectionExampleScenario.node[18].veinsmobility 	startTime 	53
scalar IntersectionExampleScenario.node[18].veinsmobility 	totalTime 	66
scalar IntersectionExampleScenario.node[18].veinsmobility 	stopTime 	119.25
scalar IntersectionExampleScenario.node[18].veinsmobility 	minSpeed 	0
scalar IntersectionExampleScenario.node[18].veinsmobility 	maxSpeed 	15.02499961853
scalar IntersectionExampleScenario.node[18].veinsmobility 	totalDistance 	519.07709503174
scalar IntersectionExampleScenario.node[18].veinsmobility 	totalCO2Emission 	152.71070895414
scalar IntersectionExampleScenario.node[16].appl 	VehicleRemoved 	0
scalar IntersectionExampleScenario.node[16].appl 	ArrivedAtDest 	1
scalar IntersectionExampleScenario.node[16].appl 	IntersectionEnterTime 	51
scalar IntersectionExampleScenario.node[16].appl 	IntersectionExitTime 	104.76749576503
scalar IntersectionExampleScenario.node[16].appl 	NumberOfCollisions 	0
scalar IntersectionExampleScenario.node[16].nic.phy80211p 	busyTime 	0
scalar IntersectionExampleScenario.node[16].nic.mac1609_4 	ReceivedUnicastPackets 	0
scalar IntersectionExampleScenario.node[16].nic.mac1609_4 	ReceivedBroadcasts 	0
scalar IntersectionExampleScenario.node[16].nic.mac1609_4 	SentPackets 	0
scalar IntersectionExampleScenario.node[16].nic.mac1609_4 	SNIRLostPackets 	0
scalar IntersectionExampleScenario.node[16].nic.mac1609_4 	RXTXLostPackets 	0
scalar IntersectionExampleScenario.node[16].nic.mac1609_4 	TotalLostPackets 	0
scalar IntersectionExampleScenario.node[16].nic.mac1609_4 	DroppedPacketsInMac 	0
scalar IntersectionExampleScenario.node[16].nic.mac1609_4 	TooLittleTime 	0
scalar IntersectionExampleScenario.node[16].nic.mac1609_4 	TimesIntoBackoff 	0
scalar IntersectionExampleScenario.node[16].nic.mac1609_4 	SlotsBackoff 	0
scalar IntersectionExampleScenario.node[16].nic.mac1609_4 	NumInternalContention 	0
scalar IntersectionExampleScenario.node[16].nic.mac1609_4 	totalBusyTime 	0
scalar IntersectionExampleScenario.node[16].veinsmobility 	startTime 	51
scalar IntersectionExampleScenario.node[16].veinsmobility 	totalTime 	69.5
scalar IntersectionExampleScenario.node[16].veinsmobility 	stopTime 	120.75
scalar IntersectionExampleScenario.node[16].veinsmobility 	minSpeed 	0
scalar IntersectionExampleScenario.node[16].veinsmobility 	maxSpeed 	15.665773391724
scalar IntersectionExampleScenario.node[16].veinsmobility 	totalDistance 	553.04654693604
scalar IntersectionExampleScenario.node[16].veinsmobility 	totalCO2Emission 	170.60829814866
scalar IntersectionExampleScenario.node[17].appl 	VehicleRemoved 	0
scalar IntersectionExampleScenario.node[17].appl 	ArrivedAtDest 	1
scalar IntersectionExampleScenario.node[17].appl 	IntersectionEnterTime 	52.5
scalar IntersectionExampleScenario.node[17].appl 	IntersectionExitTime 	107.31759852395
scalar IntersectionExampleScenario.node[17].appl 	NumberOfCollisions 	0
scalar IntersectionExampleScenario.node[17].nic.phy80211p 	busyTime 	0
scalar IntersectionExampleScenario.node[17].nic.mac1609_4 	ReceivedUnicastPackets 	0
scalar IntersectionExampleScenario.node[17].nic.mac1609_4 	ReceivedBroadcasts 	0
scalar IntersectionExampleScenario.node[17].nic.mac1609_4 	SentPackets 	0
scalar IntersectionExampleScenario.node[17].nic.mac1609_4 	SNIRLostPackets 	0
scalar IntersectionExampleScenario.node[17].nic.mac1609_4 	RXTXLostPackets 	0
scalar IntersectionExampleScenario.node[17].nic.mac1609_4 	TotalLostPackets 	0
scalar IntersectionExampleScenario.node[17].nic.mac1609_4 	DroppedPacketsInMac 	0
scalar IntersectionExampleScenario.node[17].nic.mac1609_4 	TooLittleTime 	0
scalar IntersectionExampleScenario.node[17].nic.mac1609_4 	TimesIntoBackoff 	0
scalar IntersectionExampleScenario.node[17].nic.mac1609_4 	SlotsBackoff 	0
scalar IntersectionExampleScenario.node[17].nic.mac1609_4 	NumInternalContention 	0
scalar IntersectionExampleScenario.node[17].nic.mac1609_4 	totalBusyTime 	0
scalar IntersectionExampleScenario.node[17].veinsmobility 	startTime 	52.5
scalar IntersectionExampleScenario.node[17].veinsmobility 	totalTime 	70.75
scalar IntersectionExampleScenario.node[17].veinsmobility 	stopTime 	123.5
scalar IntersectionExampleScenario.node[17].veinsmobility 	minSpeed 	0
scalar IntersectionExampleScenario.node[17].veinsmobility 	maxSpeed 	15.562502861023
scalar IntersectionExampleScenario.node[17].veinsmobility 	totalDistance 	574.41397094727
scalar IntersectionExampleScenario.node[17].veinsmobility 	totalCO2Emission 	164.72655066868
scalar IntersectionExampleScenario.node[21].appl 	VehicleRemoved 	0
scalar IntersectionExampleScenario.node[21].appl 	ArrivedAtDest 	1
scalar IntersectionExampleScenario.node[21].appl 	IntersectionEnterTime 	73.25
scalar IntersectionExampleScenario.node[21].appl 	IntersectionExitTime 	109.30351139879
scalar IntersectionExampleScenario.node[21].appl 	NumberOfCollisions 	0
scalar IntersectionExampleScenario.node[21].nic.phy80211p 	busyTime 	0
scalar IntersectionExampleScenario.node[21].nic.mac1609_4 	ReceivedUnicastPackets 	0
scalar IntersectionExampleScenario.node[21].nic.mac1609_4 	ReceivedBroadcasts 	0
scalar IntersectionExampleScenario.node[21].nic.mac1609_4 	SentPackets 	0
scalar IntersectionExampleScenario.node[21].nic.mac1609_4 	SNIRLostPackets 	0
scalar IntersectionExampleScenario.node[21].nic.mac1609_4 	RXTXLostPackets 	0
scalar IntersectionExampleScenario.node[21].nic.mac1609_4 	TotalLostPackets 	0
scalar IntersectionExampleScenario.node[21].nic.mac1609_4 	DroppedPacketsInMac 	0
scalar IntersectionExampleScenario.node[21].nic.mac1609_4 	TooLittleTime 	0
scalar IntersectionExampleScenario.node[21].nic.mac1609_4 	TimesIntoBackoff 	0
scalar IntersectionExampleScenario.node[21].nic.mac1609_4 	SlotsBackoff 	0
scalar IntersectionExampleScenario.node[21].nic.mac1609_4 	NumInternalContention 	0
scalar IntersectionExampleScenario.node[21].nic.mac1609_4 	totalBusyTime 	0
scalar IntersectionExampleScenario.node[21].veinsmobility 	startTime 	73.25
scalar IntersectionExampleScenario.node[21].veinsmobility 	totalTime 	52
scalar IntersectionExampleScenario.node[21].veinsmobility 	stopTime 	125.5
scalar IntersectionExampleScenario.node[21].veinsmobility 	minSpeed 	0
scalar IntersectionExampleScenario.node[21].veinsmobility 	maxSpeed 	15.64999961853
scalar IntersectionExampleScenario.node[21].veinsmobility 	totalDistance 	551.9105682373
scalar IntersectionExampleScenario.node[21].veinsmobility 	totalCO2Emission 	144.04917811053
scalar IntersectionExampleScenario.node[26].appl 	VehicleRemoved 	0
scalar IntersectionExampleScenario.node[26].appl 	ArrivedAtDest 	1
scalar IntersectionExampleScenario.node[26].appl 	IntersectionEnterTime 	79
scalar IntersectionExampleScenario.node[26].appl 	IntersectionExitTime 	111.2519776551
scalar IntersectionExampleScenario.node[26].appl 	NumberOfCollisions 	0
scalar IntersectionExampleScenario.node[26].nic.phy80211p 	busyTime 	0
scalar IntersectionExampleScenario.node[26].nic.mac1609_4 	ReceivedUnicastPackets 	0
scalar IntersectionExampleScenario.node[26].nic.mac1609_4 	ReceivedBroadcasts 	0
scalar IntersectionExampleScenario.node[26].nic.mac1609_4 	SentPackets 	0
scalar IntersectionExampleScenario.node[26].nic.mac1609_4 	SNIRLostPackets 	0
scalar IntersectionExampleScenario.node[26].nic.mac1609_4 	RXTXLostPackets 	0
scalar IntersectionExampleScenario.node[26].nic.mac1609_4 	TotalLostPackets 	0
scalar IntersectionExampleScenario.node[26].nic.mac1609_4 	DroppedPacketsInMac 	0
scalar IntersectionExampleScenario.node[26].nic.mac1609_4 	TooLittleTime 	0
scalar IntersectionExampleScenario.node[26].nic.mac1609_4 	TimesIntoBackoff 	0
scalar IntersectionExampleScenario.node[26].nic.mac1609_4 	SlotsBackoff 	0
scalar IntersectionExampleScenario.node[26].nic.mac1609_4 	NumInternalContention 	0
scalar IntersectionExampleScenario.node[26].nic.mac1609_4 	totalBusyTime 	0
scalar IntersectionExampleScenario.node[26].veinsmobility 	startTime 	79
scalar IntersectionExampleScenario.node[26].veinsmobility 	totalTime 	48.25
scalar IntersectionExampleScenario.node[26].veinsmobility 	stopTime 	127.5
scalar IntersectionExampleScenario.node[26].veinsmobility 	minSpeed 	0.85240632295609
scalar IntersectionExampleScenario.node[26].veinsmobility 	maxSpeed 	15.64999961853
scalar IntersectionExampleScenario.node[26].veinsmobility 	totalDistance 	553.93193054199
scalar IntersectionExampleScenario.node[26].veinsmobility 	totalCO2Emission 	137.98965986504
scalar IntersectionExampleScenario.node[28].appl 	VehicleRemoved 	0
scalar IntersectionExampleScenario.node[28].appl 	ArrivedAtDest 	1
scalar IntersectionExampleScenario.node[28].appl 	IntersectionEnterTime 	81.5
scalar IntersectionExampleScenario.node[28].appl 	IntersectionExitTime 	113.5082500217
scalar IntersectionExampleScenario.node[28].appl 	NumberOfCollisions 	0
scalar IntersectionExampleScenario.node[28].nic.phy80211p 	busyTime 	0
scalar IntersectionExampleScenario.node[28].nic.mac1609_4 	ReceivedUnicastPackets 	0
scalar IntersectionExampleScenario.node[28].nic.mac1609_4 	ReceivedBroadcasts 	0
scalar IntersectionExampleScenario.node[28].nic.mac1609_4 	SentPackets 	0
scalar IntersectionExampleScenario.node[28].nic.mac1609_4 	SNIRLostPackets 	0
scalar IntersectionExampleScenario.node[28].nic.mac1609_4 	RXTXLostPackets 	0
scalar IntersectionExampleScenario.node[28].nic.mac1609_4 	TotalLostPackets 	0
scalar IntersectionExampleScenario.node[28].nic.mac1609_4 	DroppedPacketsInMac 	0
scalar IntersectionExampleScenario.node[28].nic.mac1609_4 	TooLittleTime 	0
scalar IntersectionExampleScenario.node[28].nic.mac1609_4 	TimesIntoBackoff 	0
scalar IntersectionExampleScenario.node[28].nic.mac1609_4 	SlotsBackoff 	0
scalar IntersectionExampleScenario.node[28].nic.mac1609_4 	NumInternalContention 	0
scalar IntersectionExampleScenario.node[28].nic.mac1609_4 	totalBusyTime 	0
scalar IntersectionExampleScenario.node[28].veinsmobility 	startTime 	81.5
scalar IntersectionExampleScenario.node[28].veinsmobility 	totalTime 	48.25
scalar IntersectionExampleScenario.node[28].veinsmobility 	stopTime 	130
scalar IntersectionExampleScenario.node[28].veinsmobility 	minSpeed 	4.1687860488892
scalar IntersectionExampleScenario.node[28].veinsmobility 	maxSpeed 	15.313927650452
scalar IntersectionExampleScenario.node[28].veinsmobility 	totalDistance 	568.56707763672
scalar IntersectionExampleScenario.node[28].veinsmobility 	totalCO2Emission 	138.29299115747
scalar IntersectionExampleScenario.node[30].appl 	VehicleRemoved 	0
scalar IntersectionExampleScenario.node[30].appl 	ArrivedAtDest 	1
scalar IntersectionExampleScenario.node[30].appl 	IntersectionEnterTime 	87
scalar IntersectionExampleScenario.node[30].appl 	IntersectionExitTime 	115.51342066354
scalar IntersectionExampleScenario.node[30].appl 	NumberOfCollisions 	0
scalar IntersectionExampleScenario.node[30].nic.phy80211p 	busyTime 	0
scalar IntersectionExampleScenario.node[30].nic.mac1609_4 	ReceivedUnicastPackets 	0
scalar IntersectionExampleScenario.node[30].nic.mac1609_4 	ReceivedBroadcasts 	0
scalar IntersectionExampleScenario.node[30].nic.mac1609_4 	SentPackets 	0
scalar IntersectionExampleScenario.node[30].nic.mac1609_4 	SNIRLostPackets 	0
scalar IntersectionExampleScenario.node[30].nic.mac1609_4 	RXTXLostPackets 	0
scalar IntersectionExampleScenario.node[30].nic.mac1609_4 	TotalLostPackets 	0
scalar IntersectionExampleScenario.node[30].nic.mac1609_4 	DroppedPacketsInMac 	0
scalar IntersectionExampleScenario.node[30].nic.mac1609_4 	TooLittleTime 	0
scalar IntersectionExampleScenario.node[30].nic.mac1609_4 	TimesIntoBackoff 	0
scalar IntersectionExampleScenario.node[30].nic.mac1609_4 	SlotsBackoff 	0
scalar IntersectionExampleScenario.node[30].nic.mac1609_4 	NumInternalContention 	0
scalar IntersectionExampleScenario.node[30].nic.mac1609_4 	totalBusyTime 	0
scalar IntersectionExampleScenario.node[30].veinsmobility 	startTime 	87
scalar IntersectionExampleScenario.node[30].veinsmobility 	totalTime 	45
scalar IntersectionExampleScenario.node[30].veinsmobility 	stopTime 	132.25
scalar IntersectionExampleScenario.node[30].veinsmobility 	minSpeed 	3.2384116649628
scalar IntersectionExampleScenario.node[30].veinsmobility 	maxSpeed 	15.02499961853
scalar IntersectionExampleScenario.node[30].veinsmobility 	totalDistance 	530.24229431152
scalar IntersectionExampleScenario.node[30].veinsmobility 	totalCO2Emission 	127.58593491751
scalar IntersectionExampleScenario.node[23].appl 	VehicleRemoved 	0
scalar IntersectionExampleScenario.node[23].appl 	ArrivedAtDest 	1
scalar IntersectionExampleScenario.node[23].appl 	IntersectionEnterTime 	77.75
scalar IntersectionExampleScenario.node[23].appl 	IntersectionExitTime 	116.55101710051
scalar IntersectionExampleScenario.node[23].appl 	NumberOfCollisions 	0
scalar IntersectionExampleScenario.node[23].nic.phy80211p 	busyTime 	0
scalar IntersectionExampleScenario.node[23].nic.mac1609_4 	ReceivedUnicastPackets 	0
scalar IntersectionExampleScenario.node[23].nic.mac1609_4 	ReceivedBroadcasts 	0
scalar IntersectionExampleScenario.node[23].nic.mac1609_4 	SentPackets 	0
scalar IntersectionExampleScenario.node[23].nic.mac1609_4 	SNIRLostPackets 	0
scalar IntersectionExampleScenario.node[23].nic.mac1609_4 	RXTXLostPackets 	0
scalar IntersectionExampleScenario.node[23].nic.mac1609_4 	TotalLostPackets 	0
scalar IntersectionExampleScenario.node[23].nic.mac1609_4 	DroppedPacketsInMac 	0
scalar IntersectionExampleScenario.node[23].nic.mac1609_4 	TooLittleTime 	0
scalar IntersectionExampleScenario.node[23].nic.mac1609_4 	TimesIntoBackoff 	0
scalar IntersectionExampleScenario.node[23].nic.mac1609_4 	SlotsBackoff 	0
scalar IntersectionExampleScenario.node[23].nic.mac1609_4 	NumInternalContention 	0
scalar IntersectionExampleScenario.node[23].nic.mac1609_4 	totalBusyTime 	0
scalar IntersectionExampleScenario.node[23].veinsmobility 	startTime 	77.75
scalar IntersectionExampleScenario.node[23].veinsmobility 	totalTime 	55.5
scalar IntersectionExampleScenario.node[23].veinsmobility 	stopTime 	133.5
scalar IntersectionExampleScenario.node[23].veinsmobility 	minSpeed 	0
scalar IntersectionExampleScenario.node[23].veinsmobility 	maxSpeed 	15.64999961853
scalar IntersectionExampleScenario.node[23].veinsmobility 	totalDistance 	544.42742062957
scalar IntersectionExampleScenario.node[23].veinsmobility 	totalCO2Emission 	147.64577786604
scalar IntersectionExampleScenario.node[27].appl 	VehicleRemoved 	0
scalar IntersectionExampleScenario.node[27].appl 	ArrivedAtDest 	1
scalar IntersectionExampleScenario.node[27].appl 	IntersectionEnterTime 	79.75
scalar IntersectionExampleScenario.node[27].appl 	IntersectionExitTime 	118.77154256383
scalar IntersectionExampleScenario.node[27].appl 	NumberOfCollisions 	0
scalar IntersectionExampleScenario.node[27].nic.phy80211p 	busyTime 	0
scalar IntersectionExampleScenario.node[27].nic.mac1609_4 	ReceivedUnicastPackets 	0
scalar IntersectionExampleScenario.node[27].nic.mac1609_4 	ReceivedBroadcasts 	0
scalar IntersectionExampleScenario.node[27].nic.mac1609_4 	SentPackets 	0
scalar IntersectionExampleScenario.node[27].nic.mac1609_4 	SNIRLostPackets 	0
scalar IntersectionExampleScenario.node[27].nic.mac1609_4 	RXTXLostPackets 	0
scalar IntersectionExampleScenario.node[27].nic.mac1609_4 	TotalLostPackets 	0
scalar IntersectionExampleScenario.node[27].nic.mac1609_4 	DroppedPacketsInMac 	0
scalar IntersectionExampleScenario.node[27].nic.mac1609_4 	TooLittleTime 	0
scalar IntersectionExampleScenario.node[27].nic.mac1609_4 	TimesIntoBackoff 	0
scalar IntersectionExampleScenario.node[27].nic.mac1609_4 	SlotsBackoff 	0
scalar IntersectionExampleScenario.node[27].nic.mac1609_4 	NumInternalContention 	0
scalar IntersectionExampleScenario.node[27].nic.mac1609_4 	totalBusyTime 	0
scalar IntersectionExampleScenario.node[27].veinsmobility 	startTime 	79.75
scalar IntersectionExampleScenario.node[27].veinsmobility 	totalTime 	55.25
scalar IntersectionExampleScenario.node[27].veinsmobility 	stopTime 	135.25
scalar IntersectionExampleScenario.node[27].veinsmobility 	minSpeed 	0
scalar IntersectionExampleScenario.node[27].veinsmobility 	maxSpeed 	15.734438896179
scalar IntersectionExampleScenario.node[27].veinsmobility 	totalDistance 	560.77553250927
scalar IntersectionExampleScenario.node[27].veinsmobility 	totalCO2Emission 	152.55045235978
scalar IntersectionExampleScenario.node[31].appl 	VehicleRemoved 	0
scalar IntersectionExampleScenario.node[31].appl 	ArrivedAtDest 	1
scalar IntersectionExampleScenario.node[31].appl 	IntersectionEnterTime 	87
scalar IntersectionExampleScenario.node[31].appl 	IntersectionExitTime 	121.52896980793
scalar IntersectionExampleScenario.node[31].appl 	NumberOfCollisions 	0
scalar IntersectionExampleScenario.node[31].nic.phy80211p 	busyTime 	0
scalar IntersectionExampleScenario.node[31].nic.mac1609_4 	ReceivedUnicastPackets 	0
scalar IntersectionExampleScenario.node[31].nic.mac1609_4 	ReceivedBroadcasts 	0
scalar IntersectionExampleScenario.node[31].nic.mac1609_4 	SentPackets 	0
scalar IntersectionExampleScenario.node[31].nic.mac1609_4 	SNIRLostPackets 	0
scalar IntersectionExampleScenario.node[31].nic.mac1609_4 	RXTXLostPackets 	0
scalar IntersectionExampleScenario.node[31].nic.mac1609_4 	TotalLostPackets 	0
scalar IntersectionExampleScenario.node[31].nic.mac1609_4 	DroppedPacketsInMac 	0
scalar IntersectionExampleScenario.node[31].nic.mac1609_4 	TooLittleTime 	0
scalar IntersectionExampleScenario.node[31].nic.mac1609_4 	TimesIntoBackoff 	0
scalar IntersectionExampleScenario.node[31].nic.mac1609_4 	SlotsBackoff 	0
scalar IntersectionExampleScenario.node[31].nic.mac1609_4 	NumInternalContention 	0
scalar IntersectionExampleScenario.node[31].nic.mac1609_4 	totalBusyTime 	0
scalar IntersectionExampleScenario.node[31].veinsmobility 	startTime 	87
scalar IntersectionExampleScenario.node[31].veinsmobility 	totalTime 	51.25
scalar IntersectionExampleScenario.node[31].veinsmobility 	stopTime 	138.5
scalar IntersectionExampleScenario.node[31].veinsmobility 	minSpeed 	1.1801215410233
scalar IntersectionExampleScenario.node[31].veinsmobility 	maxSpeed 	15.64999961853
scalar IntersectionExampleScenario.node[31].veinsmobility 	totalDistance 	544.99858110696
scalar IntersectionExampleScenario.node[31].veinsmobility 	totalCO2Emission 	139.37036003866
scalar IntersectionExampleScenario.node[33].appl 	VehicleRemoved 	0
scalar IntersectionExampleScenario.node[33].appl 	ArrivedAtDest 	1
scalar IntersectionExampleScenario.node[33].appl 	IntersectionEnterTime 	88.5
scalar IntersectionExampleScenario.node[33].appl 	IntersectionExitTime 	123.10162437146
scalar IntersectionExampleScenario.node[33].appl 	NumberOfCollisions 	0
scalar IntersectionExampleScenario.node[33].nic.phy80211p 	busyTime 	0
scalar IntersectionExampleScenario.node[33].nic.mac1609_4 	ReceivedUnicastPackets 	0
scalar IntersectionExampleScenario.node[33].nic.mac1609_4 	ReceivedBroadcasts 	0
scalar IntersectionExampleScenario.node[33].nic.mac1609_4 	SentPackets 	0
scalar IntersectionExampleScenario.node[33].nic.mac1609_4 	SNIRLostPackets 	0
scalar IntersectionExampleScenario.node[33].nic.mac1609_4 	RXTXLostPackets 	0
scalar IntersectionExampleScenario.node[33].nic.mac1609_4 	TotalLostPackets 	0
scalar IntersectionExampleScenario.node[33].nic.mac1609_4 	DroppedPacketsInMac 	0
scalar IntersectionExampleScenario.node[33].nic.mac1609_4 	TooLittleTime 	0
scalar IntersectionExampleScenario.node[33].nic.mac1609_4 	TimesIntoBackoff 	0
scalar IntersectionExampleScenario.node[33].nic.mac1609_4 	SlotsBackoff 	0
scalar IntersectionExampleScenario.node[33].nic.mac1609_4 	NumInternalContention 	0
scalar IntersectionExampleScenario.node[33].nic.mac1609_4 	totalBusyTime 	0
scalar IntersectionExampleScenario.node[33].veinsmobility 	startTime 	88.5
scalar IntersectionExampleScenario.node[33].veinsmobility 	totalTime 	50
scalar IntersectionExampleScenario.node[33].veinsmobility 	stopTime 	138.75
scalar IntersectionExampleScenario.node[33].veinsmobility 	minSpeed 	2.9164574146271
scalar IntersectionExampleScenario.node[33].veinsmobility 	maxSpeed 	16.125
scalar IntersectionExampleScenario.node[33].veinsmobility 	totalDistance 	571.65753173828
scalar IntersectionExampleScenario.node[33].veinsmobility 	totalCO2Emission 	146.45666806696
scalar IntersectionExampleScenario.node[32].appl 	VehicleRemoved 	0
scalar IntersectionExampleScenario.node[32].appl 	ArrivedAtDest 	1
scalar IntersectionExampleScenario.node[32].appl 	IntersectionEnterTime 	87.25
scalar IntersectionExampleScenario.node[32].appl 	IntersectionExitTime 	125.26144455504
scalar IntersectionExampleScenario.node[32].appl 	NumberOfCollisions 	0
scalar IntersectionExampleScenario.node[32].nic.phy80211p 	busyTime 	0
scalar IntersectionExampleScenario.node[32].nic.mac1609_4 	ReceivedUnicastPackets 	0
scalar IntersectionExampleScenario.node[32].nic.mac1609_4 	ReceivedBroadcasts 	0
scalar IntersectionExampleScenario.node[32].nic.mac1609_4 	SentPackets 	0
scalar IntersectionExampleScenario.node[32].nic.mac1609_4 	SNIRLostPackets 	0
scalar IntersectionExampleScenario.node[32].nic.mac1609_4 	RXTXLostPackets 	0
scalar IntersectionExampleScenario.node[32].nic.mac1609_4 	TotalLostPackets 	0
scalar IntersectionExampleScenario.node[32].nic.mac1609_4 	DroppedPacketsInMac 	0
scalar IntersectionExampleScenario.node[32].nic.mac1609_4 	TooLittleTime 	0
scalar IntersectionExampleScenario.node[32].nic.mac1609_4 	TimesIntoBackoff 	0
scalar IntersectionExampleScenario.node[32].nic.mac1609_4 	SlotsBackoff 	0
scalar IntersectionExampleScenario.node[32].nic.mac1609_4 	NumInternalContention 	0
scalar IntersectionExampleScenario.node[32].nic.mac1609_4 	totalBusyTime 	0
scalar IntersectionExampleScenario.node[32].veinsmobility 	startTime 	87.25
scalar IntersectionExampleScenario.node[32].veinsmobility 	totalTime 	53.75
scalar IntersectionExampleScenario.node[32].veinsmobility 	stopTime 	141.25
scalar IntersectionExampleScenario.node[32].veinsmobility 	minSpeed 	0
scalar IntersectionExampleScenario.node[32].veinsmobility 	maxSpeed 	15.658491134644
scalar IntersectionExampleScenario.node[32].veinsmobility 	totalDistance 	554.41159820557
scalar IntersectionExampleScenario.node[32].veinsmobility 	totalCO2Emission 	149.48902157714
scalar IntersectionExampleScenario.node[35].appl 	VehicleRemoved 	0
scalar IntersectionExampleScenario.node[35].appl 	ArrivedAtDest 	1
scalar IntersectionExampleScenario.node[35].appl 	IntersectionEnterTime 	90.5
scalar IntersectionExampleScenario.node[35].appl 	IntersectionExitTime 	127.54523805619
scalar IntersectionExampleScenario.node[35].appl 	NumberOfCollisions 	0
scalar IntersectionExampleScenario.node[35].nic.phy80211p 	busyTime 	0
scalar IntersectionExampleScenario.node[35].nic.mac1609_4 	ReceivedUnicastPackets 	0
scalar IntersectionExampleScenario.node[35].nic.mac1609_4 	ReceivedBroadcasts 	0
scalar IntersectionExampleScenario.node[35].nic.mac1609_4 	SentPackets 	0
scalar IntersectionExampleScenario.node[35].nic.mac1609_4 	SNIRLostPackets 	0
scalar IntersectionExampleScenario.node[35].nic.mac1609_4 	RXTXLostPackets 	0
scalar IntersectionExampleScenario.node[35].nic.mac1609_4 	TotalLostPackets 	0
scalar IntersectionExampleScenario.node[35].nic.mac1609_4 	DroppedPacketsInMac 	0
scalar IntersectionExampleScenario.node[35].nic.mac1609_4 	TooLittleTime 	0
scalar IntersectionExampleScenario.node[35].nic.mac1609_4 	TimesIntoBackoff 	0
scalar IntersectionExampleScenario.node[35].nic.mac1609_4 	SlotsBackoff 	0
scalar IntersectionExampleScenario.node[35].nic.mac1609_4 	NumInternalContention 	0
scalar IntersectionExampleScenario.node[35].nic.mac1609_4 	totalBusyTime 	0
scalar IntersectionExampleScenario.node[35].veinsmobility 	startTime 	90.5
scalar IntersectionExampleScenario.node[35].veinsmobility 	totalTime 	53.25
scalar IntersectionExampleScenario.node[35].veinsmobility 	stopTime 	144
scalar IntersectionExampleScenario.node[35].veinsmobility 	minSpeed 	0
scalar IntersectionExampleScenario.node[35].veinsmobility 	maxSpeed 	15.430233955383
scalar IntersectionExampleScenario.node[35].veinsmobility 	totalDistance 	564.87665557861
scalar IntersectionExampleScenario.node[35].veinsmobility 	totalCO2Emission 	142.52381326314
scalar IntersectionExampleScenario.node[39].appl 	VehicleRemoved 	0
scalar IntersectionExampleScenario.node[39].appl 	ArrivedAtDest 	1
scalar IntersectionExampleScenario.node[39].appl 	IntersectionEnterTime 	106.25
scalar IntersectionExampleScenario.node[39].appl 	IntersectionExitTime 	130.04639173692
scalar IntersectionExampleScenario.node[39].appl 	NumberOfCollisions 	0
scalar IntersectionExampleScenario.node[39].nic.phy80211p 	busyTime 	0
scalar IntersectionExampleScenario.node[39].nic.mac1609_4 	ReceivedUnicastPackets 	0
scalar IntersectionExampleScenario.node[39].nic.mac1609_4 	ReceivedBroadcasts 	0
scalar IntersectionExampleScenario.node[39].nic.mac1609_4 	SentPackets 	0
scalar IntersectionExampleScenario.node[39].nic.mac1609_4 	SNIRLostPackets 	0
scalar IntersectionExampleScenario.node[39].nic.mac1609_4 	RXTXLostPackets 	0
scalar IntersectionExampleScenario.node[39].nic.mac1609_4 	TotalLostPackets 	0
scalar IntersectionExampleScenario.node[39].nic.mac1609_4 	DroppedPacketsInMac 	0
scalar IntersectionExampleScenario.node[39].nic.mac1609_4 	TooLittleTime 	0
scalar IntersectionExampleScenario.node[39].nic.mac1609_4 	TimesIntoBackoff 	0
scalar IntersectionExampleScenario.node[39].nic.mac1609_4 	SlotsBackoff 	0
scalar IntersectionExampleScenario.node[39].nic.mac1609_4 	NumInternalContention 	0
scalar IntersectionExampleScenario.node[39].nic.mac1609_4 	totalBusyTime 	0
scalar IntersectionExampleScenario.node[39].veinsmobility 	startTime 	106.25
scalar IntersectionExampleScenario.node[39].veinsmobility 	totalTime 	39
scalar IntersectionExampleScenario.node[39].veinsmobility 	stopTime 	145.5
scalar IntersectionExampleScenario.node[39].veinsmobility 	minSpeed 	5.6500000953674
scalar IntersectionExampleScenario.node[39].veinsmobility 	maxSpeed 	16.27499961853
scalar IntersectionExampleScenario.node[39].veinsmobility 	totalDistance 	550.77634429932
scalar IntersectionExampleScenario.node[39].veinsmobility 	totalCO2Emission 	132.74335027309
scalar IntersectionExampleScenario.node[25].appl 	VehicleRemoved 	0
scalar IntersectionExampleScenario.node[25].appl 	ArrivedAtDest 	1
scalar IntersectionExampleScenario.node[25].appl 	IntersectionEnterTime 	78.25
scalar IntersectionExampleScenario.node[25].appl 	IntersectionExitTime 	132.3607427619
scalar IntersectionExampleScenario.node[25].appl 	NumberOfCollisions 	0
scalar IntersectionExampleScenario.node[25].nic.phy80211p 	busyTime 	0
scalar IntersectionExampleScenario.node[25].nic.mac1609_4 	ReceivedUnicastPackets 	0
scalar IntersectionExampleScenario.node[25].nic.mac1609_4 	ReceivedBroadcasts 	0
scalar IntersectionExampleScenario.node[25].nic.mac1609_4 	SentPackets 	0
scalar IntersectionExampleScenario.node[25].nic.mac1609_4 	SNIRLostPackets 	0
scalar IntersectionExampleScenario.node[25].nic.mac1609_4 	RXTXLostPackets 	0
scalar IntersectionExampleScenario.node[25].nic.mac1609_4 	TotalLostPackets 	0
scalar IntersectionExampleScenario.node[25].nic.mac1609_4 	DroppedPacketsInMac 	0
scalar IntersectionExampleScenario.node[25].nic.mac1609_4 	TooLittleTime 	0
scalar IntersectionExampleScenario.node[25].nic.mac1609_4 	TimesIntoBackoff 	0
scalar IntersectionExampleScenario.node[25].nic.mac1609_4 	SlotsBackoff 	0
scalar IntersectionExampleScenario.node[25].nic.mac1609_4 	NumInternalContention 	0
scalar IntersectionExampleScenario.node[25].nic.mac1609_4 	totalBusyTime 	0
scalar IntersectionExampleScenario.node[25].veinsmobility 	startTime 	78.25
scalar IntersectionExampleScenario.node[25].veinsmobility 	totalTime 	70
scalar IntersectionExampleScenario.node[25].veinsmobility 	stopTime 	148.5
scalar IntersectionExampleScenario.node[25].veinsmobility 	minSpeed 	0
scalar IntersectionExampleScenario.node[25].veinsmobility 	maxSpeed 	15.64999961853
scalar IntersectionExampleScenario.node[25].veinsmobility 	totalDistance 	525.79308319092
scalar IntersectionExampleScenario.node[25].veinsmobility 	totalCO2Emission 	165.6528270051
scalar IntersectionExampleScenario.node[22].appl 	VehicleRemoved 	0
scalar IntersectionExampleScenario.node[22].appl 	ArrivedAtDest 	1
scalar IntersectionExampleScenario.node[22].appl 	IntersectionEnterTime 	77.25
scalar IntersectionExampleScenario.node[22].appl 	IntersectionExitTime 	135.01434324624
scalar IntersectionExampleScenario.node[22].appl 	NumberOfCollisions 	0
scalar IntersectionExampleScenario.node[22].nic.phy80211p 	busyTime 	0
scalar IntersectionExampleScenario.node[22].nic.mac1609_4 	ReceivedUnicastPackets 	0
scalar IntersectionExampleScenario.node[22].nic.mac1609_4 	ReceivedBroadcasts 	0
scalar IntersectionExampleScenario.node[22].nic.mac1609_4 	SentPackets 	0
scalar IntersectionExampleScenario.node[22].nic.mac1609_4 	SNIRLostPackets 	0
scalar IntersectionExampleScenario.node[22].nic.mac1609_4 	RXTXLostPackets 	0
scalar IntersectionExampleScenario.node[22].nic.mac1609_4 	TotalLostPackets 	0
scalar IntersectionExampleScenario.node[22].nic.mac1609_4 	DroppedPacketsInMac 	0
scalar IntersectionExampleScenario.node[22].nic.mac1609_4 	TooLittleTime 	0
scalar IntersectionExampleScenario.node[22].nic.mac1609_4 	TimesIntoBackoff 	0
scalar IntersectionExampleScenario.node[22].nic.mac1609_4 	SlotsBackoff 	0
scalar IntersectionExampleScenario.node[22].nic.mac1609_4 	NumInternalContention 	0
scalar IntersectionExampleScenario.node[22].nic.mac1609_4 	totalBusyTime 	0
scalar IntersectionExampleScenario.node[22].veinsmobility 	startTime 	77.25
scalar IntersectionExampleScenario.node[22].veinsmobility 	totalTime 	73.75
scalar IntersectionExampleScenario.node[22].veinsmobility 	stopTime 	151.25
scalar IntersectionExampleScenario.node[22].veinsmobility 	minSpeed 	0
scalar IntersectionExampleScenario.node[22].veinsmobility 	maxSpeed 	15.5
scalar IntersectionExampleScenario.node[22].veinsmobility 	totalDistance 	551.5213394165
scalar IntersectionExampleScenario.node[22].veinsmobility 	totalCO2Emission 	167.95631718068
scalar IntersectionExampleScenario.node[24].appl 	VehicleRemoved 	0
scalar IntersectionExampleScenario.node[24].appl 	ArrivedAtDest 	1
scalar IntersectionExampleScenario.node[24].appl 	IntersectionEnterTime 	78
scalar IntersectionExampleScenario.node[24].appl 	IntersectionExitTime 	137.5003587906
scalar IntersectionExampleScenario.node[24].appl 	NumberOfCollisions 	0
scalar IntersectionExampleScenario.node[24].nic.phy80211p 	busyTime 	0
scalar IntersectionExampleScenario.node[24].nic.mac1609_4 	ReceivedUnicastPackets 	0
scalar IntersectionExampleScenario.node[24].nic.mac1609_4 	ReceivedBroadcasts 	0
scalar IntersectionExampleScenario.node[24].nic.mac1609_4 	SentPackets 	0
scalar IntersectionExampleScenario.node[24].nic.mac1609_4 	SNIRLostPackets 	0
scalar IntersectionExampleScenario.node[24].nic.mac1609_4 	RXTXLostPackets 	0
scalar IntersectionExampleScenario.node[24].nic.mac1609_4 	TotalLostPackets 	0
scalar IntersectionExampleScenario.node[24].nic.mac1609_4 	DroppedPacketsInMac 	0
scalar IntersectionExampleScenario.node[24].nic.mac1609_4 	TooLittleTime 	0
scalar IntersectionExampleScenario.node[24].nic.mac1609_4 	TimesIntoBackoff 	0
scalar IntersectionExampleScenario.node[24].nic.mac1609_4 	SlotsBackoff 	0
scalar IntersectionExampleScenario.node[24].nic.mac1609_4 	NumInternalContention 	0
scalar IntersectionExampleScenario.node[24].nic.mac1609_4 	totalBusyTime 	0
scalar IntersectionExampleScenario.node[24].veinsmobility 	startTime 	78
scalar IntersectionExampleScenario.node[24].veinsmobility 	totalTime 	76.25
scalar IntersectionExampleScenario.node[24].veinsmobility 	stopTime 	154.5
scalar IntersectionExampleScenario.node[24].veinsmobility 	minSpeed 	0
scalar IntersectionExampleScenario.node[24].veinsmobility 	maxSpeed 	15.270167350769
scalar IntersectionExampleScenario.node[24].veinsmobility 	totalDistance 	568.98079635318
scalar IntersectionExampleScenario.node[24].veinsmobility 	totalCO2Emission 	170.79622214755
scalar IntersectionExampleScenario.node[29].appl 	VehicleRemoved 	0
scalar IntersectionExampleScenario.node[29].appl 	ArrivedAtDest 	1
scalar IntersectionExampleScenario.node[29].appl 	IntersectionEnterTime 	86.25
scalar IntersectionExampleScenario.node[29].appl 	IntersectionExitTime 	140.58894059461
scalar IntersectionExampleScenario.node[29].appl 	NumberOfCollisions 	0
scalar IntersectionExampleScenario.node[29].nic.phy80211p 	busyTime 	0
scalar IntersectionExampleScenario.node[29].nic.mac1609_4 	ReceivedUnicastPackets 	0
scalar IntersectionExampleScenario.node[29].nic.mac1609_4 	ReceivedBroadcasts 	0
scalar IntersectionExampleScenario.node[29].nic.mac1609_4 	SentPackets 	0
scalar IntersectionExampleScenario.node[29].nic.mac1609_4 	SNIRLostPackets 	0
scalar IntersectionExampleScenario.node[29].nic.mac1609_4 	RXTXLostPackets 	0
scalar IntersectionExampleScenario.node[29].nic.mac1609_4 	TotalLostPackets 	0
scalar IntersectionExampleScenario.node[29].nic.mac1609_4 	DroppedPacketsInMac 	0
scalar IntersectionExampleScenario.node[29].nic.mac1609_4 	TooLittleTime 	0
scalar IntersectionExampleScenario.node[29].nic.mac1609_4 	TimesIntoBackoff 	0
scalar IntersectionExampleScenario.node[29].nic.mac1609_4 	SlotsBackoff 	0
scalar IntersectionExampleScenario.node[29].nic.mac1609_4 	NumInternalContention 	0
scalar IntersectionExampleScenario.node[29].nic.mac1609_4 	totalBusyTime 	0
scalar IntersectionExampleScenario.node[29].veinsmobility 	startTime 	86.25
scalar IntersectionExampleScenario.node[29].veinsmobility 	totalTime 	70.5
scalar IntersectionExampleScenario.node[29].veinsmobility 	stopTime 	157
scalar IntersectionExampleScenario.node[29].veinsmobility 	minSpeed 	0
scalar IntersectionExampleScenario.node[29].veinsmobility 	maxSpeed 	15.897952079773
scalar IntersectionExampleScenario.node[29].veinsmobility 	totalDistance 	553.3266515866
scalar IntersectionExampleScenario.node[29].veinsmobility 	totalCO2Emission 	177.49701828152
scalar IntersectionExampleScenario.node[36].appl 	VehicleRemoved 	0
scalar IntersectionExampleScenario.node[36].appl 	ArrivedAtDest 	1
scalar IntersectionExampleScenario.node[36].appl 	IntersectionEnterTime 	95.75
scalar IntersectionExampleScenario.node[36].appl 	IntersectionExitTime 	143.09774480783
scalar IntersectionExampleScenario.node[36].appl 	NumberOfCollisions 	0
scalar IntersectionExampleScenario.node[36].nic.phy80211p 	busyTime 	0
scalar IntersectionExampleScenario.node[36].nic.mac1609_4 	ReceivedUnicastPackets 	0
scalar IntersectionExampleScenario.node[36].nic.mac1609_4 	ReceivedBroadcasts 	0
scalar IntersectionExampleScenario.node[36].nic.mac1609_4 	SentPackets 	0
scalar IntersectionExampleScenario.node[36].nic.mac1609_4 	SNIRLostPackets 	0
scalar IntersectionExampleScenario.node[36].nic.mac1609_4 	RXTXLostPackets 	0
scalar IntersectionExampleScenario.node[36].nic.mac1609_4 	TotalLostPackets 	0
scalar IntersectionExampleScenario.node[36].nic.mac1609_4 	DroppedPacketsInMac 	0
scalar IntersectionExampleScenario.node[36].nic.mac1609_4 	TooLittleTime 	0
scalar IntersectionExampleScenario.node[36].nic.mac1609_4 	TimesIntoBackoff 	0
scalar IntersectionExampleScenario.node[36].nic.mac1609_4 	SlotsBackoff 	0
scalar IntersectionExampleScenario.node[36].nic.mac1609_4 	NumInternalContention 	0
scalar IntersectionExampleScenario.node[36].nic.mac1609_4 	totalBusyTime 	0
scalar IntersectionExampleScenario.node[36].veinsmobility 	startTime 	95.75
scalar IntersectionExampleScenario.node[36].veinsmobility 	totalTime 	63.5
scalar IntersectionExampleScenario.node[36].veinsmobility 	stopTime 	159.5
scalar IntersectionExampleScenario.node[36].veinsmobility 	minSpeed 	0
scalar IntersectionExampleScenario.node[36].veinsmobility 	maxSpeed 	16.27499961853
scalar IntersectionExampleScenario.node[36].veinsmobility 	totalDistance 	543.79422281969
scalar IntersectionExampleScenario.node[36].veinsmobility 	totalCO2Emission 	164.31360666281
scalar IntersectionExampleScenario.node[37].appl 	VehicleRemoved 	0
scalar IntersectionExampleScenario.node[37].appl 	ArrivedAtDest 	1
scalar IntersectionExampleScenario.node[37].appl 	IntersectionEnterTime 	97.5
scalar IntersectionExampleScenario.node[37].appl 	IntersectionExitTime 	145.2662212016
scalar IntersectionExampleScenario.node[37].appl 	NumberOfCollisions 	0
scalar IntersectionExampleScenario.node[37].nic.phy80211p 	busyTime 	0
scalar IntersectionExampleScenario.node[37].nic.mac1609_4 	ReceivedUnicastPackets 	0
scalar IntersectionExampleScenario.node[37].nic.mac1609_4 	ReceivedBroadcasts 	0
scalar IntersectionExampleScenario.node[37].nic.mac1609_4 	SentPackets 	0
scalar IntersectionExampleScenario.node[37].nic.mac1609_4 	SNIRLostPackets 	0
scalar IntersectionExampleScenario.node[37].nic.mac1609_4 	RXTXLostPackets 	0
scalar IntersectionExampleScenario.node[37].nic.mac1609_4 	TotalLostPackets 	0
scalar IntersectionExampleScenario.node[37].nic.mac1609_4 	DroppedPacketsInMac 	0
scalar IntersectionExampleScenario.node[37].nic.mac1609_4 	TooLittleTime 	0
scalar IntersectionExampleScenario.node[37].nic.mac1609_4 	TimesIntoBackoff 	0
scalar IntersectionExampleScenario.node[37].nic.mac1609_4 	SlotsBackoff 	0
scalar IntersectionExampleScenario.node[37].nic.mac1609_4 	NumInternalContention 	0
scalar IntersectionExampleScenario.node[37].nic.mac1609_4 	totalBusyTime 	0
scalar IntersectionExampleScenario.node[37].veinsmobility 	startTime 	97.5
scalar IntersectionExampleScenario.node[37].veinsmobility 	totalTime 	65.5
scalar IntersectionExampleScenario.node[37].veinsmobility 	stopTime 	163.25
scalar IntersectionExampleScenario.node[37].veinsmobility 	minSpeed 	0
scalar IntersectionExampleScenario.node[37].veinsmobility 	maxSpeed 	14.625
scalar IntersectionExampleScenario.node[37].veinsmobility 	totalDistance 	565.74038589266
scalar IntersectionExampleScenario.node[37].veinsmobility 	totalCO2Emission 	150.29704352931
scalar IntersectionExampleScenario.node[41].appl 	VehicleRemoved 	0
scalar IntersectionExampleScenario.node[41].appl 	ArrivedAtDest 	1
scalar IntersectionExampleScenario.node[41].appl 	IntersectionEnterTime 	108.75
scalar IntersectionExampleScenario.node[41].appl 	IntersectionExitTime 	147.75232202481
scalar IntersectionExampleScenario.node[41].appl 	NumberOfCollisions 	0
scalar IntersectionExampleScenario.node[41].nic.phy80211p 	busyTime 	0
scalar IntersectionExampleScenario.node[41].nic.mac1609_4 	ReceivedUnicastPackets 	0
scalar IntersectionExampleScenario.node[41].nic.mac1609_4 	ReceivedBroadcasts 	0
scalar IntersectionExampleScenario.node[41].nic.mac1609_4 	SentPackets 	0
scalar IntersectionExampleScenario.node[41].nic.mac1609_4 	SNIRLostPackets 	0
scalar IntersectionExampleScenario.node[41].nic.mac1609_4 	RXTXLostPackets 	0
scalar IntersectionExampleScenario.node[41].nic.mac1609_4 	TotalLostPackets 	0
scalar IntersectionExampleScenario.node[41].nic.mac1609_4 	DroppedPacketsInMac 	0
scalar IntersectionExampleScenario.node[41].nic.mac1609_4 	TooLittleTime 	0
scalar IntersectionExampleScenario.node[41].nic.mac1609_4 	TimesIntoBackoff 	0
scalar IntersectionExampleScenario.node[41].nic.mac1609_4 	SlotsBackoff 	0
scalar IntersectionExampleScenario.node[41].nic.mac1609_4 	NumInternalContention 	0
scalar IntersectionExampleScenario.node[41].nic.mac1609_4 	totalBusyTime 	0
scalar IntersectionExampleScenario.node[41].veinsmobility 	startTime 	108.75
scalar IntersectionExampleScenario.node[41].veinsmobility 	totalTime 	55.5
scalar IntersectionExampleScenario.node[41].veinsmobility 	stopTime 	164.5
scalar IntersectionExampleScenario.node[41].veinsmobility 	minSpeed 	0
scalar IntersectionExampleScenario.node[41].veinsmobility 	maxSpeed 	16.27499961853
scalar IntersectionExampleScenario.node[41].veinsmobility 	totalDistance 	545.74161954983
scalar IntersectionExampleScenario.node[41].veinsmobility 	totalCO2Emission 	148.05767493792
scalar IntersectionExampleScenario.node[48].appl 	VehicleRemoved 	0
scalar IntersectionExampleScenario.node[48].appl 	ArrivedAtDest 	1
scalar IntersectionExampleScenario.node[48].appl 	IntersectionEnterTime 	123.5
scalar IntersectionExampleScenario.node[48].appl 	IntersectionExitTime 	149.59652225368
scalar IntersectionExampleScenario.node[48].appl 	NumberOfCollisions 	0
scalar IntersectionExampleScenario.node[48].nic.phy80211p 	busyTime 	0
scalar IntersectionExampleScenario.node[48].nic.mac1609_4 	ReceivedUnicastPackets 	0
scalar IntersectionExampleScenario.node[48].nic.mac1609_4 	ReceivedBroadcasts 	0
scalar IntersectionExampleScenario.node[48].nic.mac1609_4 	SentPackets 	0
scalar IntersectionExampleScenario.node[48].nic.mac1609_4 	SNIRLostPackets 	0
scalar IntersectionExampleScenario.node[48].nic.mac1609_4 	RXTXLostPackets 	0
scalar IntersectionExampleScenario.node[48].nic.mac1609_4 	TotalLostPackets 	0
scalar IntersectionExampleScenario.node[48].nic.mac1609_4 	DroppedPacketsInMac 	0
scalar IntersectionExampleScenario.node[48].nic.mac1609_4 	TooLittleTime 	0
scalar IntersectionExampleScenario.node[48].nic.mac1609_4 	TimesIntoBackoff 	0
scalar IntersectionExampleScenario.node[48].nic.mac1609_4 	SlotsBackoff 	0
scalar IntersectionExampleScenario.node[48].nic.mac1609_4 	NumInternalContention 	0
[...]
scalar IntersectionExampleScenario.node[648].veinsmobility 	totalDistance 	332.52301683467
scalar IntersectionExampleScenario.node[648].veinsmobility 	totalCO2Emission 	109.35827206267
scalar IntersectionExampleScenario.node[649].appl 	VehicleRemoved 	0
scalar IntersectionExampleScenario.node[649].appl 	ArrivedAtDest 	0
scalar IntersectionExampleScenario.node[649].appl 	IntersectionEnterTime 	1760.5
scalar IntersectionExampleScenario.node[649].appl 	IntersectionExitTime 	1788.5470071347
scalar IntersectionExampleScenario.node[649].appl 	NumberOfCollisions 	0
scalar IntersectionExampleScenario.node[649].nic.phy80211p 	busyTime 	0
scalar IntersectionExampleScenario.node[649].nic.mac1609_4 	ReceivedUnicastPackets 	0
scalar IntersectionExampleScenario.node[649].nic.mac1609_4 	ReceivedBroadcasts 	0
scalar IntersectionExampleScenario.node[649].nic.mac1609_4 	SentPackets 	0
scalar IntersectionExampleScenario.node[649].nic.mac1609_4 	SNIRLostPackets 	0
scalar IntersectionExampleScenario.node[649].nic.mac1609_4 	RXTXLostPackets 	0
scalar IntersectionExampleScenario.node[649].nic.mac1609_4 	TotalLostPackets 	0
scalar IntersectionExampleScenario.node[649].nic.mac1609_4 	DroppedPacketsInMac 	0
scalar IntersectionExampleScenario.node[649].nic.mac1609_4 	TooLittleTime 	0
scalar IntersectionExampleScenario.node[649].nic.mac1609_4 	TimesIntoBackoff 	0
scalar IntersectionExampleScenario.node[649].nic.mac1609_4 	SlotsBackoff 	0
scalar IntersectionExampleScenario.node[649].nic.mac1609_4 	NumInternalContention 	0
scalar IntersectionExampleScenario.node[649].nic.mac1609_4 	totalBusyTime 	0
scalar IntersectionExampleScenario.node[649].veinsmobility 	startTime 	1760.5
scalar IntersectionExampleScenario.node[649].veinsmobility 	totalTime 	39.5
scalar IntersectionExampleScenario.node[649].veinsmobility 	stopTime 	1800
scalar IntersectionExampleScenario.node[649].veinsmobility 	minSpeed 	0
scalar IntersectionExampleScenario.node[649].veinsmobility 	maxSpeed 	14.39999961853
scalar IntersectionExampleScenario.node[649].veinsmobility 	totalDistance 	452.88699246795
scalar IntersectionExampleScenario.node[649].veinsmobility 	totalCO2Emission 	114.2598694727
scalar IntersectionExampleScenario.node[650].appl 	VehicleRemoved 	0
scalar IntersectionExampleScenario.node[650].appl 	ArrivedAtDest 	0
scalar IntersectionExampleScenario.node[650].appl 	IntersectionEnterTime 	1764.75
scalar IntersectionExampleScenario.node[650].appl 	IntersectionExitTime 	1792.8048032322
scalar IntersectionExampleScenario.node[650].appl 	NumberOfCollisions 	0
scalar IntersectionExampleScenario.node[650].nic.phy80211p 	busyTime 	0
scalar IntersectionExampleScenario.node[650].nic.mac1609_4 	ReceivedUnicastPackets 	0
scalar IntersectionExampleScenario.node[650].nic.mac1609_4 	ReceivedBroadcasts 	0
scalar IntersectionExampleScenario.node[650].nic.mac1609_4 	SentPackets 	0
scalar IntersectionExampleScenario.node[650].nic.mac1609_4 	SNIRLostPackets 	0
scalar IntersectionExampleScenario.node[650].nic.mac1609_4 	RXTXLostPackets 	0
scalar IntersectionExampleScenario.node[650].nic.mac1609_4 	TotalLostPackets 	0
scalar IntersectionExampleScenario.node[650].nic.mac1609_4 	DroppedPacketsInMac 	0
scalar IntersectionExampleScenario.node[650].nic.mac1609_4 	TooLittleTime 	0
scalar IntersectionExampleScenario.node[650].nic.mac1609_4 	TimesIntoBackoff 	0
scalar IntersectionExampleScenario.node[650].nic.mac1609_4 	SlotsBackoff 	0
scalar IntersectionExampleScenario.node[650].nic.mac1609_4 	NumInternalContention 	0
scalar IntersectionExampleScenario.node[650].nic.mac1609_4 	totalBusyTime 	0
scalar IntersectionExampleScenario.node[650].veinsmobility 	startTime 	1764.75
scalar IntersectionExampleScenario.node[650].veinsmobility 	totalTime 	35.25
scalar IntersectionExampleScenario.node[650].veinsmobility 	stopTime 	1800
scalar IntersectionExampleScenario.node[650].veinsmobility 	minSpeed 	4.5442976951599
scalar IntersectionExampleScenario.node[650].veinsmobility 	maxSpeed 	14.94716835022
scalar IntersectionExampleScenario.node[650].veinsmobility 	totalDistance 	402.36265412104
scalar IntersectionExampleScenario.node[650].veinsmobility 	totalCO2Emission 	109.40890532152
scalar IntersectionExampleScenario.node[651].appl 	VehicleRemoved 	0
scalar IntersectionExampleScenario.node[651].appl 	ArrivedAtDest 	0
scalar IntersectionExampleScenario.node[651].appl 	IntersectionEnterTime 	1765.25
scalar IntersectionExampleScenario.node[651].appl 	IntersectionExitTime 	-1
scalar IntersectionExampleScenario.node[651].appl 	NumberOfCollisions 	0
scalar IntersectionExampleScenario.node[651].nic.phy80211p 	busyTime 	0
scalar IntersectionExampleScenario.node[651].nic.mac1609_4 	ReceivedUnicastPackets 	0
scalar IntersectionExampleScenario.node[651].nic.mac1609_4 	ReceivedBroadcasts 	0
scalar IntersectionExampleScenario.node[651].nic.mac1609_4 	SentPackets 	0
scalar IntersectionExampleScenario.node[651].nic.mac1609_4 	SNIRLostPackets 	0
scalar IntersectionExampleScenario.node[651].nic.mac1609_4 	RXTXLostPackets 	0
scalar IntersectionExampleScenario.node[651].nic.mac1609_4 	TotalLostPackets 	0
scalar IntersectionExampleScenario.node[651].nic.mac1609_4 	DroppedPacketsInMac 	0
scalar IntersectionExampleScenario.node[651].nic.mac1609_4 	TooLittleTime 	0
scalar IntersectionExampleScenario.node[651].nic.mac1609_4 	TimesIntoBackoff 	0
scalar IntersectionExampleScenario.node[651].nic.mac1609_4 	SlotsBackoff 	0
scalar IntersectionExampleScenario.node[651].nic.mac1609_4 	NumInternalContention 	0
scalar IntersectionExampleScenario.node[651].nic.mac1609_4 	totalBusyTime 	0
scalar IntersectionExampleScenario.node[651].veinsmobility 	startTime 	1765.25
scalar IntersectionExampleScenario.node[651].veinsmobility 	totalTime 	34.75
scalar IntersectionExampleScenario.node[651].veinsmobility 	stopTime 	1800
scalar IntersectionExampleScenario.node[651].veinsmobility 	minSpeed 	0
scalar IntersectionExampleScenario.node[651].veinsmobility 	maxSpeed 	15.02499961853
scalar IntersectionExampleScenario.node[651].veinsmobility 	totalDistance 	273.94680786133
scalar IntersectionExampleScenario.node[651].veinsmobility 	totalCO2Emission 	70.469258204585
scalar IntersectionExampleScenario.node[652].appl 	VehicleRemoved 	0
scalar IntersectionExampleScenario.node[652].appl 	ArrivedAtDest 	0
scalar IntersectionExampleScenario.node[652].appl 	IntersectionEnterTime 	1765.5
scalar IntersectionExampleScenario.node[652].appl 	IntersectionExitTime 	1790.5054729818
scalar IntersectionExampleScenario.node[652].appl 	NumberOfCollisions 	0
scalar IntersectionExampleScenario.node[652].nic.phy80211p 	busyTime 	0
scalar IntersectionExampleScenario.node[652].nic.mac1609_4 	ReceivedUnicastPackets 	0
scalar IntersectionExampleScenario.node[652].nic.mac1609_4 	ReceivedBroadcasts 	0
scalar IntersectionExampleScenario.node[652].nic.mac1609_4 	SentPackets 	0
scalar IntersectionExampleScenario.node[652].nic.mac1609_4 	SNIRLostPackets 	0
scalar IntersectionExampleScenario.node[652].nic.mac1609_4 	RXTXLostPackets 	0
scalar IntersectionExampleScenario.node[652].nic.mac1609_4 	TotalLostPackets 	0
scalar IntersectionExampleScenario.node[652].nic.mac1609_4 	DroppedPacketsInMac 	0
scalar IntersectionExampleScenario.node[652].nic.mac1609_4 	TooLittleTime 	0
scalar IntersectionExampleScenario.node[652].nic.mac1609_4 	TimesIntoBackoff 	0
scalar IntersectionExampleScenario.node[652].nic.mac1609_4 	SlotsBackoff 	0
scalar IntersectionExampleScenario.node[652].nic.mac1609_4 	NumInternalContention 	0
scalar IntersectionExampleScenario.node[652].nic.mac1609_4 	totalBusyTime 	0
scalar IntersectionExampleScenario.node[652].veinsmobility 	startTime 	1765.5
scalar IntersectionExampleScenario.node[652].veinsmobility 	totalTime 	34.5
scalar IntersectionExampleScenario.node[652].veinsmobility 	stopTime 	1800
scalar IntersectionExampleScenario.node[652].veinsmobility 	minSpeed 	2.0150074958801
scalar IntersectionExampleScenario.node[652].veinsmobility 	maxSpeed 	15.673343658447
scalar IntersectionExampleScenario.node[652].veinsmobility 	totalDistance 	406.32219004621
scalar IntersectionExampleScenario.node[652].veinsmobility 	totalCO2Emission 	116.07983607892
scalar IntersectionExampleScenario.node[653].appl 	VehicleRemoved 	0
scalar IntersectionExampleScenario.node[653].appl 	ArrivedAtDest 	0
scalar IntersectionExampleScenario.node[653].appl 	IntersectionEnterTime 	1767.75
scalar IntersectionExampleScenario.node[653].appl 	IntersectionExitTime 	-1
scalar IntersectionExampleScenario.node[653].appl 	NumberOfCollisions 	0
scalar IntersectionExampleScenario.node[653].nic.phy80211p 	busyTime 	0
scalar IntersectionExampleScenario.node[653].nic.mac1609_4 	ReceivedUnicastPackets 	0
scalar IntersectionExampleScenario.node[653].nic.mac1609_4 	ReceivedBroadcasts 	0
scalar IntersectionExampleScenario.node[653].nic.mac1609_4 	SentPackets 	0
scalar IntersectionExampleScenario.node[653].nic.mac1609_4 	SNIRLostPackets 	0
scalar IntersectionExampleScenario.node[653].nic.mac1609_4 	RXTXLostPackets 	0
scalar IntersectionExampleScenario.node[653].nic.mac1609_4 	TotalLostPackets 	0
scalar IntersectionExampleScenario.node[653].nic.mac1609_4 	DroppedPacketsInMac 	0
scalar IntersectionExampleScenario.node[653].nic.mac1609_4 	TooLittleTime 	0
scalar IntersectionExampleScenario.node[653].nic.mac1609_4 	TimesIntoBackoff 	0
scalar IntersectionExampleScenario.node[653].nic.mac1609_4 	SlotsBackoff 	0
scalar IntersectionExampleScenario.node[653].nic.mac1609_4 	NumInternalContention 	0
scalar IntersectionExampleScenario.node[653].nic.mac1609_4 	totalBusyTime 	0
scalar IntersectionExampleScenario.node[653].veinsmobility 	startTime 	1767.75
scalar IntersectionExampleScenario.node[653].veinsmobility 	totalTime 	32.25
scalar IntersectionExampleScenario.node[653].veinsmobility 	stopTime 	1800
scalar IntersectionExampleScenario.node[653].veinsmobility 	minSpeed 	0
scalar IntersectionExampleScenario.node[653].veinsmobility 	maxSpeed 	15.130390167236
scalar IntersectionExampleScenario.node[653].veinsmobility 	totalDistance 	287.42190551758
scalar IntersectionExampleScenario.node[653].veinsmobility 	totalCO2Emission 	77.731165747274
scalar IntersectionExampleScenario.node[654].appl 	VehicleRemoved 	0
scalar IntersectionExampleScenario.node[654].appl 	ArrivedAtDest 	0
scalar IntersectionExampleScenario.node[654].appl 	IntersectionEnterTime 	1775.5
scalar IntersectionExampleScenario.node[654].appl 	IntersectionExitTime 	-1
scalar IntersectionExampleScenario.node[654].appl 	NumberOfCollisions 	0
scalar IntersectionExampleScenario.node[654].nic.phy80211p 	busyTime 	0
scalar IntersectionExampleScenario.node[654].nic.mac1609_4 	ReceivedUnicastPackets 	0
scalar IntersectionExampleScenario.node[654].nic.mac1609_4 	ReceivedBroadcasts 	0
scalar IntersectionExampleScenario.node[654].nic.mac1609_4 	SentPackets 	0
scalar IntersectionExampleScenario.node[654].nic.mac1609_4 	SNIRLostPackets 	0
scalar IntersectionExampleScenario.node[654].nic.mac1609_4 	RXTXLostPackets 	0
scalar IntersectionExampleScenario.node[654].nic.mac1609_4 	TotalLostPackets 	0
scalar IntersectionExampleScenario.node[654].nic.mac1609_4 	DroppedPacketsInMac 	0
scalar IntersectionExampleScenario.node[654].nic.mac1609_4 	TooLittleTime 	0
scalar IntersectionExampleScenario.node[654].nic.mac1609_4 	TimesIntoBackoff 	0
scalar IntersectionExampleScenario.node[654].nic.mac1609_4 	SlotsBackoff 	0
scalar IntersectionExampleScenario.node[654].nic.mac1609_4 	NumInternalContention 	0
scalar IntersectionExampleScenario.node[654].nic.mac1609_4 	totalBusyTime 	0
scalar IntersectionExampleScenario.node[654].veinsmobility 	startTime 	1775.5
scalar IntersectionExampleScenario.node[654].veinsmobility 	totalTime 	24.5
scalar IntersectionExampleScenario.node[654].veinsmobility 	stopTime 	1800
scalar IntersectionExampleScenario.node[654].veinsmobility 	minSpeed 	0
scalar IntersectionExampleScenario.node[654].veinsmobility 	maxSpeed 	16.404441833496
scalar IntersectionExampleScenario.node[654].veinsmobility 	totalDistance 	287.42188262939
scalar IntersectionExampleScenario.node[654].veinsmobility 	totalCO2Emission 	74.688677675531
scalar IntersectionExampleScenario.node[655].appl 	VehicleRemoved 	0
scalar IntersectionExampleScenario.node[655].appl 	ArrivedAtDest 	0
scalar IntersectionExampleScenario.node[655].appl 	IntersectionEnterTime 	1776.75
scalar IntersectionExampleScenario.node[655].appl 	IntersectionExitTime 	-1
scalar IntersectionExampleScenario.node[655].appl 	NumberOfCollisions 	0
scalar IntersectionExampleScenario.node[655].nic.phy80211p 	busyTime 	0
scalar IntersectionExampleScenario.node[655].nic.mac1609_4 	ReceivedUnicastPackets 	0
scalar IntersectionExampleScenario.node[655].nic.mac1609_4 	ReceivedBroadcasts 	0
scalar IntersectionExampleScenario.node[655].nic.mac1609_4 	SentPackets 	0
scalar IntersectionExampleScenario.node[655].nic.mac1609_4 	SNIRLostPackets 	0
scalar IntersectionExampleScenario.node[655].nic.mac1609_4 	RXTXLostPackets 	0
scalar IntersectionExampleScenario.node[655].nic.mac1609_4 	TotalLostPackets 	0
scalar IntersectionExampleScenario.node[655].nic.mac1609_4 	DroppedPacketsInMac 	0
scalar IntersectionExampleScenario.node[655].nic.mac1609_4 	TooLittleTime 	0
scalar IntersectionExampleScenario.node[655].nic.mac1609_4 	TimesIntoBackoff 	0
scalar IntersectionExampleScenario.node[655].nic.mac1609_4 	SlotsBackoff 	0
scalar IntersectionExampleScenario.node[655].nic.mac1609_4 	NumInternalContention 	0
scalar IntersectionExampleScenario.node[655].nic.mac1609_4 	totalBusyTime 	0
scalar IntersectionExampleScenario.node[655].veinsmobility 	startTime 	1776.75
scalar IntersectionExampleScenario.node[655].veinsmobility 	totalTime 	23.25
scalar IntersectionExampleScenario.node[655].veinsmobility 	stopTime 	1800
scalar IntersectionExampleScenario.node[655].veinsmobility 	minSpeed 	3.4503567218781
scalar IntersectionExampleScenario.node[655].veinsmobility 	maxSpeed 	14.39999961853
scalar IntersectionExampleScenario.node[655].veinsmobility 	totalDistance 	254.53820800781
scalar IntersectionExampleScenario.node[655].veinsmobility 	totalCO2Emission 	57.635464242697
scalar IntersectionExampleScenario.node[656].appl 	VehicleRemoved 	0
scalar IntersectionExampleScenario.node[656].appl 	ArrivedAtDest 	0
scalar IntersectionExampleScenario.node[656].appl 	IntersectionEnterTime 	1792
scalar IntersectionExampleScenario.node[656].appl 	IntersectionExitTime 	-1
scalar IntersectionExampleScenario.node[656].appl 	NumberOfCollisions 	0
scalar IntersectionExampleScenario.node[656].nic.phy80211p 	busyTime 	0
scalar IntersectionExampleScenario.node[656].nic.mac1609_4 	ReceivedUnicastPackets 	0
scalar IntersectionExampleScenario.node[656].nic.mac1609_4 	ReceivedBroadcasts 	0
scalar IntersectionExampleScenario.node[656].nic.mac1609_4 	SentPackets 	0
scalar IntersectionExampleScenario.node[656].nic.mac1609_4 	SNIRLostPackets 	0
scalar IntersectionExampleScenario.node[656].nic.mac1609_4 	RXTXLostPackets 	0
scalar IntersectionExampleScenario.node[656].nic.mac1609_4 	TotalLostPackets 	0
scalar IntersectionExampleScenario.node[656].nic.mac1609_4 	DroppedPacketsInMac 	0
scalar IntersectionExampleScenario.node[656].nic.mac1609_4 	TooLittleTime 	0
scalar IntersectionExampleScenario.node[656].nic.mac1609_4 	TimesIntoBackoff 	0
scalar IntersectionExampleScenario.node[656].nic.mac1609_4 	SlotsBackoff 	0
scalar IntersectionExampleScenario.node[656].nic.mac1609_4 	NumInternalContention 	0
scalar IntersectionExampleScenario.node[656].nic.mac1609_4 	totalBusyTime 	0
scalar IntersectionExampleScenario.node[656].veinsmobility 	startTime 	1792
scalar IntersectionExampleScenario.node[656].veinsmobility 	totalTime 	8
scalar IntersectionExampleScenario.node[656].veinsmobility 	stopTime 	1800
scalar IntersectionExampleScenario.node[656].veinsmobility 	minSpeed 	5.6500000953674
scalar IntersectionExampleScenario.node[656].veinsmobility 	maxSpeed 	15.02499961853
scalar IntersectionExampleScenario.node[656].veinsmobility 	totalDistance 	99.923583984375
scalar IntersectionExampleScenario.node[656].veinsmobility 	totalCO2Emission 	38.902086832977
scalar IntersectionExampleScenario.node[657].appl 	VehicleRemoved 	0
scalar IntersectionExampleScenario.node[657].appl 	ArrivedAtDest 	0
scalar IntersectionExampleScenario.node[657].appl 	IntersectionEnterTime 	1794.75
scalar IntersectionExampleScenario.node[657].appl 	IntersectionExitTime 	-1
scalar IntersectionExampleScenario.node[657].appl 	NumberOfCollisions 	0
scalar IntersectionExampleScenario.node[657].nic.phy80211p 	busyTime 	0
scalar IntersectionExampleScenario.node[657].nic.mac1609_4 	ReceivedUnicastPackets 	0
scalar IntersectionExampleScenario.node[657].nic.mac1609_4 	ReceivedBroadcasts 	0
scalar IntersectionExampleScenario.node[657].nic.mac1609_4 	SentPackets 	0
scalar IntersectionExampleScenario.node[657].nic.mac1609_4 	SNIRLostPackets 	0
scalar IntersectionExampleScenario.node[657].nic.mac1609_4 	RXTXLostPackets 	0
scalar IntersectionExampleScenario.node[657].nic.mac1609_4 	TotalLostPackets 	0
scalar IntersectionExampleScenario.node[657].nic.mac1609_4 	DroppedPacketsInMac 	0
scalar IntersectionExampleScenario.node[657].nic.mac1609_4 	TooLittleTime 	0
scalar IntersectionExampleScenario.node[657].nic.mac1609_4 	TimesIntoBackoff 	0
scalar IntersectionExampleScenario.node[657].nic.mac1609_4 	SlotsBackoff 	0
scalar IntersectionExampleScenario.node[657].nic.mac1609_4 	NumInternalContention 	0
scalar IntersectionExampleScenario.node[657].nic.mac1609_4 	totalBusyTime 	0
scalar IntersectionExampleScenario.node[657].veinsmobility 	startTime 	1794.75
scalar IntersectionExampleScenario.node[657].veinsmobility 	totalTime 	5.25
scalar IntersectionExampleScenario.node[657].veinsmobility 	stopTime 	1800
scalar IntersectionExampleScenario.node[657].veinsmobility 	minSpeed 	5.6500000953674
scalar IntersectionExampleScenario.node[657].veinsmobility 	maxSpeed 	15.64999961853
scalar IntersectionExampleScenario.node[657].veinsmobility 	totalDistance 	59.367614746094
scalar IntersectionExampleScenario.node[657].veinsmobility 	totalCO2Emission 	34.725552494077
scalar IntersectionExampleScenario.node[658].appl 	VehicleRemoved 	0
scalar IntersectionExampleScenario.node[658].appl 	ArrivedAtDest 	0
scalar IntersectionExampleScenario.node[658].appl 	IntersectionEnterTime 	1799.75
scalar IntersectionExampleScenario.node[658].appl 	IntersectionExitTime 	-1
scalar IntersectionExampleScenario.node[658].appl 	NumberOfCollisions 	0
scalar IntersectionExampleScenario.node[658].nic.phy80211p 	busyTime 	0
scalar IntersectionExampleScenario.node[658].nic.mac1609_4 	ReceivedUnicastPackets 	0
scalar IntersectionExampleScenario.node[658].nic.mac1609_4 	ReceivedBroadcasts 	0
scalar IntersectionExampleScenario.node[658].nic.mac1609_4 	SentPackets 	0
scalar IntersectionExampleScenario.node[658].nic.mac1609_4 	SNIRLostPackets 	0
scalar IntersectionExampleScenario.node[658].nic.mac1609_4 	RXTXLostPackets 	0
scalar IntersectionExampleScenario.node[658].nic.mac1609_4 	TotalLostPackets 	0
scalar IntersectionExampleScenario.node[658].nic.mac1609_4 	DroppedPacketsInMac 	0
scalar IntersectionExampleScenario.node[658].nic.mac1609_4 	TooLittleTime 	0
scalar IntersectionExampleScenario.node[658].nic.mac1609_4 	TimesIntoBackoff 	0
scalar IntersectionExampleScenario.node[658].nic.mac1609_4 	SlotsBackoff 	0
scalar IntersectionExampleScenario.node[658].nic.mac1609_4 	NumInternalContention 	0
scalar IntersectionExampleScenario.node[658].nic.mac1609_4 	totalBusyTime 	0
scalar IntersectionExampleScenario.node[658].veinsmobility 	startTime 	1799.75
scalar IntersectionExampleScenario.node[658].veinsmobility 	totalTime 	0.25
scalar IntersectionExampleScenario.node[658].veinsmobility 	stopTime 	1800
scalar IntersectionExampleScenario.node[658].veinsmobility 	minSpeed 	5.6500000953674
scalar IntersectionExampleScenario.node[658].veinsmobility 	maxSpeed 	5.6500000953674
scalar IntersectionExampleScenario.node[658].veinsmobility 	totalDistance 	1.3344116210938
scalar IntersectionExampleScenario.node[658].veinsmobility 	totalCO2Emission 	0
