file 27329293 1591399728                                        
version 2
run nodebug-35-20200605-19:23:54-18076
attr configname nodebug
attr datetime 20200605-19:23:54
attr experiment nodebug
attr inifile omnetpp.ini
attr iterationvars ""
attr iterationvars2 $repetition=35
attr measurement ""
attr network "\"org.car2x.veins.modules.application.ExtTraCIScenarioManagerLaunchd.IntersectionExampleScenario\""
attr processid 18076
attr repetition 35
attr replication #35
attr resultdir results
attr runnumber 35
attr seedset 35
param **.coreDebug false
param **.debug false
param *.**.nic.mac1609_4.bitrate 18Mbps
param *.**.nic.mac1609_4.txPower 20mW
param *.**.nic.mac1609_4.useServiceChannel false
param *.**.nic.phy80211p.analogueModels "xmldoc(\"config.xml\")"
param *.**.nic.phy80211p.decider "xmldoc(\"config.xml\")"
param *.**.nic.phy80211p.sensitivity -89dBm
param *.**.nic.phy80211p.thermalNoise -110dBm
param *.**.nic.phy80211p.usePropagationDelay true
param *.**.nic.phy80211p.useThermalNoise true
param *.annotations.draw false
param *.connectionManager.alpha 2.0
param *.connectionManager.carrierFrequency "5.890e9 Hz"
param *.connectionManager.pMax 20mW
param *.connectionManager.sat -89dBm
param *.connectionManager.sendDirect true
param *.manager.autoShutdown true
param *.manager.host "\"localhost\""
param *.manager.launchConfig "xmldoc(\"paramics.launchd.xml\")"
param *.manager.margin 25
param *.manager.moduleDisplayString "\"\""
param *.manager.moduleName "\"node\""
param *.manager.moduleType "\"org.car2x.veins.nodes.Car\""
param *.manager.port 9999
param *.manager.updateInterval 250ms
param *.node[*0].veinsmobility.accidentCount 0
param *.node[*0].veinsmobility.accidentDuration 30s
param *.node[*0].veinsmobility.accidentStart 75s
param *.node[*].appl.LiderSelectZoneRadio 55.0
param *.node[*].appl.ShareDataZoneRadio 110.0
param *.node[*].appl.TiempoSemaforo 30.0
param *.node[*].appl.beaconInterval 1s
param *.node[*].appl.beaconPriority 3
param *.node[*].appl.dataOnSch false
param *.node[*].appl.dataPriority 2
param *.node[*].appl.debug false
param *.node[*].appl.headerLength "256 bit"
param *.node[*].appl.maxOffset 0.005s
param *.node[*].appl.sendBeacons false
param *.node[*].appl.sendData true
param *.node[*].applType "\"Dummy\""
param *.node[*].mobilityType "\"TraCIMobility\""
param *.node[*].mobilityType.debug true
param *.node[*].veinsmobility.x 0
param *.node[*].veinsmobility.y 0
param *.node[*].veinsmobility.z 1.895
param *.node[*].veinsmobilityType "\"org.car2x.veins.modules.mobility.traci.TraCIMobility\""
param *.node[*].veinsmobilityType.debug true
param *.playgroundSizeX 8500m
param *.playgroundSizeY 8500m
param *.playgroundSizeZ 50m
param *.world.use2D false
param *.world.useTorus false

vector 59185  IntersectionExampleScenario.manager  vehiclesinsim  ETV
attr type  int
vector 59186  IntersectionExampleScenario.manager  realtime  ETV
attr type  int
attr unit  s
vector 59189  IntersectionExampleScenario.node[0].veinsmobility  posx  ETV
vector 59190  IntersectionExampleScenario.node[0].veinsmobility  posy  ETV
vector 59191  IntersectionExampleScenario.node[0].veinsmobility  speed  ETV
vector 59192  IntersectionExampleScenario.node[0].veinsmobility  acceleration  ETV
vector 59193  IntersectionExampleScenario.node[0].veinsmobility  co2emission  ETV
vector 59196  IntersectionExampleScenario.node[1].veinsmobility  posx  ETV
vector 59197  IntersectionExampleScenario.node[1].veinsmobility  posy  ETV
vector 59198  IntersectionExampleScenario.node[1].veinsmobility  speed  ETV
vector 59199  IntersectionExampleScenario.node[1].veinsmobility  acceleration  ETV
vector 59200  IntersectionExampleScenario.node[1].veinsmobility  co2emission  ETV
vector 59203  IntersectionExampleScenario.node[2].veinsmobility  posx  ETV
vector 59204  IntersectionExampleScenario.node[2].veinsmobility  posy  ETV
vector 59205  IntersectionExampleScenario.node[2].veinsmobility  speed  ETV
vector 59206  IntersectionExampleScenario.node[2].veinsmobility  acceleration  ETV
vector 59207  IntersectionExampleScenario.node[2].veinsmobility  co2emission  ETV
vector 59210  IntersectionExampleScenario.node[3].veinsmobility  posx  ETV
vector 59211  IntersectionExampleScenario.node[3].veinsmobility  posy  ETV
vector 59212  IntersectionExampleScenario.node[3].veinsmobility  speed  ETV
vector 59213  IntersectionExampleScenario.node[3].veinsmobility  acceleration  ETV
vector 59214  IntersectionExampleScenario.node[3].veinsmobility  co2emission  ETV
vector 59217  IntersectionExampleScenario.node[4].veinsmobility  posx  ETV
vector 59218  IntersectionExampleScenario.node[4].veinsmobility  posy  ETV
vector 59219  IntersectionExampleScenario.node[4].veinsmobility  speed  ETV
vector 59220  IntersectionExampleScenario.node[4].veinsmobility  acceleration  ETV
vector 59221  IntersectionExampleScenario.node[4].veinsmobility  co2emission  ETV
vector 59224  IntersectionExampleScenario.node[5].veinsmobility  posx  ETV
vector 59225  IntersectionExampleScenario.node[5].veinsmobility  posy  ETV
vector 59231  IntersectionExampleScenario.node[6].veinsmobility  posx  ETV
vector 59232  IntersectionExampleScenario.node[6].veinsmobility  posy  ETV
vector 59226  IntersectionExampleScenario.node[5].veinsmobility  speed  ETV
vector 59233  IntersectionExampleScenario.node[6].veinsmobility  speed  ETV
vector 59227  IntersectionExampleScenario.node[5].veinsmobility  acceleration  ETV
vector 59228  IntersectionExampleScenario.node[5].veinsmobility  co2emission  ETV
vector 59234  IntersectionExampleScenario.node[6].veinsmobility  acceleration  ETV
vector 59235  IntersectionExampleScenario.node[6].veinsmobility  co2emission  ETV
vector 59238  IntersectionExampleScenario.node[7].veinsmobility  posx  ETV
vector 59239  IntersectionExampleScenario.node[7].veinsmobility  posy  ETV
vector 59240  IntersectionExampleScenario.node[7].veinsmobility  speed  ETV
vector 59241  IntersectionExampleScenario.node[7].veinsmobility  acceleration  ETV
vector 59242  IntersectionExampleScenario.node[7].veinsmobility  co2emission  ETV
vector 59245  IntersectionExampleScenario.node[8].veinsmobility  posx  ETV
vector 59246  IntersectionExampleScenario.node[8].veinsmobility  posy  ETV
vector 59247  IntersectionExampleScenario.node[8].veinsmobility  speed  ETV
vector 59248  IntersectionExampleScenario.node[8].veinsmobility  acceleration  ETV
vector 59249  IntersectionExampleScenario.node[8].veinsmobility  co2emission  ETV
vector 59252  IntersectionExampleScenario.node[9].veinsmobility  posx  ETV
vector 59253  IntersectionExampleScenario.node[9].veinsmobility  posy  ETV
vector 59254  IntersectionExampleScenario.node[9].veinsmobility  speed  ETV
vector 59255  IntersectionExampleScenario.node[9].veinsmobility  acceleration  ETV
vector 59256  IntersectionExampleScenario.node[9].veinsmobility  co2emission  ETV
vector 59259  IntersectionExampleScenario.node[10].veinsmobility  posx  ETV
vector 59260  IntersectionExampleScenario.node[10].veinsmobility  posy  ETV
vector 59261  IntersectionExampleScenario.node[10].veinsmobility  speed  ETV
vector 59262  IntersectionExampleScenario.node[10].veinsmobility  acceleration  ETV
vector 59263  IntersectionExampleScenario.node[10].veinsmobility  co2emission  ETV
vector 59266  IntersectionExampleScenario.node[11].veinsmobility  posx  ETV
vector 59267  IntersectionExampleScenario.node[11].veinsmobility  posy  ETV
vector 59268  IntersectionExampleScenario.node[11].veinsmobility  speed  ETV
vector 59269  IntersectionExampleScenario.node[11].veinsmobility  acceleration  ETV
vector 59270  IntersectionExampleScenario.node[11].veinsmobility  co2emission  ETV
vector 59273  IntersectionExampleScenario.node[12].veinsmobility  posx  ETV
vector 59274  IntersectionExampleScenario.node[12].veinsmobility  posy  ETV
vector 59275  IntersectionExampleScenario.node[12].veinsmobility  speed  ETV
vector 59276  IntersectionExampleScenario.node[12].veinsmobility  acceleration  ETV
vector 59277  IntersectionExampleScenario.node[12].veinsmobility  co2emission  ETV
vector 59280  IntersectionExampleScenario.node[13].veinsmobility  posx  ETV
vector 59281  IntersectionExampleScenario.node[13].veinsmobility  posy  ETV
vector 59282  IntersectionExampleScenario.node[13].veinsmobility  speed  ETV
vector 59283  IntersectionExampleScenario.node[13].veinsmobility  acceleration  ETV
vector 59284  IntersectionExampleScenario.node[13].veinsmobility  co2emission  ETV
vector 59287  IntersectionExampleScenario.node[14].veinsmobility  posx  ETV
vector 59288  IntersectionExampleScenario.node[14].veinsmobility  posy  ETV
vector 59289  IntersectionExampleScenario.node[14].veinsmobility  speed  ETV
vector 59290  IntersectionExampleScenario.node[14].veinsmobility  acceleration  ETV
vector 59291  IntersectionExampleScenario.node[14].veinsmobility  co2emission  ETV
vector 59294  IntersectionExampleScenario.node[15].veinsmobility  posx  ETV
vector 59295  IntersectionExampleScenario.node[15].veinsmobility  posy  ETV
vector 59296  IntersectionExampleScenario.node[15].veinsmobility  speed  ETV
vector 59297  IntersectionExampleScenario.node[15].veinsmobility  acceleration  ETV
vector 59298  IntersectionExampleScenario.node[15].veinsmobility  co2emission  ETV
vector 59301  IntersectionExampleScenario.node[16].veinsmobility  posx  ETV
vector 59302  IntersectionExampleScenario.node[16].veinsmobility  posy  ETV
vector 59303  IntersectionExampleScenario.node[16].veinsmobility  speed  ETV
vector 59304  IntersectionExampleScenario.node[16].veinsmobility  acceleration  ETV
vector 59305  IntersectionExampleScenario.node[16].veinsmobility  co2emission  ETV
vector 59308  IntersectionExampleScenario.node[17].veinsmobility  posx  ETV
vector 59309  IntersectionExampleScenario.node[17].veinsmobility  posy  ETV
vector 59310  IntersectionExampleScenario.node[17].veinsmobility  speed  ETV
vector 59311  IntersectionExampleScenario.node[17].veinsmobility  acceleration  ETV
vector 59312  IntersectionExampleScenario.node[17].veinsmobility  co2emission  ETV
59200	10104 5121 39 3034 3 43.5 163 0.973 11.200708441096 475.61953614746 2365.5761666609
59199	15225 4616 39 3034 3 43.5 163 -3.4446563720703 2.5 35.625318527222 215.96661670064
59198	19841 5016 34 3034 2.75 43.5 164 5.6500000953674 15.02499961853 2213.7567129135 30634.361411764
59197	24857 5292 29 3034 2.5 43.5 165 483.14999389648 734.69891357422 88608.474945068 48596747.200608
59196	30149 5293 29 3034 2.5 43.5 165 184.17810058594 486.85000610352 65801.938751221 28063061.90173
59193	35442 5367 8 3220 0.75 45 178 0.973 11.810082123732 551.65190450783 3009.9469685813
59192	40809 5079 8 3220 0.75 45 178 -6.8117866516113 4 38.850629806519 475.00774497838
59191	45888 5248 5 3220 0.5 45 179 0 15.875 2171.3403301239 30734.834029248
59190	51136 5777 2 3220 0.25 45 180 486.63604736328 785.82187652588 101656.26947784 59237472.891513
59189	56913 5710 2 3220 0.25 45 180 238.59930419922 483.14999389648 78963.487731934 35585162.690202
vector 59315  IntersectionExampleScenario.node[18].veinsmobility  posx  ETV
vector 59316  IntersectionExampleScenario.node[18].veinsmobility  posy  ETV
vector 59322  IntersectionExampleScenario.node[19].veinsmobility  posx  ETV
vector 59323  IntersectionExampleScenario.node[19].veinsmobility  posy  ETV
vector 59317  IntersectionExampleScenario.node[18].veinsmobility  speed  ETV
vector 59318  IntersectionExampleScenario.node[18].veinsmobility  acceleration  ETV
vector 59319  IntersectionExampleScenario.node[18].veinsmobility  co2emission  ETV
vector 59324  IntersectionExampleScenario.node[19].veinsmobility  speed  ETV
vector 59325  IntersectionExampleScenario.node[19].veinsmobility  acceleration  ETV
vector 59326  IntersectionExampleScenario.node[19].veinsmobility  co2emission  ETV
vector 59329  IntersectionExampleScenario.node[20].veinsmobility  posx  ETV
vector 59330  IntersectionExampleScenario.node[20].veinsmobility  posy  ETV
vector 59331  IntersectionExampleScenario.node[20].veinsmobility  speed  ETV
vector 59332  IntersectionExampleScenario.node[20].veinsmobility  acceleration  ETV
vector 59333  IntersectionExampleScenario.node[20].veinsmobility  co2emission  ETV
vector 59336  IntersectionExampleScenario.node[21].veinsmobility  posx  ETV
vector 59337  IntersectionExampleScenario.node[21].veinsmobility  posy  ETV
vector 59338  IntersectionExampleScenario.node[21].veinsmobility  speed  ETV
vector 59343  IntersectionExampleScenario.node[22].veinsmobility  posx  ETV
vector 59344  IntersectionExampleScenario.node[22].veinsmobility  posy  ETV
vector 59339  IntersectionExampleScenario.node[21].veinsmobility  acceleration  ETV
vector 59340  IntersectionExampleScenario.node[21].veinsmobility  co2emission  ETV
vector 59345  IntersectionExampleScenario.node[22].veinsmobility  speed  ETV
vector 59346  IntersectionExampleScenario.node[22].veinsmobility  acceleration  ETV
vector 59347  IntersectionExampleScenario.node[22].veinsmobility  co2emission  ETV
vector 59350  IntersectionExampleScenario.node[23].veinsmobility  posx  ETV
vector 59351  IntersectionExampleScenario.node[23].veinsmobility  posy  ETV
vector 59357  IntersectionExampleScenario.node[24].veinsmobility  posx  ETV
vector 59358  IntersectionExampleScenario.node[24].veinsmobility  posy  ETV
vector 59352  IntersectionExampleScenario.node[23].veinsmobility  speed  ETV
vector 59353  IntersectionExampleScenario.node[23].veinsmobility  acceleration  ETV
vector 59354  IntersectionExampleScenario.node[23].veinsmobility  co2emission  ETV
vector 59359  IntersectionExampleScenario.node[24].veinsmobility  speed  ETV
vector 59360  IntersectionExampleScenario.node[24].veinsmobility  acceleration  ETV
vector 59361  IntersectionExampleScenario.node[24].veinsmobility  co2emission  ETV
59242	65430 5092 722 5069 19.75 59.25 159 0.973 11.450879080643 484.85277543601 2508.3976827919
59241	70522 4437 722 5069 19.75 59.25 159 -3.1659851074219 2.5 37.492597579956 221.06147917436
59240	74959 4978 705 5069 19.5 59.25 160 5.6500000953674 15.375 2208.8621444702 31360.982179384
59239	79937 5289 688 5069 19.25 59.25 161 236.53900146484 486.85000610352 69843.347625732 31270410.38417
59238	85226 5289 688 5069 19.25 59.25 161 483.14999389648 785.82187652588 92056.787269592 54427339.067731
59221	90515 5653 486 5366 15.75 61.5 184 0.973 11.648172402475 551.92880599477 2925.1707790753
59220	96168 5394 486 5366 15.75 61.5 184 -7.1126599311829 4 37.662351608276 469.41022855231
59219	101562 5590 475 5366 15.5 61.5 185 0 15.64999961853 2218.4005821943 31179.15618195
59218	107152 6064 464 5366 15.25 61.5 186 184.17810058594 734.95030212402 84233.432922363 42364678.826615
59217	113216 6105 464 5366 15.25 61.5 186 486.85000610352 486.85000610352 90554.101135254 44086264.690397
59256	119321 5103 1046 5800 24.25 65 164 0.973 11.810082123732 564.64448752115 3459.7565813193
59255	124424 4953 1046 5800 24.25 65 164 -3.5276584625244 2.5 39.699392318726 370.34898197249
59254	129377 5119 1025 5800 24 65 165 5.6500000953674 15.875 2190.0312895775 30645.58247836
59253	134496 5443 1004 5800 23.75 65 166 184.17810058594 483.14999389648 66131.19342041 28079791.710649
59252	139939 5447 1004 5800 23.75 65 166 486.85000610352 734.90782165527 88952.610641479 48607017.30232
vector 59364  IntersectionExampleScenario.node[25].veinsmobility  posx  ETV
vector 59365  IntersectionExampleScenario.node[25].veinsmobility  posy  ETV
vector 59366  IntersectionExampleScenario.node[25].veinsmobility  speed  ETV
vector 59367  IntersectionExampleScenario.node[25].veinsmobility  acceleration  ETV
vector 59368  IntersectionExampleScenario.node[25].veinsmobility  co2emission  ETV
59214	145787 7260 104 6297 5.25 69 256 0.973 11.990504229548 682.32162253265 3358.0878508231
59213	153047 6652 104 6297 5.25 69 256 -8.6444172859192 4.3222103118896 43.773473739624 585.29081024746
59212	159699 6957 95 6297 5 69 257 -1.0805525779724 16.620716094971 2336.4398163557 33939.4070817
59211	166656 8414 86 6297 4.75 69 258 483.14999389648 483.14999389648 124652.69842529 60225950.48336
59210	175070 8380 86 6297 4.75 69 258 152.38513183594 731.95713806152 114137.44441223 55228583.274517
vector 59371  IntersectionExampleScenario.node[26].veinsmobility  posx  ETV
vector 59372  IntersectionExampleScenario.node[26].veinsmobility  posy  ETV
vector 59378  IntersectionExampleScenario.node[27].veinsmobility  posx  ETV
vector 59379  IntersectionExampleScenario.node[27].veinsmobility  posy  ETV
vector 59373  IntersectionExampleScenario.node[26].veinsmobility  speed  ETV
vector 59374  IntersectionExampleScenario.node[26].veinsmobility  acceleration  ETV
vector 59375  IntersectionExampleScenario.node[26].veinsmobility  co2emission  ETV
vector 59380  IntersectionExampleScenario.node[27].veinsmobility  speed  ETV
vector 59381  IntersectionExampleScenario.node[27].veinsmobility  acceleration  ETV
vector 59382  IntersectionExampleScenario.node[27].veinsmobility  co2emission  ETV
59207	184252 7603 58 6455 3.75 70.25 267 0.973 10.979433703044 633.59875307467 2823.0260115001
59206	191855 6872 58 6455 3.75 70.25 267 -10.093687057495 4 34.437047958374 568.3865103824
59205	198727 7207 51 6455 3.5 70.25 268 0 14.714228630066 2274.2764797211 30389.716446323
59204	205934 8692 44 6455 3.25 70.25 269 235.35296630859 483.14999389648 121151.39172363 55729622.32294
59203	214626 8734 44 6455 3.25 70.25 269 161.1796875 483.36395263672 112118.42352295 49359105.629429
vector 59385  IntersectionExampleScenario.node[28].veinsmobility  posx  ETV
vector 59386  IntersectionExampleScenario.node[28].veinsmobility  posy  ETV
vector 59387  IntersectionExampleScenario.node[28].veinsmobility  speed  ETV
vector 59388  IntersectionExampleScenario.node[28].veinsmobility  acceleration  ETV
vector 59389  IntersectionExampleScenario.node[28].veinsmobility  co2emission  ETV
59235	223761 6836 538 6915 16.75 73.75 229 0.973 11.200708441096 565.2293180228 2639.9468022532
59234	230597 7017 538 6915 16.75 73.75 229 -3.9177694320679 2.5000002384186 35.625318527222 323.63980620048
59233	237614 7206 523 6915 16.5 73.75 230 0 15.02499961853 2181.5849652365 27616.08849231
59232	244820 7589 508 6915 16.25 73.75 231 237.59527587891 483.14999389648 103105.26257324 47095639.479929
59231	252409 7564 508 6915 16.25 73.75 231 184.17810058594 483.14999389648 95325.510070801 41265286.663681
vector 59392  IntersectionExampleScenario.node[29].veinsmobility  posx  ETV
vector 59393  IntersectionExampleScenario.node[29].veinsmobility  posy  ETV
vector 59394  IntersectionExampleScenario.node[29].veinsmobility  speed  ETV
vector 59399  IntersectionExampleScenario.node[30].veinsmobility  posx  ETV
vector 59400  IntersectionExampleScenario.node[30].veinsmobility  posy  ETV
vector 59395  IntersectionExampleScenario.node[29].veinsmobility  acceleration  ETV
vector 59396  IntersectionExampleScenario.node[29].veinsmobility  co2emission  ETV
59249	260528 6276 947 7105 23 75.25 210 0.973 11.54047740176 553.45078814076 2763.3544540876
59248	266804 6541 947 7105 23 75.25 210 -2.7370567321777 2.5 36.98334312439 322.84298092297
59247	273345 6753 928 7105 22.75 75.25 211 0.69293040037155 15.5 2224.3039076328 28527.613095666
59246	280098 6991 909 7105 22.5 75.25 212 483.14999389648 483.14999389648 102427.79870605 49487990.31966
59245	287089 6948 909 7105 22.5 75.25 212 184.17810058594 735.42387390137 94635.395553589 46535273.286318
vector 59401  IntersectionExampleScenario.node[30].veinsmobility  speed  ETV
vector 59402  IntersectionExampleScenario.node[30].veinsmobility  acceleration  ETV
vector 59403  IntersectionExampleScenario.node[30].veinsmobility  co2emission  ETV
59228	294284 6979 538 7339 16.75 77 242 0.973 11.648172402475 623.88708082026 3030.1116899827
59227	301263 6177 538 7339 16.75 77 242 -6.9388580322266 4 39.869146347046 477.13785230576
59226	307440 6621 523 7339 16.5 77 243 0 15.64999961853 2205.1296315193 31773.343183851
59225	314061 8012 508 7339 16.25 77 244 483.14999389648 785.82187652588 133196.24382782 74767754.362986
59224	322073 8018 508 7339 16.25 77 244 483.14999389648 733.78637695312 126141.79989624 66310153.452698
vector 59406  IntersectionExampleScenario.node[31].veinsmobility  posx  ETV
vector 59407  IntersectionExampleScenario.node[31].veinsmobility  posy  ETV
vector 59408  IntersectionExampleScenario.node[31].veinsmobility  speed  ETV
vector 59413  IntersectionExampleScenario.node[32].veinsmobility  posx  ETV
vector 59414  IntersectionExampleScenario.node[32].veinsmobility  posy  ETV
vector 59409  IntersectionExampleScenario.node[31].veinsmobility  acceleration  ETV
vector 59410  IntersectionExampleScenario.node[31].veinsmobility  co2emission  ETV
vector 59415  IntersectionExampleScenario.node[32].veinsmobility  speed  ETV
vector 59416  IntersectionExampleScenario.node[32].veinsmobility  acceleration  ETV
vector 59417  IntersectionExampleScenario.node[32].veinsmobility  co2emission  ETV
vector 59420  IntersectionExampleScenario.node[33].veinsmobility  posx  ETV
vector 59421  IntersectionExampleScenario.node[33].veinsmobility  posy  ETV
vector 59422  IntersectionExampleScenario.node[33].veinsmobility  speed  ETV
vector 59423  IntersectionExampleScenario.node[33].veinsmobility  acceleration  ETV
vector 59424  IntersectionExampleScenario.node[33].veinsmobility  co2emission  ETV
vector 59427  IntersectionExampleScenario.node[34].veinsmobility  posx  ETV
vector 59428  IntersectionExampleScenario.node[34].veinsmobility  posy  ETV
vector 59429  IntersectionExampleScenario.node[34].veinsmobility  speed  ETV
vector 59430  IntersectionExampleScenario.node[34].veinsmobility  acceleration  ETV
vector 59431  IntersectionExampleScenario.node[34].veinsmobility  co2emission  ETV
59263	331695 6885 1197 8422 26 84.5 235 0.973 11.36141391502 590.87706206791 2801.3127767201
59262	338580 6249 1197 8422 26 84.5 235 -8.2099418640137 4 36.813589096069 481.06962067089
59261	344829 6549 1174 8422 25.75 84.5 236 0 15.25 2172.3059687614 29932.842901098
59260	351378 7756 1151 8422 25.5 84.5 237 486.85000610352 732.10182189941 123693.8119812 65622006.55624
59259	359134 7814 1151 8422 25.5 84.5 237 486.63604736328 785.82187652588 130308.07508087 73684620.533183
vector 59434  IntersectionExampleScenario.node[35].veinsmobility  posx  ETV
vector 59435  IntersectionExampleScenario.node[35].veinsmobility  posy  ETV
vector 59436  IntersectionExampleScenario.node[35].veinsmobility  speed  ETV
vector 59437  IntersectionExampleScenario.node[35].veinsmobility  acceleration  ETV
vector 59438  IntersectionExampleScenario.node[35].veinsmobility  co2emission  ETV
59270	367349 7415 1332 8735 27.5 86.5 237 0.973 11.00486315618 584.445515042 2584.0313782269
59269	374764 7187 1332 8735 27.5 86.5 237 -4.5 2.5 34.437047958374 409.65979670625
59268	381951 7615 1309 8735 27.25 86.5 238 0 14.75 2285.3019266594 30227.720702017
59267	389566 7879 1286 8735 27 86.5 239 236.97344970703 486.85000610352 107419.3765564 49436686.280755
59266	397445 7867 1286 8735 27 86.5 239 483.13299560547 806.11563110352 133653.09650421 77170867.238032
59284	405312 6599 1816 8774 32.75 86.75 217 0.973 12.44402232946 617.38691741015 3153.0738525025
59283	411911 6827 1816 8774 32.75 86.75 217 -4.0051116943359 2.5 42.245687484741 391.26388636083
59282	418738 6962 1791 8774 32.5 86.75 218 0 16.75 2250.1913360413 31537.226667894
59281	425700 7229 1766 8774 32.25 86.75 219 486.85000610352 486.85000610352 106620.15133667 51908021.329015
59280	432929 7212 1766 8774 32.25 86.75 219 235.78936767578 793.20976257324 115032.57712555 64630679.047113
vector 59441  IntersectionExampleScenario.node[36].veinsmobility  posx  ETV
vector 59442  IntersectionExampleScenario.node[36].veinsmobility  posy  ETV
vector 59448  IntersectionExampleScenario.node[37].veinsmobility  posx  ETV
vector 59449  IntersectionExampleScenario.node[37].veinsmobility  posy  ETV
vector 59443  IntersectionExampleScenario.node[36].veinsmobility  speed  ETV
vector 59444  IntersectionExampleScenario.node[36].veinsmobility  acceleration  ETV
vector 59445  IntersectionExampleScenario.node[36].veinsmobility  co2emission  ETV
vector 59450  IntersectionExampleScenario.node[37].veinsmobility  speed  ETV
vector 59451  IntersectionExampleScenario.node[37].veinsmobility  acceleration  ETV
vector 59452  IntersectionExampleScenario.node[37].veinsmobility  co2emission  ETV
vector 59455  IntersectionExampleScenario.node[38].veinsmobility  posx  ETV
vector 59456  IntersectionExampleScenario.node[38].veinsmobility  posy  ETV
59298	441097 6082 2390 9171 38.25 89.25 205 0.973 11.648172402475 559.76121022946 2864.4775687916
59297	447179 6425 2390 9171 38.25 89.25 205 -3.2130851745605 2.5 39.020376205444 318.35981326234
59296	453604 6594 2361 9171 38 89.25 206 1.4289940595627 15.64999961853 2213.5980473757 29189.814567744
59295	460198 6831 2332 9171 37.75 89.25 207 486.85000610352 486.85000610352 100777.95126343 49063746.187699
59294	467029 6813 2332 9171 37.75 89.25 207 237.53894042969 785.82187652588 108715.38211823 61216149.587231
vector 59457  IntersectionExampleScenario.node[38].veinsmobility  speed  ETV
vector 59458  IntersectionExampleScenario.node[38].veinsmobility  acceleration  ETV
vector 59459  IntersectionExampleScenario.node[38].veinsmobility  co2emission  ETV
vector 59462  IntersectionExampleScenario.node[39].veinsmobility  posx  ETV
vector 59463  IntersectionExampleScenario.node[39].veinsmobility  posy  ETV
vector 59464  IntersectionExampleScenario.node[39].veinsmobility  speed  ETV
vector 59465  IntersectionExampleScenario.node[39].veinsmobility  acceleration  ETV
vector 59466  IntersectionExampleScenario.node[39].veinsmobility  co2emission  ETV
59319	474490 5542 3345 9588 46 91.75 184 0.973 11.200708441096 513.89418522 2579.4189496979
59318	480032 5694 3345 9588 46 91.75 184 -2.2510261535645 2.5 37.32285118103 244.26241887722
59317	485726 5894 3312 9588 45.75 91.75 185 5.3864693641663 15.255498886108 2216.6776022911 28714.064090573
59316	491620 6139 3281 9588 45.5 91.75 186 486.85000610352 486.85000610352 90554.101135254 44086264.690397
59315	497759 6117 3281 9588 45.5 91.75 186 236.43310546875 785.82187652588 97850.18561554 55727588.68602
59277	503876 7381 1513 9846 29.5 93.25 256 0.973 11.648172402475 634.44705857075 3082.9921168617
59276	511257 6717 1513 9846 29.5 93.25 256 -45.151569366455 4 38.341367721558 2355.9112274038
59275	517974 6877 1490 9846 29.25 93.25 257 0 15.64999961853 2211.4023103714 31968.332551371
59274	524851 8480 1467 9846 29 93.25 258 184.17810058594 733.41819763184 118117.9082489 58252857.580287
59273	533331 8513 1467 9846 29 93.25 258 486.85000610352 486.85000610352 125607.30157471 61151915.538292
vector 59469  IntersectionExampleScenario.node[40].veinsmobility  posx  ETV
vector 59470  IntersectionExampleScenario.node[40].veinsmobility  posy  ETV
59291	541998 7356 2170 11174 36.25 101 260 0.973 11.648172402475 660.10670190554 3395.3171865265
59290	549354 6821 2170 11174 36.25 101 260 -7.1189813613892 4 38.511121749878 521.05573710882
59289	556175 7161 2143 11174 36 101 261 0 15.64999961853 2187.9333589077 29520.057583769
59288	563336 8672 2116 11174 35.75 101 262 483.14999389648 734.23628234863 135036.97488403 70741248.176549
59287	572008 8641 2116 11174 35.75 101 262 184.17810058594 486.85000610352 111231.18704224 49318630.400768
vector 59471  IntersectionExampleScenario.node[40].veinsmobility  speed  ETV
vector 59472  IntersectionExampleScenario.node[40].veinsmobility  acceleration  ETV
vector 59473  IntersectionExampleScenario.node[40].veinsmobility  co2emission  ETV
59305	580896 7833 2655 11627 40.5 103.75 254 0.973 11.450879080643 614.93646002059 2857.2513532647
59304	588729 7931 2655 11627 40.5 103.75 254 -4.5 2.5 37.32285118103 411.93712884323
59303	596660 7921 2624 11627 40.25 103.75 255 0 15.375 2221.9075079076 30321.697848987
59302	604581 8487 2593 11627 40 103.75 256 483.14999389648 732.86070251465 132209.65065002 69413451.268853
59301	613068 8458 2593 11627 40 103.75 256 179.81719970703 486.98651123047 107801.92050171 47527319.715926
59312	621526 7856 2907 11822 42.5 105 251 0.973 11.990504229548 644.00769544653 3089.4075215451
59311	629382 7991 2907 11822 42.5 105 251 -4.0190391540527 2.5 39.699392318726 407.03563292099
59310	637373 8125 2874 11822 42.25 105 252 0 16.125 2291.0779825067 31945.414438705
59309	645498 8412 2841 11822 42 105 253 483.14999389648 483.14999389648 122236.94845581 59058780.90035
59308	653910 8367 2841 11822 42 105 253 163.89764404297 731.91705322266 112374.46766663 54448019.811541
vector 59476  IntersectionExampleScenario.node[41].veinsmobility  posx  ETV
vector 59477  IntersectionExampleScenario.node[41].veinsmobility  posy  ETV
vector 59478  IntersectionExampleScenario.node[41].veinsmobility  speed  ETV
vector 59479  IntersectionExampleScenario.node[41].veinsmobility  acceleration  ETV
vector 59480  IntersectionExampleScenario.node[41].veinsmobility  co2emission  ETV
vector 59483  IntersectionExampleScenario.node[42].veinsmobility  posx  ETV
vector 59484  IntersectionExampleScenario.node[42].veinsmobility  posy  ETV
vector 59485  IntersectionExampleScenario.node[42].veinsmobility  speed  ETV
vector 59486  IntersectionExampleScenario.node[42].veinsmobility  acceleration  ETV
vector 59487  IntersectionExampleScenario.node[42].veinsmobility  co2emission  ETV
vector 59490  IntersectionExampleScenario.node[43].veinsmobility  posx  ETV
vector 59491  IntersectionExampleScenario.node[43].veinsmobility  posy  ETV
vector 59492  IntersectionExampleScenario.node[43].veinsmobility  speed  ETV
vector 59493  IntersectionExampleScenario.node[43].veinsmobility  acceleration  ETV
vector 59494  IntersectionExampleScenario.node[43].veinsmobility  co2emission  ETV
vector 59497  IntersectionExampleScenario.node[44].veinsmobility  posx  ETV
vector 59498  IntersectionExampleScenario.node[44].veinsmobility  posy  ETV
vector 59499  IntersectionExampleScenario.node[44].veinsmobility  speed  ETV
59326	663712 8205 3378 13511 46.25 116.25 281 0.973 11.450879080643 673.99169025324 3102.0307245068
59325	671917 7891 3378 13511 46.25 116.25 281 -7.5824279785156 4 38.001859664917 565.03726384486
59324	679808 8080 3345 13511 46 116.25 282 0 15.375 2305.636865139 29762.034124244
59323	687888 9494 3312 13511 45.75 116.25 283 486.85000610352 486.85000610352 137778.55172729 67077488.749367
59322	697382 9469 3312 13511 45.75 116.25 283 237.69897460938 810.23281097412 148866.450737 83260340.453333
vector 59500  IntersectionExampleScenario.node[44].veinsmobility  acceleration  ETV
vector 59501  IntersectionExampleScenario.node[44].veinsmobility  co2emission  ETV
59333	707020 8041 3613 13625 48 117 277 0.973 11.90022389248 695.11348629868 3396.9861432448
59332	715061 7705 3613 13625 48 117 277 -4.5 2.5 41.057416915894 499.83449202007
59331	722766 7952 3578 13625 47.75 117 278 0 16 2329.3934685588 30655.373866441
59330	730718 9360 3543 13625 47.5 117 279 237.50714111328 486.85000610352 127803.21099854 59644492.071703
59329	740078 9348 3543 13625 47.5 117 279 483.13424682617 817.26328277588 155758.41692352 89643865.393244
vector 59504  IntersectionExampleScenario.node[45].veinsmobility  posx  ETV
vector 59505  IntersectionExampleScenario.node[45].veinsmobility  posy  ETV
vector 59506  IntersectionExampleScenario.node[45].veinsmobility  speed  ETV
vector 59507  IntersectionExampleScenario.node[45].veinsmobility  acceleration  ETV
vector 59508  IntersectionExampleScenario.node[45].veinsmobility  co2emission  ETV
59340	749827 8001 4609 14139 55.75 120.5 260 0.973 11.36141391502 605.95232028604 2848.1394421404
59339	757828 8394 4609 14139 55.75 120.5 260 -4.3473243713379 2.5 37.15309715271 377.60303660404
59338	766222 8419 4578 14139 55.5 120.5 261 0 15.25 2185.086286718 28259.164433732
59337	774641 8833 4547 14139 55.25 120.5 262 486.85000610352 733.34776306152 135903.60960388 71598236.172236
59336	783474 8809 4547 14139 55.25 120.5 262 486.85000610352 785.82187652588 144553.55472565 81732842.319662
vector 59511  IntersectionExampleScenario.node[46].veinsmobility  posx  ETV
vector 59512  IntersectionExampleScenario.node[46].veinsmobility  posy  ETV
vector 59513  IntersectionExampleScenario.node[46].veinsmobility  speed  ETV
vector 59514  IntersectionExampleScenario.node[46].veinsmobility  acceleration  ETV
vector 59515  IntersectionExampleScenario.node[46].veinsmobility  co2emission  ETV
59361	792684 8243 4967 14470 58.5 122.75 258 0.973 11.36141391502 639.75832782385 2952.8358549792
59360	800927 8203 4967 14470 58.5 122.75 258 -4.5 2.5 39.359884262085 481.89987472587
59359	809130 8407 4932 14470 58.25 122.75 259 0 15.54937171936 2241.2721196823 30613.219957159
59358	817537 8782 4897 14470 58 122.75 260 486.85000610352 732.61952209473 134609.10932922 70753272.43089
59357	826319 8760 4897 14470 58 122.75 260 486.85000610352 800.04531860352 144840.87167358 82840693.180501
59368	835079 6973 6173 14820 68 125.25 230 0.973 11.648172402475 601.95027313783 2989.0408222191
59367	842052 6359 6173 14820 68 125.25 230 -7.775092124939 4 38.511121749878 480.02722360891
59366	848411 6707 6142 14820 67.75 125.25 231 0 15.64999961853 2214.2519137859 31459.955894097
59365	855118 7856 6110 14820 67.5 125.25 232 184.17810058594 733.9766998291 105833.52891541 52452293.457346
59364	862974 7883 6110 14820 67.5 125.25 232 486.85000610352 486.85000610352 112949.20141602 54989319.398774
59396	870857 6569 7105 15109 75.25 127.5 210 0.973 11.00486315618 540.43229111068 2515.6348334194
59395	877426 6649 7105 15109 75.25 127.5 210 -3.8963158130646 2.5000001192093 34.94630241394 312.7571773742
59394	884075 6994 7072 15109 75 127.5 211 0 14.75 2208.1232326776 28119.711791413
59393	891069 7207 7039 15109 74.75 127.5 212 184.17810058594 486.94061279297 86954.085845947 37612278.870872
59392	898276 7223 7039 15109 74.75 127.5 212 236.18981933594 486.85000610352 94294.964569092 43058083.950319
vector 59518  IntersectionExampleScenario.node[47].veinsmobility  posx  ETV
vector 59519  IntersectionExampleScenario.node[47].veinsmobility  posy  ETV
vector 59525  IntersectionExampleScenario.node[48].veinsmobility  posx  ETV
vector 59526  IntersectionExampleScenario.node[48].veinsmobility  posy  ETV
vector 59520  IntersectionExampleScenario.node[47].veinsmobility  speed  ETV
vector 59521  IntersectionExampleScenario.node[47].veinsmobility  acceleration  ETV
vector 59522  IntersectionExampleScenario.node[47].veinsmobility  co2emission  ETV
vector 59527  IntersectionExampleScenario.node[48].veinsmobility  speed  ETV
59417	906132 6307 7602 15238 79 128.5 199 0.973 11.810082123732 585.82682349179 3001.7268672516
59416	912439 6387 7602 15238 79 128.5 199 -4.4761238098145 2.5000019073486 40.038900375366 396.61211368708
59415	918826 6527 7567 15238 78.75 128.5 200 2.5796995162964 15.875 2210.9759733677 29106.59022648
59414	925353 6858 7532 15238 78.5 128.5 201 176.21716308594 483.14999389648 80576.137237549 34213502.106699
59413	932211 6880 7532 15238 78.5 128.5 201 486.85000610352 731.78886413574 105753.58097839 56614174.127801
vector 59532  IntersectionExampleScenario.node[49].veinsmobility  posx  ETV
vector 59533  IntersectionExampleScenario.node[49].veinsmobility  posy  ETV
vector 59528  IntersectionExampleScenario.node[48].veinsmobility  acceleration  ETV
vector 59529  IntersectionExampleScenario.node[48].veinsmobility  co2emission  ETV
vector 59539  IntersectionExampleScenario.node[50].veinsmobility  posx  ETV
vector 59540  IntersectionExampleScenario.node[50].veinsmobility  posy  ETV
vector 59534  IntersectionExampleScenario.node[49].veinsmobility  speed  ETV
vector 59535  IntersectionExampleScenario.node[49].veinsmobility  acceleration  ETV
vector 59536  IntersectionExampleScenario.node[49].veinsmobility  co2emission  ETV
vector 59541  IntersectionExampleScenario.node[50].veinsmobility  speed  ETV
vector 59542  IntersectionExampleScenario.node[50].veinsmobility  acceleration  ETV
vector 59543  IntersectionExampleScenario.node[50].veinsmobility  co2emission  ETV
vector 59546  IntersectionExampleScenario.node[51].veinsmobility  posx  ETV
vector 59547  IntersectionExampleScenario.node[51].veinsmobility  posy  ETV
vector 59548  IntersectionExampleScenario.node[51].veinsmobility  speed  ETV
vector 59553  IntersectionExampleScenario.node[52].veinsmobility  posx  ETV
vector 59554  IntersectionExampleScenario.node[52].veinsmobility  posy  ETV
vector 59549  IntersectionExampleScenario.node[51].veinsmobility  acceleration  ETV
vector 59550  IntersectionExampleScenario.node[51].veinsmobility  co2emission  ETV
vector 59555  IntersectionExampleScenario.node[52].veinsmobility  speed  ETV
vector 59556  IntersectionExampleScenario.node[52].veinsmobility  acceleration  ETV
vector 59557  IntersectionExampleScenario.node[52].veinsmobility  co2emission  ETV
59347	940864 8862 4675 15931 56.25 133.25 309 0.973 11.648172402475 696.95719156808 3200.4169257847
59346	949726 8573 4675 15931 56.25 133.25 309 -25.06665802002 4 38.171613693237 1097.8018385513
59345	958299 8860 4642 15931 56 133.25 310 0 15.64999961853 2174.9747922495 28118.254503708
59344	967159 10479 4609 15931 55.75 133.25 311 237.46997070312 483.14999389648 142090.86169434 66038052.248791
59343	977638 10526 4609 15931 55.75 133.25 311 184.17810058594 483.36395263672 133036.3163147 59011022.047982
59354	988164 9375 4932 16079 58.25 134.25 305 0.97223939240464 11.648172402475 702.38931289729 3174.7601467933
59353	997539 9563 4932 16079 58.25 134.25 305 -4.5 2.5 38.680875778198 525.86020884342
59352	1007102 9603 4897 16079 58 134.25 306 0 15.64999961853 2288.9173448151 29954.108697976
59351	1016705 10430 4864 16079 57.75 134.25 307 483.14999389648 483.14999389648 148327.04812622 71664212.396867
59350	1027135 10373 4864 16079 57.75 134.25 307 166.078125 733.5499420166 136980.63334656 65727292.700752
59375	1037508 8453 6422 16464 70 137 269 0.973 11.648172402475 664.1344152485 3232.4766297364
59374	1045961 8767 6422 16464 70 137 269 -4.5 2.5 39.869146347046 418.28365816823
59373	1054728 8839 6389 16464 69.75 137 270 0 15.681802749634 2191.0184144648 28644.034704596
59372	1063567 9257 6358 16464 69.5 137 271 235.20910644531 483.14999389648 122820.61022949 56755591.365765
59371	1072824 9215 6358 16464 69.5 137 271 184.17810058594 483.14999389648 113599.41085815 49582973.158719
59382	1082039 8711 6455 16629 70.25 138.25 273 0.973 11.92441413323 676.15710216671 3283.8564543792
59381	1090750 8475 6455 16629 70.25 138.25 273 -4.5 2.5 41.396924972534 447.63353038952
59380	1099225 9064 6422 16629 70 138.25 274 0 16.033512115479 2308.2555689234 31081.636920217
59379	1108289 9400 6389 16629 69.75 138.25 275 483.14999389648 733.46826171875 140917.54121399 73314899.72684
59378	1117689 9373 6389 16629 69.75 138.25 275 159.76721191406 486.8786315918 112902.24700928 48753655.977665
59424	1127062 7294 7886 16943 81 140.75 240 0.973 12.099024792222 632.80685254988 3289.1978219416
59423	1134356 6760 7886 16943 81 140.75 240 -9.4888134002686 4 40.887662887573 535.35535781686
59422	1141116 6950 7849 16943 80.75 140.75 241 0 16.27499961853 2218.0271503925 32566.985442816
59421	1148066 8327 7812 16943 80.5 140.75 242 235.66223144531 785.82187652588 124192.87012482 67809427.65198
59420	1156393 8338 7812 16943 80.5 140.75 242 483.14999389648 483.14999389648 116922.29852295 56491007.817726
vector 59560  IntersectionExampleScenario.node[53].veinsmobility  posx  ETV
vector 59561  IntersectionExampleScenario.node[53].veinsmobility  posy  ETV
vector 59562  IntersectionExampleScenario.node[53].veinsmobility  speed  ETV
vector 59563  IntersectionExampleScenario.node[53].veinsmobility  acceleration  ETV
vector 59564  IntersectionExampleScenario.node[53].veinsmobility  co2emission  ETV
59445	1165132 6813 9007 17125 88.25 142.25 217 0.973 11.90022389248 580.62197274692 3037.0189494499
59444	1171945 7240 9007 17125 88.25 142.25 217 -3.6925287246704 2.5000009536743 39.869146347046 343.4040186516
59443	1179185 7316 8966 17125 88 142.25 218 0 16 2205.7963722739 29836.948662617
59442	1186501 7571 8927 17125 87.75 142.25 219 482.94400024414 785.82187652588 121787.6219101 69640202.772513
59441	1194072 7585 8927 17125 87.75 142.25 219 483.14999389648 732.71884155273 113990.44458008 60386701.772288
59452	1201657 7044 9048 17277 88.5 143.5 221 0.973 11.990504229548 623.35377311508 3236.0173080699
59451	1208701 7245 9048 17277 88.5 143.5 221 -4.5 2.5000001192093 41.227170944214 477.52889156788
59450	1215946 7500 9007 17277 88.25 143.5 222 0 16.125 2306.587210089 31541.79950648
59449	1223446 7697 8966 17277 88 143.5 223 238.85479736328 810.23281097412 119127.07938385 68235785.575479
59448	1231143 7731 8966 17277 88 143.5 223 483.14999389648 483.14999389648 107742.44863892 52055763.402284
vector 59567  IntersectionExampleScenario.node[54].veinsmobility  posx  ETV
vector 59568  IntersectionExampleScenario.node[54].veinsmobility  posy  ETV
vector 59569  IntersectionExampleScenario.node[54].veinsmobility  speed  ETV
vector 59570  IntersectionExampleScenario.node[54].veinsmobility  acceleration  ETV
vector 59571  IntersectionExampleScenario.node[54].veinsmobility  co2emission  ETV
vector 59574  IntersectionExampleScenario.node[55].veinsmobility  posx  ETV
vector 59575  IntersectionExampleScenario.node[55].veinsmobility  posy  ETV
59473	1239429 5979 11259 17758 101.5 147.5 185 0.973 11.36141391502 538.17463024816 2836.7953808786
59472	1245408 6098 11259 17758 101.5 147.5 185 -2.6361198425293 2.5 37.15309715271 302.60927660942
59471	1251506 6208 11217 17758 101.25 147.5 186 5.5500731468201 15.25 2183.3223404884 28102.910344967
59470	1257714 6531 11174 17758 101 147.5 187 486.6676940918 785.82187652588 106394.17319489 62322452.733843
59469	1264245 6526 11174 17758 101 147.5 187 237.16088867188 483.14999389648 82036.553771973 36980209.460357
vector 59576  IntersectionExampleScenario.node[55].veinsmobility  speed  ETV
vector 59577  IntersectionExampleScenario.node[55].veinsmobility  acceleration  ETV
vector 59578  IntersectionExampleScenario.node[55].veinsmobility  co2emission  ETV
59389	1271018 9065 6718 17975 72.25 149.25 309 0.973 11.200708441096 697.4984518021 2978.3638656503
59388	1280083 9071 6718 17975 72.25 149.25 309 -15.202880859375 4 37.32285118103 732.78913407515
59387	1289154 9290 6685 17975 72 149.25 310 0 15.098134994507 2213.8520561159 28029.511118887
59386	1298444 10682 6652 17975 71.75 149.25 311 486.85000610352 486.85000610352 151410.35189819 73714130.745771
59385	1309126 10669 6652 17975 71.75 149.25 311 236.80847167969 785.82187652588 160551.14974213 87156468.473061
vector 59581  IntersectionExampleScenario.node[56].veinsmobility  posx  ETV
vector 59582  IntersectionExampleScenario.node[56].veinsmobility  posy  ETV
vector 59588  IntersectionExampleScenario.node[57].veinsmobility  posx  ETV
vector 59589  IntersectionExampleScenario.node[57].veinsmobility  posy  ETV
vector 59583  IntersectionExampleScenario.node[56].veinsmobility  speed  ETV
59410	1320181 8957 7532 18147 78.5 150.75 290 0.973 11.200708441096 674.83859341309 2855.8132657833
59409	1329138 9381 7532 18147 78.5 150.75 290 -4.5 2.5 38.680875778198 444.75015300571
59408	1338519 9441 7499 18147 78.25 150.75 291 0 15.390944480896 2215.9809412891 28450.358648016
59407	1347960 10067 7466 18147 78 150.75 292 486.85000610352 486.85000610352 142160.20178223 69210695.105354
59406	1358027 10040 7466 18147 78 150.75 292 236.14984130859 785.82187652588 151541.27680206 82859837.334623
vector 59584  IntersectionExampleScenario.node[56].veinsmobility  acceleration  ETV
vector 59585  IntersectionExampleScenario.node[56].veinsmobility  co2emission  ETV
vector 59590  IntersectionExampleScenario.node[57].veinsmobility  speed  ETV
vector 59591  IntersectionExampleScenario.node[57].veinsmobility  acceleration  ETV
vector 59592  IntersectionExampleScenario.node[57].veinsmobility  co2emission  ETV
59431	1368483 8819 8149 18364 82.75 152.5 280 0.93438186594183 12.26218747632 666.76197910245 3286.8259793248
59430	1377302 9338 8149 18364 82.75 152.5 280 -4.5 2.5 41.057416915894 408.33760172113
59429	1386640 9343 8110 18364 82.5 152.5 281 0 16.5 2207.7546237595 29142.093382392
59428	1395983 9748 8071 18364 82.25 152.5 282 486.85000610352 734.56192016602 145228.83135986 75874769.515097
59427	1405731 9729 8071 18364 82.25 152.5 282 486.85000610352 790.18281555176 155451.47577667 87700954.19736
vector 59595  IntersectionExampleScenario.node[58].veinsmobility  posx  ETV
vector 59596  IntersectionExampleScenario.node[58].veinsmobility  posy  ETV
vector 59597  IntersectionExampleScenario.node[58].veinsmobility  speed  ETV
vector 59598  IntersectionExampleScenario.node[58].veinsmobility  acceleration  ETV
vector 59599  IntersectionExampleScenario.node[58].veinsmobility  co2emission  ETV
59438	1415861 8985 8540 18620 85.25 154.5 278 0.973 11.648172402475 663.82185708324 3073.3062333815
59437	1424846 8948 8540 18620 85.25 154.5 278 -4.5 2.5000009536743 39.359884262085 422.10185158245
59436	1433794 9415 8501 18620 85 154.5 279 0 15.64999961853 2284.9317317326 29975.456296447
59435	1443209 9701 8461 18620 84.75 154.5 280 486.85000610352 486.85000610352 136318.00170898 66366419.964038
59434	1452910 9668 8461 18620 84.75 154.5 280 237.57775878906 803.59610748291 148296.1364975 83066649.892662
vector 59602  IntersectionExampleScenario.node[59].veinsmobility  posx  ETV
vector 59603  IntersectionExampleScenario.node[59].veinsmobility  posy  ETV
vector 59604  IntersectionExampleScenario.node[59].veinsmobility  speed  ETV
vector 59605  IntersectionExampleScenario.node[59].veinsmobility  acceleration  ETV
vector 59606  IntersectionExampleScenario.node[59].veinsmobility  co2emission  ETV
vector 59609  IntersectionExampleScenario.node[60].veinsmobility  posx  ETV
vector 59610  IntersectionExampleScenario.node[60].veinsmobility  posy  ETV
vector 59611  IntersectionExampleScenario.node[60].veinsmobility  speed  ETV
vector 59612  IntersectionExampleScenario.node[60].veinsmobility  acceleration  ETV
vector 59613  IntersectionExampleScenario.node[60].veinsmobility  co2emission  ETV
59480	1463380 6634 12133 19105 107 158 205 0.973 11.200708441096 553.16022153575 2647.7714203284
59479	1470014 6058 12133 19105 107 158 205 -6.8669729232788 4 35.625318527222 445.88497271223
59478	1476072 6454 12094 19105 106.75 158 206 0 15.02499961853 2184.6978769302 29568.088135373
59477	1482526 7225 12055 19105 106.5 158 207 184.17810058594 483.36395263672 85302.756866455 37108689.881477
59476	1489751 7178 12055 19105 106.5 158 207 486.85000610352 735.00680541992 109452.26348877 58942212.62415
59494	1496929 6056 13102 19339 113.5 159.75 186 0.973 11.200708441096 539.32062387956 2657.887103278
59493	1502985 6054 13102 19339 113.5 159.75 186 -2.7805824279785 2.5 38.341367721558 291.57044918699
59492	1509039 6303 13065 19339 113.25 159.75 187 2.1166622638702 15.243676185608 2181.183403492 29284.879978945
59491	1515342 6532 13028 19339 113 159.75 188 184.17810058594 483.14999389648 76144.386352539 32656390.137461
59490	1521874 6578 13028 19339 113 159.75 188 486.85000610352 732.26957702637 99665.289031982 53810137.13799
59515	1528452 5421 14249 19685 121.25 162.5 166 0.973 12.099024792222 566.08900600173 3363.7919458315
59514	1533873 5230 14249 19685 121.25 162.5 166 -3.2655849456787 2.5 41.566686630249 329.53300050964
59513	1539103 5530 14212 19685 121 162.5 167 5.6500000953674 16.27499961853 2189.4143223763 30446.567835741
59512	1544633 5847 14175 19685 120.75 162.5 168 184.17810058594 483.14999389648 66868.714935303 28331991.426771
59511	1550480 5871 14175 19685 120.75 162.5 168 486.85000610352 734.53294372559 89691.774139404 48809956.510797
59403	1556351 10953 7174 20045 75.75 165.5 360 0.973 11.200708441096 750.35975877627 3101.1639691318
59402	1567304 10760 7174 20045 75.75 165.5 360 -7.8716526031494 4 37.32285118103 604.33602673966
59401	1578064 10961 7140 20045 75.5 165.5 361 0 15.044382095337 2245.7116582207 29235.136794217
59400	1589025 12496 7105 20045 75.25 165.5 362 483.14999389648 483.14999389648 174900.29779053 84503077.809987
59399	1601521 12463 7105 20045 75.25 165.5 362 175.77734375 733.46125793457 163246.44384766 78075970.946282
vector 59616  IntersectionExampleScenario.node[61].veinsmobility  posx  ETV
vector 59617  IntersectionExampleScenario.node[61].veinsmobility  posy  ETV
vector 59618  IntersectionExampleScenario.node[61].veinsmobility  speed  ETV
vector 59619  IntersectionExampleScenario.node[61].veinsmobility  acceleration  ETV
vector 59620  IntersectionExampleScenario.node[61].veinsmobility  co2emission  ETV
59466	1614385 9486 9588 20271 91.75 167.5 304 0.973 11.200708441096 655.76165071498 2776.3313902422
59465	1623871 9809 9588 20271 91.75 167.5 304 -3.4793262481689 2.5 35.625318527222 387.96900843966
59464	1633680 9862 9545 20271 91.5 167.5 305 0 15.02499961853 2191.5968675278 26713.835258673
59463	1643542 10658 9502 20271 91.25 167.5 306 234.99096679688 483.14999389648 139171.48620605 64482961.102997
59462	1654200 10629 9502 20271 91.25 167.5 306 184.17810058594 483.14999389648 129197.12045288 56611852.738925
vector 59623  IntersectionExampleScenario.node[62].veinsmobility  posx  ETV
vector 59624  IntersectionExampleScenario.node[62].veinsmobility  posy  ETV
vector 59625  IntersectionExampleScenario.node[62].veinsmobility  speed  ETV
vector 59630  IntersectionExampleScenario.node[63].veinsmobility  posx  ETV
vector 59631  IntersectionExampleScenario.node[63].veinsmobility  posy  ETV
vector 59626  IntersectionExampleScenario.node[62].veinsmobility  acceleration  ETV
vector 59627  IntersectionExampleScenario.node[62].veinsmobility  co2emission  ETV
vector 59632  IntersectionExampleScenario.node[63].veinsmobility  speed  ETV
vector 59633  IntersectionExampleScenario.node[63].veinsmobility  acceleration  ETV
vector 59634  IntersectionExampleScenario.node[63].veinsmobility  co2emission  ETV
59487	1665631 7541 12885 20895 112 173.5 247 0.973 11.36141391502 631.87431216496 3216.5707153936
59486	1673172 7140 12885 20895 112 173.5 247 -6.765887260437 4 37.15309715271 507.32483454733
59485	1680312 7281 12848 20895 111.75 173.5 248 0 15.283005714417 2177.3618264198 29992.776601753
59484	1687593 8710 12811 20895 111.5 173.5 249 486.63604736328 785.82187652588 136289.17214203 76662205.723841
59483	1696303 8650 12811 20895 111.5 173.5 249 236.84155273438 483.14999389648 111967.01016235 51434409.814742
59501	1704953 7580 13550 20945 116.5 174 231 0.973 11.54047740176 616.00457798848 2947.3426224291
59500	1712533 7514 13550 20945 116.5 174 231 -4.5 2.5 40.038900375366 447.68916344603
59499	1720047 7653 13511 20945 116.25 174 232 0 15.713309288025 2219.1425384805 31747.625085975
59498	1727700 8106 13472 20945 116 174 233 235.83319091797 785.82187652588 120334.31864166 66252475.979461
59497	1735806 8153 13472 20945 116 174 233 483.14999389648 483.14999389648 112573.94857788 54390102.568306
59543	1743959 6076 15380 21163 129.5 176.25 188 0.973 11.648172402475 547.93701637811 2897.2817911438
59542	1750035 5976 15380 21163 129.5 176.25 188 -2.1890258789062 2.5000009536743 38.850629806519 301.36100646869
59541	1756011 6334 15343 21163 129.25 176.25 189 2.4860093593597 15.64999961853 2207.9740862846 29432.833192582
59540	1762345 6640 15306 21163 129 176.25 190 483.14999389648 785.82187652588 107392.27100372 62523098.094707
59539	1768985 6640 15306 21163 129 176.25 190 483.14999389648 732.40309143066 100086.97145081 53738281.111747
vector 59637  IntersectionExampleScenario.node[64].veinsmobility  posx  ETV
vector 59638  IntersectionExampleScenario.node[64].veinsmobility  posy  ETV
vector 59639  IntersectionExampleScenario.node[64].veinsmobility  speed  ETV
vector 59640  IntersectionExampleScenario.node[64].veinsmobility  acceleration  ETV
vector 59641  IntersectionExampleScenario.node[64].veinsmobility  co2emission  ETV
59459	1776026 11331 9256 21565 89.75 180.75 365 0.973 11.200708441096 753.39694742564 3093.7937387328
59458	1787357 11018 9256 21565 89.75 180.75 365 -9.0704307556152 4 35.964826583862 643.92915897239
59457	1798375 11356 9214 21565 89.5 180.75 366 0 15.02499961853 2254.1105101183 28280.185239772
59456	1809731 12784 9171 21565 89.25 180.75 367 486.85000610352 486.85000610352 178673.95223999 86987414.738579
59455	1822515 12743 9171 21565 89.25 180.75 367 237.70941162109 797.1527557373 191319.1926651 104334410.8849
59508	1835258 8098 13990 21671 119.5 182 251 0.973 11.36141391502 656.31651875461 3445.7272537744
59507	1843356 8042 13990 21671 119.5 182 251 -4.5 2.5 36.98334312439 491.41621644535
59506	1851398 8141 13953 21671 119.25 182 252 0 15.25 2181.8468914181 28926.25981603
59505	1859539 8843 13916 21671 119 182 253 486.85000610352 732.63340759277 131495.07409668 69430766.022513
59504	1868382 8840 13916 21671 119 182 253 486.85000610352 785.82187652588 139206.38564301 78611727.65624
59522	1877222 6983 15238 21755 128.5 183 219 0.973 11.648172402475 591.90636360265 2933.0126783493
59521	1884205 7248 15238 21755 128.5 183 219 -3.8461077213287 2.5 39.869146347046 336.91827243481
59520	1891453 7523 15204 21755 128.25 183 220 0 15.64999961853 2207.6457123887 29766.109750763
59519	1898976 7733 15171 21755 128 183 221 486.85000610352 486.85000610352 107593.85134888 52382067.185901
59518	1906709 7702 15171 21755 128 183 221 239.03326416016 785.82187652588 115480.97130585 64388703.561803
vector 59644  IntersectionExampleScenario.node[65].veinsmobility  posx  ETV
vector 59645  IntersectionExampleScenario.node[65].veinsmobility  posy  ETV
vector 59646  IntersectionExampleScenario.node[65].veinsmobility  speed  ETV
vector 59647  IntersectionExampleScenario.node[65].veinsmobility  acceleration  ETV
vector 59648  IntersectionExampleScenario.node[65].veinsmobility  co2emission  ETV
59564	1914812 5614 17063 21990 141.75 186 178 0.973 12.553400930962 566.9354091862 3430.4813943693
59563	1920426 5512 17063 21990 141.75 186 178 -3.5997734069824 2.5 44.112981796265 313.9030189845
59562	1925938 6017 17032 21990 141.5 186 179 4.8336477279663 16.89999961853 2214.0979804993 30575.789738989
59561	1931955 6300 17001 21990 141.25 186 180 486.85000610352 486.85000610352 87633.001098633 42664127.119739
59560	1938255 6258 17001 21990 141.25 186 180 237.79919433594 785.82187652588 95456.148612976 54557509.577091
59550	1944513 6951 15778 22011 132.25 186.25 217 0.973 11.450879080643 573.71720302932 2839.4389627634
59549	1951464 7170 15778 22011 132.25 186.25 217 -4.2167053222656 2.5 37.492597579956 346.11305305457
59548	1958634 7335 15741 22011 132 186.25 218 1.1572939157486 15.375 2244.2424852848 28897.206754137
59547	1965969 7659 15704 22011 131.75 186.25 219 235.97906494141 486.85000610352 98041.053771973 44988761.807224
59546	1973628 7654 15704 22011 131.75 186.25 219 483.14999389648 793.78281402588 123583.62505341 71742727.870124
vector 59651  IntersectionExampleScenario.node[66].veinsmobility  posx  ETV
vector 59652  IntersectionExampleScenario.node[66].veinsmobility  posy  ETV
vector 59658  IntersectionExampleScenario.node[67].veinsmobility  posx  ETV
vector 59659  IntersectionExampleScenario.node[67].veinsmobility  posy  ETV
vector 59653  IntersectionExampleScenario.node[66].veinsmobility  speed  ETV
vector 59665  IntersectionExampleScenario.node[68].veinsmobility  posx  ETV
vector 59666  IntersectionExampleScenario.node[68].veinsmobility  posy  ETV
vector 59672  IntersectionExampleScenario.node[69].veinsmobility  posx  ETV
vector 59673  IntersectionExampleScenario.node[69].veinsmobility  posy  ETV
vector 59654  IntersectionExampleScenario.node[66].veinsmobility  acceleration  ETV
vector 59655  IntersectionExampleScenario.node[66].veinsmobility  co2emission  ETV
vector 59660  IntersectionExampleScenario.node[67].veinsmobility  speed  ETV
vector 59661  IntersectionExampleScenario.node[67].veinsmobility  acceleration  ETV
vector 59662  IntersectionExampleScenario.node[67].veinsmobility  co2emission  ETV
vector 59667  IntersectionExampleScenario.node[68].veinsmobility  speed  ETV
vector 59674  IntersectionExampleScenario.node[69].veinsmobility  speed  ETV
vector 59668  IntersectionExampleScenario.node[68].veinsmobility  acceleration  ETV
vector 59669  IntersectionExampleScenario.node[68].veinsmobility  co2emission  ETV
vector 59675  IntersectionExampleScenario.node[69].veinsmobility  acceleration  ETV
vector 59676  IntersectionExampleScenario.node[69].veinsmobility  co2emission  ETV
59529	1982886 7545 15271 22347 128.75 189.5 244 0.973 11.36141391502 609.08793573647 2949.8439589834
59528	1990431 7127 15271 22347 128.75 189.5 244 -6.9312534332275 4 36.813589096069 468.59298548672
59527	1997558 7221 15238 22347 128.5 189.5 245 0 15.25 2173.034673214 29876.538541578
59526	2004779 8586 15204 22347 128.25 189.5 246 184.17810058594 483.36395263672 103818.68103027 45874623.141635
59525	2013365 8546 15204 22347 128.25 189.5 246 486.85000610352 732.10182189941 128075.46203613 67755212.912227
vector 59679  IntersectionExampleScenario.node[70].veinsmobility  posx  ETV
vector 59680  IntersectionExampleScenario.node[70].veinsmobility  posy  ETV
vector 59681  IntersectionExampleScenario.node[70].veinsmobility  speed  ETV
vector 59682  IntersectionExampleScenario.node[70].veinsmobility  acceleration  ETV
vector 59683  IntersectionExampleScenario.node[70].veinsmobility  co2emission  ETV
vector 59686  IntersectionExampleScenario.node[71].veinsmobility  posx  ETV
vector 59687  IntersectionExampleScenario.node[71].veinsmobility  posy  ETV
vector 59688  IntersectionExampleScenario.node[71].veinsmobility  speed  ETV
vector 59689  IntersectionExampleScenario.node[71].veinsmobility  acceleration  ETV
vector 59690  IntersectionExampleScenario.node[71].veinsmobility  co2emission  ETV
59592	2022713 5521 18209 22711 151.25 192.75 167 0.973 11.990504229548 543.71252456235 3146.7388063284
59591	2028234 5344 18209 22711 151.25 192.75 167 -3.9279403686523 2.5 39.529638290405 307.76968017972
59590	2033578 5620 18178 22711 151 192.75 168 5.6500000953674 16.125 2220.0975613594 30917.459424534
59589	2039198 5889 18147 22711 150.75 192.75 169 184.17810058594 733.54040527344 75400.379898071 37744246.724617
59588	2045087 5916 18147 22711 150.75 192.75 169 486.85000610352 486.85000610352 82277.651031494 40056874.906866
59536	2051003 8420 15343 22711 129.25 192.75 255 0.973 10.916047529558 611.16985238299 2638.5661388122
59535	2059423 8470 15343 22711 129.25 192.75 255 -4.5 2.5 35.625318527222 399.28869101755
59534	2067893 8479 15306 22711 129 192.75 256 0 14.933020591736 2285.8033948829 30385.721019921
59533	2076372 8968 15271 22711 128.75 192.75 257 160.43438720703 483.22860717773 105822.25256348 46128199.859293
59532	2085340 8989 15271 22711 128.75 192.75 257 486.85000610352 735.17590332031 133807.10731506 70808324.682002
59557	2094329 8078 15856 23271 132.75 197.75 261 0.973 11.00486315618 603.09741271725 2603.8434660583
59556	2102407 7059 15856 23271 132.75 197.75 261 -33.175636291504 4 34.606801986694 1427.0980847483
59555	2109466 7571 15817 23271 132.5 197.75 262 0 14.75 2175.0272817612 29517.211151487
59554	2117037 9202 15778 23271 132.25 197.75 263 483.14999389648 732.12574768066 135911.54377747 71408917.340757
59553	2126239 9181 15778 23271 132.25 197.75 263 184.17810058594 486.85000610352 111824.96643066 49706631.937066
59606	2135420 5807 18756 23470 155.5 199.75 178 0.97223939240464 11.810082123732 549.91515780741 3108.916727297
59605	2141227 5795 18756 23470 155.5 199.75 178 -2.8966445922852 2.5 38.680875778198 334.07626187984
59604	2147022 5918 18721 23470 155.25 199.75 179 4.0680418014526 15.875 2182.6069016457 29273.676783243
59603	2152940 6298 18686 23470 155 199.75 180 237.82135009766 483.14999389648 78885.53717041 35525872.666718
59602	2159238 6274 18686 23470 155 199.75 180 184.17810058594 483.31304931641 72285.481781006 30798507.661342
vector 59693  IntersectionExampleScenario.node[72].veinsmobility  posx  ETV
vector 59694  IntersectionExampleScenario.node[72].veinsmobility  posy  ETV
vector 59695  IntersectionExampleScenario.node[72].veinsmobility  speed  ETV
vector 59696  IntersectionExampleScenario.node[72].veinsmobility  acceleration  ETV
vector 59697  IntersectionExampleScenario.node[72].veinsmobility  co2emission  ETV
59578	2165913 7082 17820 23947 148 204.75 228 0.973 12.099024792222 611.05851359831 3205.3823346163
59577	2172995 6614 17820 23947 148 204.75 228 -7.8776445388794 4 40.038900375366 507.6300871309
59576	2179609 6777 17789 23947 147.75 204.75 229 0 16.27499961853 2168.8225958347 31233.1102877
59575	2186386 8035 17758 23947 147.5 204.75 230 486.63604736328 785.82187652588 126412.7117691 71464551.161463
59574	2194421 7980 17758 23947 147.5 204.75 230 239.04711914062 483.14999389648 103285.85470581 47385682.878989
vector 59700  IntersectionExampleScenario.node[73].veinsmobility  posx  ETV
vector 59701  IntersectionExampleScenario.node[73].veinsmobility  posy  ETV
vector 59702  IntersectionExampleScenario.node[73].veinsmobility  speed  ETV
vector 59703  IntersectionExampleScenario.node[73].veinsmobility  acceleration  ETV
vector 59704  IntersectionExampleScenario.node[73].veinsmobility  co2emission  ETV
vector 59707  IntersectionExampleScenario.node[74].veinsmobility  posx  ETV
vector 59708  IntersectionExampleScenario.node[74].veinsmobility  posy  ETV
vector 59714  IntersectionExampleScenario.node[75].veinsmobility  posx  ETV
vector 59715  IntersectionExampleScenario.node[75].veinsmobility  posy  ETV
vector 59709  IntersectionExampleScenario.node[74].veinsmobility  speed  ETV
vector 59716  IntersectionExampleScenario.node[75].veinsmobility  speed  ETV
59599	2203266 6770 18554 24090 154 206.25 210 0.97223939240464 11.648172402475 570.92382243364 2917.5498240629
59598	2210036 7004 18554 24090 154 206.25 210 -3.8525769710541 2.5000019073486 38.680875778198 348.86762625595
59597	2217040 7219 18521 24090 153.75 206.25 211 0 15.64999961853 2210.747895129 30044.606811265
59596	2224259 7408 18488 24090 153.5 206.25 212 237.90209960938 785.82187652588 110166.99015045 61361600.139744
59595	2231667 7420 18488 24090 153.5 206.25 212 483.14999389648 483.14999389648 102427.79870605 49487990.31966
vector 59721  IntersectionExampleScenario.node[76].veinsmobility  posx  ETV
vector 59722  IntersectionExampleScenario.node[76].veinsmobility  posy  ETV
vector 59710  IntersectionExampleScenario.node[74].veinsmobility  acceleration  ETV
vector 59711  IntersectionExampleScenario.node[74].veinsmobility  co2emission  ETV
vector 59717  IntersectionExampleScenario.node[75].veinsmobility  acceleration  ETV
vector 59718  IntersectionExampleScenario.node[75].veinsmobility  co2emission  ETV
vector 59723  IntersectionExampleScenario.node[76].veinsmobility  speed  ETV
vector 59724  IntersectionExampleScenario.node[76].veinsmobility  acceleration  ETV
vector 59725  IntersectionExampleScenario.node[76].veinsmobility  co2emission  ETV
vector 59728  IntersectionExampleScenario.node[77].veinsmobility  posx  ETV
vector 59729  IntersectionExampleScenario.node[77].veinsmobility  posy  ETV
vector 59730  IntersectionExampleScenario.node[77].veinsmobility  speed  ETV
vector 59731  IntersectionExampleScenario.node[77].veinsmobility  acceleration  ETV
vector 59732  IntersectionExampleScenario.node[77].veinsmobility  co2emission  ETV
vector 59735  IntersectionExampleScenario.node[78].veinsmobility  posx  ETV
vector 59736  IntersectionExampleScenario.node[78].veinsmobility  posy  ETV
vector 59737  IntersectionExampleScenario.node[78].veinsmobility  speed  ETV
vector 59738  IntersectionExampleScenario.node[78].veinsmobility  acceleration  ETV
vector 59739  IntersectionExampleScenario.node[78].veinsmobility  co2emission  ETV
59585	2240628 7307 18178 24776 151 212 245 0.973 12.44402232946 645.37844179347 3458.9586645473
59584	2247935 6929 18178 24776 151 212 245 -4.5 2.5 43.943227767944 468.63263521723
59583	2254864 7219 18147 24776 150.75 212 246 0 16.75 2206.5588011742 31381.839964549
59582	2262083 8644 18118 24776 150.5 212 247 486.85000610352 486.85000610352 120251.95150757 58544663.325419
59581	2270727 8621 18118 24776 150.5 212 247 238.89813232422 785.82187652588 128516.63447571 70850246.836677
59571	2279348 8170 17426 24807 144.75 212.25 271 0.973 11.810082123732 651.69613135057 3220.4714792146
59570	2287518 7941 17426 24807 144.75 212.25 271 -6.6993265151978 4 38.511121749878 496.3876733809
59569	2295459 8032 17395 24807 144.5 212.25 272 0 15.875 2233.7360405922 29412.879831712
59568	2303491 9483 17364 24807 144.25 212.25 273 486.85000610352 734.25172424316 141138.24537659 74072639.103921
59567	2312974 9542 17364 24807 144.25 212.25 273 486.63604736328 798.59687805176 150080.73310852 84812354.986433
59613	2322516 7533 19000 25193 157.25 215.5 234 0.973 11.648172402475 598.44500022025 2951.8453733503
59612	2330049 7865 19000 25193 157.25 215.5 234 -3.8664679527283 2.5000004768372 38.341367721558 348.13408645331
59611	2337914 8014 18965 25193 157 215.5 235 0 15.64999961853 2212.5214002281 29715.544970215
59610	2345928 8260 18930 25193 156.75 215.5 236 486.85000610352 486.85000610352 114896.60144043 55937411.112546
59609	2354188 8217 18930 25193 156.75 215.5 236 237.67449951172 785.82187652588 122818.79262543 68051177.077543
vector 59742  IntersectionExampleScenario.node[79].veinsmobility  posx  ETV
vector 59743  IntersectionExampleScenario.node[79].veinsmobility  posy  ETV
vector 59744  IntersectionExampleScenario.node[79].veinsmobility  speed  ETV
vector 59745  IntersectionExampleScenario.node[79].veinsmobility  acceleration  ETV
vector 59746  IntersectionExampleScenario.node[79].veinsmobility  co2emission  ETV
vector 59749  IntersectionExampleScenario.node[80].veinsmobility  posx  ETV
vector 59750  IntersectionExampleScenario.node[80].veinsmobility  posy  ETV
vector 59751  IntersectionExampleScenario.node[80].veinsmobility  speed  ETV
vector 59752  IntersectionExampleScenario.node[80].veinsmobility  acceleration  ETV
vector 59753  IntersectionExampleScenario.node[80].veinsmobility  co2emission  ETV
vector 59756  IntersectionExampleScenario.node[81].veinsmobility  posx  ETV
vector 59757  IntersectionExampleScenario.node[81].veinsmobility  posy  ETV
vector 59758  IntersectionExampleScenario.node[81].veinsmobility  speed  ETV
vector 59759  IntersectionExampleScenario.node[81].veinsmobility  acceleration  ETV
vector 59760  IntersectionExampleScenario.node[81].veinsmobility  co2emission  ETV
59620	2363608 6760 20184 25715 166.75 219.5 212 0.973 10.916047529558 545.29314078182 2562.9221118722
59619	2370368 7044 20184 25715 166.75 219.5 212 -2.0631484985352 2.5000019073486 34.77654838562 300.4702605487
59618	2377412 7141 20155 25715 166.5 219.5 213 1.4115810394287 14.625 2184.6607019901 26956.604097702
59617	2384553 7485 20126 25715 166.25 219.5 214 486.85000610352 733.24087524414 112861.72421265 60592895.722997
59616	2392038 7471 20126 25715 166.25 219.5 214 486.85000610352 785.82187652588 120622.34925842 69861371.061806
59634	2399509 6198 20794 25855 172.5 220.5 193 0.973 12.897247815189 625.04328782702 3546.4522549854
59633	2405707 5901 20794 25855 172.5 220.5 193 -7.3081436157227 4 46.878652572632 521.44093478968
59632	2411608 6063 20767 25855 172.25 220.5 194 0 17.369663238525 2207.6317896843 33246.00993009
59631	2417671 6792 20740 25855 172 220.5 195 184.17810058594 731.6282043457 88440.401901245 44034780.52895
59630	2424463 6824 20740 25855 172 220.5 195 486.85000610352 486.85000610352 94935.751190186 46219471.046384
vector 59763  IntersectionExampleScenario.node[82].veinsmobility  posx  ETV
vector 59764  IntersectionExampleScenario.node[82].veinsmobility  posy  ETV
vector 59765  IntersectionExampleScenario.node[82].veinsmobility  speed  ETV
vector 59766  IntersectionExampleScenario.node[82].veinsmobility  acceleration  ETV
vector 59767  IntersectionExampleScenario.node[82].veinsmobility  co2emission  ETV
59662	2431688 5058 22151 26463 187.75 225 150 0.973 12.24066983188 516.08901438853 3236.4336986521
59661	2436746 4872 22151 26463 187.75 225 150 -3.1132888793945 2.5 40.887662887573 254.8700393395
59660	2441618 5045 22122 26463 187.5 225 151 5.6500000953674 16.470363616943 2218.5988693237 33373.999889183
59659	2446663 5293 22097 26463 187.25 225 152 184.17810058594 733.23173522949 67997.140869141 34441721.649036
59658	2451956 5320 22097 26463 187.25 225 152 486.85000610352 486.85000610352 74001.200927734 36027485.123335
vector 59770  IntersectionExampleScenario.node[83].veinsmobility  posx  ETV
vector 59771  IntersectionExampleScenario.node[83].veinsmobility  posy  ETV
vector 59772  IntersectionExampleScenario.node[83].veinsmobility  speed  ETV
vector 59773  IntersectionExampleScenario.node[83].veinsmobility  acceleration  ETV
vector 59774  IntersectionExampleScenario.node[83].veinsmobility  co2emission  ETV
59648	2457677 5762 21990 26988 186 229 173 0.973 11.90022389248 558.63697800749 3085.1929228201
59647	2463439 5311 21990 26988 186 229 173 -6.9388580322266 4 39.869146347046 486.92859174969
59646	2468750 5699 21969 26988 185.75 229 174 0 16 2219.975171566 32151.358108667
59645	2474449 6124 21948 26988 185.5 229 175 483.14999389648 483.14999389648 84551.248931885 40850935.40538
59644	2480573 6098 21948 26988 185.5 229 175 184.17810058594 735.07762145996 78987.628295898 39770198.403333
vector 59777  IntersectionExampleScenario.node[84].veinsmobility  posx  ETV
vector 59778  IntersectionExampleScenario.node[84].veinsmobility  posy  ETV
vector 59784  IntersectionExampleScenario.node[85].veinsmobility  posx  ETV
vector 59785  IntersectionExampleScenario.node[85].veinsmobility  posy  ETV
vector 59779  IntersectionExampleScenario.node[84].veinsmobility  speed  ETV
vector 59791  IntersectionExampleScenario.node[86].veinsmobility  posx  ETV
vector 59792  IntersectionExampleScenario.node[86].veinsmobility  posy  ETV
vector 59780  IntersectionExampleScenario.node[84].veinsmobility  acceleration  ETV
vector 59781  IntersectionExampleScenario.node[84].veinsmobility  co2emission  ETV
vector 59786  IntersectionExampleScenario.node[85].veinsmobility  speed  ETV
vector 59787  IntersectionExampleScenario.node[85].veinsmobility  acceleration  ETV
vector 59788  IntersectionExampleScenario.node[85].veinsmobility  co2emission  ETV
vector 59793  IntersectionExampleScenario.node[86].veinsmobility  speed  ETV
vector 59794  IntersectionExampleScenario.node[86].veinsmobility  acceleration  ETV
vector 59795  IntersectionExampleScenario.node[86].veinsmobility  co2emission  ETV
vector 59798  IntersectionExampleScenario.node[87].veinsmobility  posx  ETV
vector 59799  IntersectionExampleScenario.node[87].veinsmobility  posy  ETV
vector 59800  IntersectionExampleScenario.node[87].veinsmobility  speed  ETV
vector 59801  IntersectionExampleScenario.node[87].veinsmobility  acceleration  ETV
vector 59802  IntersectionExampleScenario.node[87].veinsmobility  co2emission  ETV
59676	2488275 6528 22180 28266 188 238 201 0.973 11.200708441096 548.75926449703 2673.0084185257
59675	2494803 6107 22180 28266 188 238 201 -7.2629060745239 4 35.116056442261 461.07463756477
59674	2500910 6421 22151 28266 187.75 238 202 0 15.02499961853 2208.9959385395 29969.972286837
59673	2507331 7095 22122 28266 187.5 238 203 237.05212402344 785.82187652588 104756.0782547 58369582.300187
59672	2514426 7104 22122 28266 187.5 238 203 483.14999389648 483.14999389648 98079.448760986 47387085.070241
59690	2521530 6240 22653 28424 192.25 239.25 189 0.973 11.760460928288 578.3283442802 2986.8646813925
59689	2527770 6517 22653 28424 192.25 239.25 189 -4.5 2.5 40.435609817505 431.16106616616
59688	2534287 6522 22624 28424 192 239.25 190 0 15.806108474731 2230.5962921567 31475.866760631
59687	2540809 6668 22595 28424 191.75 239.25 191 237.23986816406 790.18281555176 99310.875686646 55876800.897251
59686	2547477 6685 22595 28424 191.75 239.25 191 483.14999389648 483.14999389648 92281.648834229 44585878.071015
59627	2554162 8728 20740 28970 172 244 289 0.973 11.810082123732 677.23787497091 3083.1997246949
59626	2562890 8383 20740 28970 172 244 289 -7.2112035751343 4 39.529638290405 632.03133736574
59625	2571273 8593 20715 28970 171.75 244 290 0 15.875 2179.9967201948 28875.905828503
59624	2579866 10116 20690 28970 171.5 244 291 486.85000610352 733.38046264648 149724.30932617 78131400.42491
59623	2589982 10174 20690 28970 171.5 244 291 486.63604736328 785.82187652588 158319.98368073 88218233.29204
vector 59805  IntersectionExampleScenario.node[88].veinsmobility  posx  ETV
vector 59806  IntersectionExampleScenario.node[88].veinsmobility  posy  ETV
vector 59807  IntersectionExampleScenario.node[88].veinsmobility  speed  ETV
vector 59808  IntersectionExampleScenario.node[88].veinsmobility  acceleration  ETV
vector 59809  IntersectionExampleScenario.node[88].veinsmobility  co2emission  ETV
59641	2600557 8429 21426 29214 179.25 246.25 269 0.973 11.200708441096 627.50905850557 2875.9699958804
59640	2608986 8302 21426 29214 179.25 246.25 269 -4.5 2.5 35.795072555542 420.5863603821
59639	2617288 8534 21403 29214 179 246.25 270 0 15.02499961853 2208.2653854676 28163.649748088
59638	2625822 9458 21380 29214 178.75 246.25 271 236.03649902344 486.85000610352 123127.28884888 57129567.753162
59637	2635280 9454 21380 29214 178.75 246.25 271 483.13433837891 785.82187652588 148472.78678131 83429785.049383
vector 59812  IntersectionExampleScenario.node[89].veinsmobility  posx  ETV
vector 59813  IntersectionExampleScenario.node[89].veinsmobility  posy  ETV
vector 59814  IntersectionExampleScenario.node[89].veinsmobility  speed  ETV
vector 59815  IntersectionExampleScenario.node[89].veinsmobility  acceleration  ETV
vector 59816  IntersectionExampleScenario.node[89].veinsmobility  co2emission  ETV
59655	2645135 7790 22122 29456 187.5 248.5 245 0.973 11.200708441096 582.96423162428 2739.8155987469
59654	2652925 8176 22122 29456 187.5 248.5 245 -3.6994924545288 2.5 35.625318527222 324.05568203157
59653	2661101 8369 22097 29456 187.25 248.5 246 0 15.02499961853 2222.2839293703 28673.508333749
59652	2669470 8644 22074 29456 187 248.5 247 486.85000610352 486.85000610352 120251.95150757 58544663.325419
59651	2678114 8612 22074 29456 187 248.5 247 234.99523925781 785.82187652588 128194.92630768 70864942.239004
59669	2686726 8242 22180 29726 188 251 253 0.973 10.311522366623 596.4491066461 2373.9189201041
59668	2694968 8317 22180 29726 188 251 253 -4.5 2.5000019073486 34.606801986694 353.419814514
59667	2703285 8755 22151 29726 187.75 251 254 0 14.446796417236 2315.3702848144 28885.447408854
59666	2712040 8924 22122 29726 187.5 251 255 486.85000610352 486.85000610352 124146.7515564 60440846.752963
59665	2720964 8899 22122 29726 187.5 251 255 235.53985595703 809.56562805176 135594.15622711 77116479.252136
vector 59819  IntersectionExampleScenario.node[90].veinsmobility  posx  ETV
vector 59820  IntersectionExampleScenario.node[90].veinsmobility  posy  ETV
vector 59821  IntersectionExampleScenario.node[90].veinsmobility  speed  ETV
vector 59822  IntersectionExampleScenario.node[90].veinsmobility  acceleration  ETV
vector 59823  IntersectionExampleScenario.node[90].veinsmobility  co2emission  ETV
59683	2730264 7817 22459 29983 190.5 253.25 252 0.973 11.648172402475 630.57681000455 3032.6093837356
59682	2738081 6996 22459 29983 190.5 253.25 252 -8.9879570007324 4 38.511121749878 535.73534714055
59681	2745077 7433 22430 29983 190.25 253.25 253 0 15.64999961853 2270.6300563812 32481.447094909
59680	2752510 8865 22401 29983 190 253.25 254 169.95465087891 733.9766998291 115038.81190491 56620562.174601
59679	2761375 8889 22401 29983 190 253.25 254 486.85000610352 486.85000610352 123659.90155029 60203823.82452
59704	2770264 6124 24040 30065 205.75 254 194 0.973 12.553400930962 582.47694650494 3423.3858179858
59703	2776388 6313 24040 30065 205.75 254 194 -2.1648597717285 2.5000009536743 42.585195541382 345.79883526419
59702	2782701 6489 24017 30065 205.5 254 195 1.0245742797852 16.89999961853 2179.5573978424 30146.528950646
59701	2789190 6837 23993 30065 205.25 254 196 184.17810058594 483.16833496094 79949.114929199 34398054.591176
59700	2796027 6858 23993 30065 205.25 254 196 486.85000610352 731.77421569824 103034.41656494 55103059.67991
vector 59826  IntersectionExampleScenario.node[91].veinsmobility  posx  ETV
vector 59827  IntersectionExampleScenario.node[91].veinsmobility  posy  ETV
vector 59828  IntersectionExampleScenario.node[91].veinsmobility  speed  ETV
vector 59829  IntersectionExampleScenario.node[91].veinsmobility  acceleration  ETV
vector 59830  IntersectionExampleScenario.node[91].veinsmobility  co2emission  ETV
vector 59833  IntersectionExampleScenario.node[92].veinsmobility  posx  ETV
vector 59834  IntersectionExampleScenario.node[92].veinsmobility  posy  ETV
59718	2803440 6548 24117 30307 206.5 256.25 200 0.96333723109819 12.099024792222 593.65970600306 3076.5411791736
59717	2809988 6598 24117 30307 206.5 256.25 200 -4.5 2.5 40.208654403687 403.58196975739
59716	2816586 6762 24090 30307 206.25 256.25 201 2.3324267864227 16.27499961853 2302.0954020023 31056.424841695
59715	2823348 7045 24063 30307 206 256.25 202 161.1796875 486.85000610352 80363.267120361 34157084.774643
59714	2830393 6995 24063 30307 206 256.25 202 236.64825439453 486.85000610352 90132.612457275 41248215.634285
vector 59835  IntersectionExampleScenario.node[92].veinsmobility  speed  ETV
vector 59836  IntersectionExampleScenario.node[92].veinsmobility  acceleration  ETV
vector 59837  IntersectionExampleScenario.node[92].veinsmobility  co2emission  ETV
59732	2837635 6363 24353 30497 208.5 258 199 0.973 12.26218747632 599.79694876488 3426.5799912598
59731	2843998 6570 24353 30497 208.5 258 199 -4.5 2.5 41.227170944214 390.96757531452
59730	2850568 6623 24322 30497 208.25 258 200 2.5019979476929 16.5 2299.8813488483 31141.707849182
59729	2857191 7018 24291 30497 208 258 201 154.57891845703 483.14999389648 79154.56854248 33411877.602647
59728	2864209 7023 24291 30497 208 258 201 486.85000610352 731.95262145996 105620.87631226 56463908.190276
59697	2871232 7430 23543 30766 200.5 260.5 241 0.973 12.099024792222 634.18308576922 3274.244533854
59696	2878662 6750 23543 30766 200.5 260.5 241 -7.654185295105 4 41.227170944214 514.46028424912
59695	2885412 7041 23518 30766 200.25 260.5 242 0 16.27499961853 2191.0643069744 32190.950154177
59694	2892453 8500 23493 30766 200 260.5 243 483.14999389648 735.22354125977 125582.36978149 65998100.054367
59693	2900953 8474 23493 30766 200 260.5 243 184.17810058594 486.85000610352 103164.17553711 45836745.890058
59725	2909427 7170 24175 30955 207 262.5 223 0.973 11.810082123732 587.77709147193 3022.8167332624
59724	2916597 7512 24175 30955 207 262.5 223 -3.7166128158569 2.5000000596046 39.699392318726 349.75683997081
59723	2924109 7529 24146 30955 206.75 262.5 224 0 15.875 2177.6727583427 29360.283437014
59722	2931638 7870 24117 30955 206.5 262.5 225 238.70928955078 483.14999389648 100801.80056763 46164640.167456
59721	2939508 7833 24117 30955 206.5 262.5 225 184.17810058594 483.3125 93297.493347168 40588035.271263
vector 59840  IntersectionExampleScenario.node[93].veinsmobility  posx  ETV
vector 59841  IntersectionExampleScenario.node[93].veinsmobility  posy  ETV
vector 59842  IntersectionExampleScenario.node[93].veinsmobility  speed  ETV
vector 59843  IntersectionExampleScenario.node[93].veinsmobility  acceleration  ETV
vector 59844  IntersectionExampleScenario.node[93].veinsmobility  co2emission  ETV
59746	2947742 6740 25284 31519 216.25 269 212 0.973 11.90022389248 592.19307981817 3104.6118516765
59745	2954482 6315 25284 31519 216.25 269 212 -9.0596437454224 4 39.359884262085 505.50740959224
59744	2960797 6521 25253 31519 216 269 213 0 16 2214.564473629 31814.548510874
59743	2967318 7468 25222 31519 215.75 269 214 236.53356933594 785.82187652588 110303.94902802 60975411.321597
59742	2974786 7489 25222 31519 215.75 269 214 483.14999389648 483.14999389648 103394.09869385 49954858.152865
59760	2982275 6819 25645 31603 219 270 205 0.973 12.26218747632 613.06087762995 3294.0078739512
59759	2989094 6729 25645 31603 219 270 205 -4.5 2.5 42.585195541382 466.84616074738
59758	2995823 6891 25610 31603 218.75 270 206 0 16.5 2248.9286961313 32856.781454844
59757	3002714 7226 25575 31603 218.5 270 207 486.85000610352 800.04531860352 116288.15859222 67427484.806199
[...]
63543	26265384 12504 226403 241431 1703.5 1788 339 486.85000610352 804.96339416504 189038.7224884 107665198.35846
vector 63728  IntersectionExampleScenario.node[648].veinsmobility  acceleration  ETV
vector 63729  IntersectionExampleScenario.node[648].veinsmobility  co2emission  ETV
63470	26278059 14151 222567 241832 1682.75 1790.5 432 0.973 11.200708441096 825.13010038456 3085.8215746906
63469	26292210 14357 222567 241832 1682.75 1790.5 432 -30.779357910156 4 35.964826583862 1471.3231735695
63468	26306567 14420 222520 241832 1682.5 1790.5 433 0 15.02499961853 2213.3808075022 26673.976269927
63467	26320987 15991 222473 241832 1682.25 1790.5 434 184.17810058594 734.03625488281 195466.84107971 92451268.818742
63466	26336978 16059 222473 241832 1682.25 1790.5 434 486.85000610352 486.85000610352 211292.90264893 102867950.94426
63512	26353037 13037 224539 241832 1693.75 1790.5 388 0.973 11.810082123732 784.35022237487 3352.0701707371
63511	26366074 13473 224539 241832 1693.75 1790.5 388 -4.5 2.5 39.529638290405 570.77590013723
63510	26379547 13471 224492 241832 1693.5 1790.5 389 0 15.875 2186.8716933653 27056.920306002
63509	26393018 14392 224444 241832 1693.25 1790.5 390 184.17810058594 483.14999389648 166207.87289429 72905181.841996
63508	26407410 14422 224444 241832 1693.25 1790.5 390 486.84997558594 733.3822479248 197920.52105713 101594818.52563
vector 63732  IntersectionExampleScenario.node[649].veinsmobility  posx  ETV
vector 63733  IntersectionExampleScenario.node[649].veinsmobility  posy  ETV
vector 63734  IntersectionExampleScenario.node[649].veinsmobility  speed  ETV
vector 63735  IntersectionExampleScenario.node[649].veinsmobility  acceleration  ETV
vector 63736  IntersectionExampleScenario.node[649].veinsmobility  co2emission  ETV
vector 63739  IntersectionExampleScenario.node[650].veinsmobility  posx  ETV
vector 63740  IntersectionExampleScenario.node[650].veinsmobility  posy  ETV
vector 63746  IntersectionExampleScenario.node[651].veinsmobility  posx  ETV
vector 63747  IntersectionExampleScenario.node[651].veinsmobility  posy  ETV
vector 63741  IntersectionExampleScenario.node[650].veinsmobility  speed  ETV
vector 63748  IntersectionExampleScenario.node[651].veinsmobility  speed  ETV
vector 63742  IntersectionExampleScenario.node[650].veinsmobility  acceleration  ETV
vector 63743  IntersectionExampleScenario.node[650].veinsmobility  co2emission  ETV
vector 63749  IntersectionExampleScenario.node[651].veinsmobility  acceleration  ETV
vector 63750  IntersectionExampleScenario.node[651].veinsmobility  co2emission  ETV
63519	26423050 13563 224908 242360 1695.75 1793.75 393 0.973 11.36141391502 758.02661566311 2943.3837734004
63518	26436613 14052 224908 242360 1695.75 1793.75 393 -4.5 2.5000009536743 35.964826583862 493.81909749678
63517	26450665 14024 224861 242360 1695.5 1793.75 394 0 15.25 2259.9636559673 27123.050280241
63516	26464689 14546 224814 242360 1695.25 1793.75 395 166.078125 483.15866088867 165485.23416138 71713714.141901
63515	26479235 14611 224814 242360 1695.25 1793.75 395 486.84994506836 733.76057434082 200841.38771057 103337761.25345
vector 63753  IntersectionExampleScenario.node[652].veinsmobility  posx  ETV
vector 63754  IntersectionExampleScenario.node[652].veinsmobility  posy  ETV
vector 63755  IntersectionExampleScenario.node[652].veinsmobility  speed  ETV
63554	26494081 12247 226763 242534 1705.25 1794.75 359 0.973 11.200708441096 725.29865563453 2905.2783402328
63553	26506328 12702 226763 242534 1705.25 1794.75 359 -12.207548141479 4 37.492597579956 676.49355963952
63552	26519030 12680 226711 242534 1705 1794.75 360 0 15.091682434082 2218.1086565778 27777.301703935
63551	26531710 13195 226658 242534 1704.75 1794.75 361 184.17810058594 734.05236816406 159121.81677246 74425741.877875
63550	26544905 13358 226658 242534 1704.75 1794.75 361 486.84994506836 486.85003662109 175752.85040283 85565275.414738
vector 63756  IntersectionExampleScenario.node[652].veinsmobility  acceleration  ETV
vector 63757  IntersectionExampleScenario.node[652].veinsmobility  co2emission  ETV
vector 63760  IntersectionExampleScenario.node[653].veinsmobility  posx  ETV
vector 63761  IntersectionExampleScenario.node[653].veinsmobility  posy  ETV
vector 63762  IntersectionExampleScenario.node[653].veinsmobility  speed  ETV
vector 63763  IntersectionExampleScenario.node[653].veinsmobility  acceleration  ETV
vector 63764  IntersectionExampleScenario.node[653].veinsmobility  co2emission  ETV
63617	26558840 8463 232166 242983 1732.75 1797.25 259 0.973 11.325408450822 648.52646931091 3257.2714762225
63616	26567303 7842 232166 242983 1732.75 1797.25 259 -37.632102966309 4 37.15309715271 1781.3047994724
63615	26575145 7995 232119 242983 1732.5 1797.25 260 0 15.353655815125 2183.5341453552 30606.033201064
63614	26583140 9650 232071 242983 1732.25 1797.25 261 483.14999389648 733.72062683105 134695.2903595 70666588.456787
63613	26592790 9635 232071 242983 1732.25 1797.25 261 184.17810058594 486.85000610352 111124.40719604 49437474.504633
63652	26602425 6843 234908 243242 1748.5 1798.75 202 0.973 11.810082123732 569.03049958198 3010.4571956339
63651	26609268 7035 234908 243242 1748.5 1798.75 202 -3.9583497047424 2.500000089407 39.869146347046 346.72990238953
63650	26616303 7203 234863 243242 1748.25 1798.75 203 0 15.875 2191.2678486891 29418.109667003
63649	26623506 7547 234818 243242 1748 1798.75 204 235.46118164062 483.14999389648 90478.046386719 41138531.377416
63648	26631053 7518 234818 243242 1748 1798.75 204 184.17810058594 483.14999389648 83433.355957031 35960497.0758
vector 63767  IntersectionExampleScenario.node[654].veinsmobility  posx  ETV
vector 63768  IntersectionExampleScenario.node[654].veinsmobility  posy  ETV
vector 63769  IntersectionExampleScenario.node[654].veinsmobility  speed  ETV
vector 63770  IntersectionExampleScenario.node[654].veinsmobility  acceleration  ETV
vector 63771  IntersectionExampleScenario.node[654].veinsmobility  co2emission  ETV
63568	26638977 11581 227680 243461 1709.75 1800 362 0.973 11.90022389248 719.30421618542 3286.5663976228
63567	26650558 11967 227680 243461 1709.75 1800 362 -6.559009552002 4 41.397325515747 688.20596557295
63566	26662525 11971 227625 243461 1709.5 1800 363 0 16.052593231201 1472.8018021658 16279.623098152
63565	26674496 13468 227572 243461 1709.25 1800 364 486.85000610352 486.85000610352 177213.40222168 86276345.95325
63564	26687964 13436 227572 243461 1709.25 1800 364 422.07250976562 785.82187652588 200601.25521088 112571303.1018
63582	26701400 11356 228263 243461 1712.5 1800 351 0.973 11.648172402475 688.46246914172 2995.8608726495
63581	26712756 11420 228263 243461 1712.5 1800 351 -4.5 2.5 38.89999961853 677.2848598038
63580	26724176 11456 228210 243461 1712.25 1800 352 0 15.64999961853 1434.3371285684 14740.717613256
63579	26735632 13058 228157 243461 1712 1800 353 444.15808105469 486.85000610352 171519.51068115 83348711.383836
63578	26748690 13027 228157 243461 1712 1800 353 483.13336181641 800.04531860352 198439.57370758 113624229.24774
63596	26761717 10241 230224 243461 1722.25 1800 312 0.973 11.648172402475 561.34916800502 2183.6359962103
63595	26771958 10934 230224 243461 1722.25 1800 312 -4.5 2.5 24.39999961853 492.87419370783
63594	26782892 11011 230175 243461 1722 1800 313 0 15.64999961853 1280.5752326008 12414.871924491
63593	26793903 11617 230126 243461 1721.75 1800 314 486.85000610352 486.85000610352 152870.9019165 74425199.5311
63592	26805520 11582 230126 243461 1721.75 1800 314 469.03268432617 785.82187652588 177792.61304474 102340576.15624
63603	26817102 9384 231060 243461 1726.75 1800 294 0.973 12.099024792222 533.12541334759 2140.0595605269
63602	26826486 9055 231060 243461 1726.75 1800 294 -14.402778625488 2.5 -22.60000038147 719.26275905594
63601	26835541 9476 231013 243461 1726.5 1800 295 0 16.27499961853 1149.3412014991 13159.137299904
63600	26845017 10906 230966 243461 1726.25 1800 296 184.17810058594 471.60000610352 122073.76907349 52105397.968385
63599	26855923 10952 230966 243461 1726.25 1800 296 486.85000610352 486.85012817383 144107.60241699 70158787.413425
63610	26866875 9349 231883 243461 1731.25 1800 276 0.973 11.200708441096 495.13943512325 1869.8740638191
63609	26876224 10167 231883 243461 1731.25 1800 276 -4.5 2.5 13.39999961853 340.71902969592
63608	26886391 10194 231836 243461 1731 1800 277 0 15.02499961853 1178.6901781484 11641.349049063
63607	26896585 10285 231789 243461 1730.75 1800 278 485.93957519531 486.85000610352 135342.89730835 65891007.649891
63606	26906870 10250 231789 243461 1730.75 1800 278 494.03424072266 785.82187652588 159857.25853729 93414705.315193
63624	26917120 8574 233013 243461 1737.5 1800 251 0.973 9.9660957494575 455.33179896856 1532.0071215711
63623	26925694 9123 233013 243461 1737.5 1800 251 -4.5 2.5000004768372 10.087003707886 371.76353948767
63622	26934817 9244 232968 243461 1737.25 1800 252 0 14.991128921509 1102.349981118 11195.570516479
63621	26944061 9359 232923 243461 1737 1800 253 486.85000610352 486.85000610352 123173.05154419 59966800.896077
63620	26953420 9325 232923 243461 1737 1800 253 512.66021728516 785.82187652588 147559.77832031 87402464.638876
63631	26962745 7800 233665 243461 1741.25 1800 236 0.973 11.200708441096 406.1884392665 1458.0619614244
63630	26970545 8686 233665 243461 1741.25 1800 236 -4.5 2.5000002384186 -4.8646602630615 312.11459782996
63629	26979231 8615 233622 243461 1741 1800 237 0 15.02499961853 1072.3678885698 10612.688320324
63628	26987846 8805 233579 243461 1740.75 1800 238 486.85000610352 486.85000610352 115870.30145264 56411456.969432
63627	26996651 8760 233579 243461 1740.75 1800 238 526.62768554688 793.81744384766 141307.44836426 85197192.125922
63638	27005411 7267 234215 243461 1744.5 1800 223 0.973 11.648172402475 569.86740814983 2902.8219480488
63637	27012678 6873 234215 243461 1744.5 1800 223 -7.7750473022461 4 38.511125564575 480.02679757168
63636	27019551 6949 234172 243461 1744.25 1800 224 0 15.64999961853 1893.4184279442 26558.332582898
63635	27026500 8310 234129 243461 1744 1800 225 316.23162841797 785.82187652588 120425.49591827 67311344.5283
63634	27034810 8323 234129 243461 1744 1800 225 483.14999389648 483.14999389648 108708.74862671 52522631.235489
63645	27043133 7072 234474 243461 1746 1800 217 0.973 11.44534372273 369.60945446343 1404.72966002
63644	27050205 7924 234474 243461 1746 1800 217 -4.5 2.5 -11.47967338562 295.70380330304
63643	27058129 7883 234431 243461 1745.75 1800 218 0 15.36727142334 1015.5554499477 10802.47647391
63642	27066012 8102 234387 243461 1745.5 1800 219 486.85000610352 486.85000610352 106620.15133667 51908021.329015
63641	27074114 8074 234387 243461 1745.5 1800 219 537.10403442383 790.42694854736 130986.01303864 79496781.31083
63659	27082188 6690 235216 243461 1750.25 1800 200 0.973 10.814932602835 356.78321317591 1246.2900482155
63658	27088878 7419 235216 243461 1750.25 1800 200 -4.2121777534485 2.5 -11.562816619873 284.14701880927
63657	27096297 7300 235171 243461 1750 1800 201 0 14.837473869324 982.50766301341 10749.431556171
63656	27103597 7473 235126 243461 1749.75 1800 202 486.85000610352 486.85000610352 98343.70123291 47878631.545484
63655	27111070 7439 235126 243461 1749.75 1800 202 547.56161499023 792.83152008057 122534.09954834 75443947.333971
63666	27118509 6174 235485 243461 1751.75 1800 194 0.973 12.099024792222 387.85018228732 1783.1854391047
63665	27124683 6634 235485 243461 1751.75 1800 194 -4.5 2.5 -22.60000038147 319.57216763996
63664	27131317 6644 235440 243461 1751.5 1800 195 0 16.27499961853 1121.3356390586 13231.23273366
63663	27137961 7214 235395 243461 1751.25 1800 196 184.17810058594 465.20257568359 77569.315490723 32260291.382716
63662	27145175 7252 235395 243461 1751.25 1800 196 486.85000610352 486.85000610352 95422.601196289 46456493.974827
63673	27152427 5552 236659 243461 1758.5 1800 167 0.973 10.756497587458 315.01600342995 1297.3988962003
63672	27157979 6278 236659 243461 1758.5 1800 167 -4.5 2.5 -22.60000038147 217.65058310397
63671	27164257 6154 236614 243461 1758.25 1800 168 0 14.39999961853 1096.6281264573 13111.507447076
63670	27170411 6217 236569 243461 1758 1800 169 184.17810058594 458.77890014648 64678.300476074 26195276.852649
63669	27176628 6251 236569 243461 1758 1800 169 486.85000610352 486.85000610352 82277.651031494 40056874.906866
63680	27182879 4550 238257 243461 1767.5 1800 131 0.973 11.810082123732 486.83041217939 3206.7281330227
63679	27187429 4397 238257 243461 1767.5 1800 131 -3.2805309295654 2.5 39.711416244507 364.62309971066
63678	27191826 4557 238212 243461 1767.25 1800 132 5.6500000953674 15.875 1644.666326046 21911.26861509
63677	27196383 4912 238168 243461 1767 1800 133 486.84600830078 785.82187652588 78941.859870911 48276002.212054
63676	27201295 4912 238168 243461 1767 1800 133 371.751953125 483.14999389648 62501.890869141 29475471.815
63687	27206207 4401 238302 243461 1767.75 1800 130 0.973 11.200708441096 324.88789622989 1745.1699626412
63686	27210608 4581 238302 243461 1767.75 1800 130 -4.5 2.5 -16.519938468933 354.98782823354
63685	27215189 4768 238257 243461 1767.5 1800 131 0 15.02499961853 919.11841399223 10985.613167798
63684	27219957 4884 238212 243461 1767.25 1800 132 486.85000610352 486.85000610352 64264.200805664 31287026.554475
63683	27224841 4870 238212 243461 1767.25 1800 132 556.171875 785.82187652588 82625.268684387 52514365.899457
63694	27229711 3520 239248 243461 1773.25 1800 108 0.973 11.200708441096 269.47818347877 1519.6454589101
63693	27233231 3793 239248 243461 1773.25 1800 108 -3.7471828460693 2.5 -18.106403827667 257.14535673902
63692	27237024 4003 239205 243461 1773 1800 109 0 15.02499961853 883.81035797112 10269.90082094
63691	27241027 4069 239162 243461 1772.75 1800 110 486.85000610352 486.85000610352 53553.500671387 26072522.128729
63690	27245096 4049 239162 243461 1772.75 1800 110 564.79968261719 785.82187652588 70738.876274109 46121916.896251
63701	27249145 3114 239957 243461 1777.75 1800 90 0.973 11.648172402475 265.27841764437 1442.0422888582
63700	27252259 3136 239957 243461 1777.75 1800 90 -7.0929417610168 2.5 -22.60000038147 322.24078740908
63699	27255395 3309 239918 243461 1777.5 1800 91 0 15.64999961853 1147.3596698046 16111.715776408
63698	27258704 3404 239879 243461 1777.25 1800 92 483.14999389648 483.14999389648 44449.799438477 21475920.3274
63697	27262108 3378 239879 243461 1777.25 1800 92 184.17810058594 471.60000610352 30560.121276855 10981381.738454
63708	27265486 2133 241053 243461 1785.5 1800 59 0.973 11.200708441096 206.20763337104 1217.3779657468
63707	27267619 2167 241053 243461 1785.5 1800 59 -2.0000038146973 2.5 33.116060256958 98.507041418128
63706	27269786 2202 241018 243461 1785.25 1800 60 5.6500000953674 15.02499961853 801.66051864624 11043.972333763
63705	27271988 2255 240983 243461 1785 1800 61 483.14999389648 483.14999389648 29472.149627686 14239468.912733
63704	27274243 2236 240983 243461 1785 1800 61 184.17810058594 379.89526367188 16679.514587402 4787097.8787489
63715	27276479 1854 241127 243461 1786 1800 57 0.973 12.099024792222 199.40047743486 1415.2544597077
63714	27278333 1948 241127 243461 1786 1800 57 -1.9106254577637 2.5 6.6900081634521 156.81558443737
63713	27280281 2131 241090 243461 1785.75 1800 58 5.6500000953674 16.27499961853 707.12506628036 9246.9265102178
63712	27282412 2182 241053 243461 1785.5 1800 59 486.85000610352 486.85000610352 28724.150360107 13984352.778137
63711	27284594 2178 241053 243461 1785.5 1800 59 611.09420776367 785.82187652588 41256.88256073 29046544.951258
63722	27286772 1792 241390 243461 1787.75 1800 50 0.973 12.099024792222 209.28276584953 1462.2107725372
63721	27288564 1742 241390 243461 1787.75 1800 50 -2.129264831543 2.5 35.909860610962 115.58364767973
63720	27290306 1870 241351 243461 1787.5 1800 51 5.6500000953674 16.27499961853 714.52451229095 10460.211765558
63719	27292176 1905 241312 243461 1787.25 1800 52 184.17810058594 357.9326171875 13575.502563477 3699574.1269404
63718	27294081 1924 241312 243461 1787.25 1800 52 486.85000610352 486.85000610352 25316.200317383 12325192.279036
63729	27296005 1672 241472 243461 1788.25 1800 48 0.973 11.200708441096 178.47571275367 1156.2895871913
63728	27297677 1688 241472 243461 1788.25 1800 48 -1.0108871459961 2.5 29.782903671265 99.015373674487
63727	27299365 1798 241431 243461 1788 1800 49 5.6500000953674 15.02499961853 649.04922962189 8940.0996772536
63726	27301163 1849 241390 243461 1787.75 1800 50 486.85000610352 486.85000610352 24342.500305176 11851146.42215
63725	27303012 1843 241390 243461 1787.75 1800 50 644.75318908691 802.70781707764 36596.732215881 26911167.825633
63736	27304855 1170 242109 243461 1792.25 1800 32 0.973 11.648172402475 163.87488357406 1245.8162256545
63735	27306025 1049 242109 243461 1792.25 1800 32 -0.37222290039062 2.5 38.526037216187 100.31664201556
63734	27307074 1209 242068 243461 1792 1800 33 5.6500000953674 15.64999961853 426.5999250412 5856.0821187527
63733	27308283 1240 242027 243461 1791.75 1800 34 184.17810058594 285.69854736328 7714.6033935547 1785672.5496892
63732	27309523 1257 242027 243461 1791.75 1800 34 486.85000610352 486.85000610352 16552.90020752 8058779.5670618
63743	27310780 1032 242274 243461 1793.25 1800 28 1.1319351608255 11.648172402475 156.42357870795 1230.9707113701
63742	27311812 888 242274 243461 1793.25 1800 28 -0.28734588623047 2.5 38.887029647827 100.18852516252
63741	27312700 1060 242231 243461 1793 1800 29 5.6500000953674 15.64999961853 366.23658657074 4945.444835286
63740	27313760 1084 242188 243461 1792.75 1800 30 162.00311279297 248.41979980469 5930.5297851562 1194841.545129
63739	27314844 1109 242188 243461 1792.75 1800 30 486.85000610352 486.85000610352 14605.500183105 7110687.8532898
63750	27315953 1031 242274 243461 1793.25 1800 28 2.1587509141438 11.648172402475 161.76215039382 1253.0159932216
63749	27316984 892 242274 243461 1793.25 1800 28 -0.017936706542969 2.5 40.211675643921 100.07935055645
63748	27317876 1061 242231 243461 1793 1800 29 5.6500000953674 15.720100402832 369.54541969299 5048.4348004162
63747	27318937 1109 242188 243461 1792.75 1800 30 483.14999389648 483.14999389648 14494.499816895 7003017.4980652
63746	27320046 1091 242188 243461 1792.75 1800 30 184.17810058594 271.31176757812 6599.5190429688 1474553.8114862
63757	27321137 771 242579 243461 1795 1800 21 2.1413957675631 11.200708441096 135.4684864693 1080.7632177201
63756	27321908 634 242579 243461 1795 1800 21 -0.0018501281738281 2.5 37.493913650513 93.749998043484
63755	27322542 804 242534 243461 1794.75 1800 22 5.6500000953674 15.02499961853 255.54345321655 3196.9420521183
63754	27323346 849 242489 243461 1794.5 1800 23 726.9418182373 785.82187652588 17529.337486267 13367819.591172
63753	27324195 850 242489 243461 1794.5 1800 23 483.14999389648 483.14999389648 11112.449859619 5368980.08185
63764	27325045 476 242938 243461 1797 1800 13 5.2162187258585 10.315404520939 100.64515864481 812.01557512667
63763	27325521 335 242938 243461 1797 1800 13 2.4999980926514 2.5 32.499998092651 81.24999046326
63762	27325856 510 242893 243461 1796.75 1800 14 5.6500000953674 13.77499961853 135.97499656677 1409.5242963886
63761	27326366 554 242848 243461 1796.5 1800 15 483.14999389648 483.14999389648 7247.2499084473 3501508.7490326
63760	27326920 546 242848 243461 1796.5 1800 15 176.21716308594 205.75152587891 2821.5606689453 532090.35836816
63771	27327466 73 243417 243461 1799.75 1800 2 5.2162187258585 5.6304533568076 10.846672082666 58.910942799184
63770	27327539 49 243417 243461 1799.75 1800 2 2.5 2.5 5 12.5
63769	27327588 110 243373 243461 1799.5 1800 3 5.6500000953674 6.9000000953674 18.825000286102 118.90812859058
63768	27327698 148 243328 243461 1799.25 1800 4 483.14999389648 483.14999389648 1932.5999755859 933735.66640869
63767	27327846 145 243328 243461 1799.25 1800 4 165.97418212891 168.79919433594 668.05615234375 111580.19181778
59185	27327991 642 0 243460 0 1800 31 0 34 678 16014
59186	27328633 660 0 243460 0 1800 31 0 294 4316 839594
