file 26487528 1591397969                                        
version 2
run nodebug-20-20200605-18:54:52-18076
attr configname nodebug
attr datetime 20200605-18:54:52
attr experiment nodebug
attr inifile omnetpp.ini
attr iterationvars ""
attr iterationvars2 $repetition=20
attr measurement ""
attr network "\"org.car2x.veins.modules.application.ExtTraCIScenarioManagerLaunchd.IntersectionExampleScenario\""
attr processid 18076
attr repetition 20
attr replication #20
attr resultdir results
attr runnumber 20
attr seedset 20
param **.coreDebug false
param **.debug false
param *.**.nic.mac1609_4.bitrate 18Mbps
param *.**.nic.mac1609_4.txPower 20mW
param *.**.nic.mac1609_4.useServiceChannel false
param *.**.nic.phy80211p.analogueModels "xmldoc(\"config.xml\")"
param *.**.nic.phy80211p.decider "xmldoc(\"config.xml\")"
param *.**.nic.phy80211p.sensitivity -89dBm
param *.**.nic.phy80211p.thermalNoise -110dBm
param *.**.nic.phy80211p.usePropagationDelay true
param *.**.nic.phy80211p.useThermalNoise true
param *.annotations.draw false
param *.connectionManager.alpha 2.0
param *.connectionManager.carrierFrequency "5.890e9 Hz"
param *.connectionManager.pMax 20mW
param *.connectionManager.sat -89dBm
param *.connectionManager.sendDirect true
param *.manager.autoShutdown true
param *.manager.host "\"localhost\""
param *.manager.launchConfig "xmldoc(\"paramics.launchd.xml\")"
param *.manager.margin 25
param *.manager.moduleDisplayString "\"\""
param *.manager.moduleName "\"node\""
param *.manager.moduleType "\"org.car2x.veins.nodes.Car\""
param *.manager.port 9999
param *.manager.updateInterval 250ms
param *.node[*0].veinsmobility.accidentCount 0
param *.node[*0].veinsmobility.accidentDuration 30s
param *.node[*0].veinsmobility.accidentStart 75s
param *.node[*].appl.LiderSelectZoneRadio 55.0
param *.node[*].appl.ShareDataZoneRadio 110.0
param *.node[*].appl.TiempoSemaforo 30.0
param *.node[*].appl.beaconInterval 1s
param *.node[*].appl.beaconPriority 3
param *.node[*].appl.dataOnSch false
param *.node[*].appl.dataPriority 2
param *.node[*].appl.debug false
param *.node[*].appl.headerLength "256 bit"
param *.node[*].appl.maxOffset 0.005s
param *.node[*].appl.sendBeacons false
param *.node[*].appl.sendData true
param *.node[*].applType "\"Dummy\""
param *.node[*].mobilityType "\"TraCIMobility\""
param *.node[*].mobilityType.debug true
param *.node[*].veinsmobility.x 0
param *.node[*].veinsmobility.y 0
param *.node[*].veinsmobility.z 1.895
param *.node[*].veinsmobilityType "\"org.car2x.veins.modules.mobility.traci.TraCIMobility\""
param *.node[*].veinsmobilityType.debug true
param *.playgroundSizeX 8500m
param *.playgroundSizeY 8500m
param *.playgroundSizeZ 50m
param *.world.use2D false
param *.world.useTorus false

vector 32317  IntersectionExampleScenario.manager  vehiclesinsim  ETV
attr type  int
vector 32318  IntersectionExampleScenario.manager  realtime  ETV
attr type  int
attr unit  s
vector 32321  IntersectionExampleScenario.node[0].veinsmobility  posx  ETV
vector 32322  IntersectionExampleScenario.node[0].veinsmobility  posy  ETV
vector 32323  IntersectionExampleScenario.node[0].veinsmobility  speed  ETV
vector 32324  IntersectionExampleScenario.node[0].veinsmobility  acceleration  ETV
vector 32325  IntersectionExampleScenario.node[0].veinsmobility  co2emission  ETV
vector 32328  IntersectionExampleScenario.node[1].veinsmobility  posx  ETV
vector 32329  IntersectionExampleScenario.node[1].veinsmobility  posy  ETV
vector 32330  IntersectionExampleScenario.node[1].veinsmobility  speed  ETV
vector 32331  IntersectionExampleScenario.node[1].veinsmobility  acceleration  ETV
vector 32332  IntersectionExampleScenario.node[1].veinsmobility  co2emission  ETV
vector 32335  IntersectionExampleScenario.node[2].veinsmobility  posx  ETV
vector 32336  IntersectionExampleScenario.node[2].veinsmobility  posy  ETV
vector 32337  IntersectionExampleScenario.node[2].veinsmobility  speed  ETV
vector 32338  IntersectionExampleScenario.node[2].veinsmobility  acceleration  ETV
vector 32339  IntersectionExampleScenario.node[2].veinsmobility  co2emission  ETV
vector 32342  IntersectionExampleScenario.node[3].veinsmobility  posx  ETV
vector 32343  IntersectionExampleScenario.node[3].veinsmobility  posy  ETV
vector 32349  IntersectionExampleScenario.node[4].veinsmobility  posx  ETV
vector 32350  IntersectionExampleScenario.node[4].veinsmobility  posy  ETV
vector 32344  IntersectionExampleScenario.node[3].veinsmobility  speed  ETV
vector 32345  IntersectionExampleScenario.node[3].veinsmobility  acceleration  ETV
vector 32346  IntersectionExampleScenario.node[3].veinsmobility  co2emission  ETV
vector 32351  IntersectionExampleScenario.node[4].veinsmobility  speed  ETV
vector 32352  IntersectionExampleScenario.node[4].veinsmobility  acceleration  ETV
vector 32353  IntersectionExampleScenario.node[4].veinsmobility  co2emission  ETV
vector 32356  IntersectionExampleScenario.node[5].veinsmobility  posx  ETV
vector 32357  IntersectionExampleScenario.node[5].veinsmobility  posy  ETV
vector 32358  IntersectionExampleScenario.node[5].veinsmobility  speed  ETV
vector 32359  IntersectionExampleScenario.node[5].veinsmobility  acceleration  ETV
vector 32360  IntersectionExampleScenario.node[5].veinsmobility  co2emission  ETV
vector 32363  IntersectionExampleScenario.node[6].veinsmobility  posx  ETV
vector 32364  IntersectionExampleScenario.node[6].veinsmobility  posy  ETV
vector 32365  IntersectionExampleScenario.node[6].veinsmobility  speed  ETV
vector 32366  IntersectionExampleScenario.node[6].veinsmobility  acceleration  ETV
vector 32367  IntersectionExampleScenario.node[6].veinsmobility  co2emission  ETV
vector 32370  IntersectionExampleScenario.node[7].veinsmobility  posx  ETV
vector 32371  IntersectionExampleScenario.node[7].veinsmobility  posy  ETV
vector 32372  IntersectionExampleScenario.node[7].veinsmobility  speed  ETV
vector 32373  IntersectionExampleScenario.node[7].veinsmobility  acceleration  ETV
vector 32374  IntersectionExampleScenario.node[7].veinsmobility  co2emission  ETV
vector 32377  IntersectionExampleScenario.node[8].veinsmobility  posx  ETV
vector 32378  IntersectionExampleScenario.node[8].veinsmobility  posy  ETV
vector 32379  IntersectionExampleScenario.node[8].veinsmobility  speed  ETV
vector 32380  IntersectionExampleScenario.node[8].veinsmobility  acceleration  ETV
vector 32381  IntersectionExampleScenario.node[8].veinsmobility  co2emission  ETV
vector 32384  IntersectionExampleScenario.node[9].veinsmobility  posx  ETV
vector 32385  IntersectionExampleScenario.node[9].veinsmobility  posy  ETV
vector 32386  IntersectionExampleScenario.node[9].veinsmobility  speed  ETV
vector 32387  IntersectionExampleScenario.node[9].veinsmobility  acceleration  ETV
vector 32388  IntersectionExampleScenario.node[9].veinsmobility  co2emission  ETV
vector 32391  IntersectionExampleScenario.node[10].veinsmobility  posx  ETV
vector 32392  IntersectionExampleScenario.node[10].veinsmobility  posy  ETV
vector 32393  IntersectionExampleScenario.node[10].veinsmobility  speed  ETV
vector 32394  IntersectionExampleScenario.node[10].veinsmobility  acceleration  ETV
vector 32395  IntersectionExampleScenario.node[10].veinsmobility  co2emission  ETV
vector 32398  IntersectionExampleScenario.node[11].veinsmobility  posx  ETV
vector 32399  IntersectionExampleScenario.node[11].veinsmobility  posy  ETV
vector 32400  IntersectionExampleScenario.node[11].veinsmobility  speed  ETV
vector 32401  IntersectionExampleScenario.node[11].veinsmobility  acceleration  ETV
vector 32402  IntersectionExampleScenario.node[11].veinsmobility  co2emission  ETV
vector 32405  IntersectionExampleScenario.node[12].veinsmobility  posx  ETV
vector 32406  IntersectionExampleScenario.node[12].veinsmobility  posy  ETV
vector 32407  IntersectionExampleScenario.node[12].veinsmobility  speed  ETV
vector 32408  IntersectionExampleScenario.node[12].veinsmobility  acceleration  ETV
vector 32409  IntersectionExampleScenario.node[12].veinsmobility  co2emission  ETV
vector 32412  IntersectionExampleScenario.node[13].veinsmobility  posx  ETV
vector 32413  IntersectionExampleScenario.node[13].veinsmobility  posy  ETV
vector 32419  IntersectionExampleScenario.node[14].veinsmobility  posx  ETV
vector 32420  IntersectionExampleScenario.node[14].veinsmobility  posy  ETV
vector 32414  IntersectionExampleScenario.node[13].veinsmobility  speed  ETV
vector 32421  IntersectionExampleScenario.node[14].veinsmobility  speed  ETV
vector 32415  IntersectionExampleScenario.node[13].veinsmobility  acceleration  ETV
vector 32416  IntersectionExampleScenario.node[13].veinsmobility  co2emission  ETV
vector 32422  IntersectionExampleScenario.node[14].veinsmobility  acceleration  ETV
vector 32423  IntersectionExampleScenario.node[14].veinsmobility  co2emission  ETV
vector 32426  IntersectionExampleScenario.node[15].veinsmobility  posx  ETV
vector 32427  IntersectionExampleScenario.node[15].veinsmobility  posy  ETV
vector 32428  IntersectionExampleScenario.node[15].veinsmobility  speed  ETV
vector 32429  IntersectionExampleScenario.node[15].veinsmobility  acceleration  ETV
vector 32430  IntersectionExampleScenario.node[15].veinsmobility  co2emission  ETV
vector 32433  IntersectionExampleScenario.node[16].veinsmobility  posx  ETV
vector 32434  IntersectionExampleScenario.node[16].veinsmobility  posy  ETV
vector 32435  IntersectionExampleScenario.node[16].veinsmobility  speed  ETV
vector 32436  IntersectionExampleScenario.node[16].veinsmobility  acceleration  ETV
vector 32437  IntersectionExampleScenario.node[16].veinsmobility  co2emission  ETV
vector 32440  IntersectionExampleScenario.node[17].veinsmobility  posx  ETV
vector 32441  IntersectionExampleScenario.node[17].veinsmobility  posy  ETV
vector 32442  IntersectionExampleScenario.node[17].veinsmobility  speed  ETV
vector 32443  IntersectionExampleScenario.node[17].veinsmobility  acceleration  ETV
vector 32444  IntersectionExampleScenario.node[17].veinsmobility  co2emission  ETV
vector 32447  IntersectionExampleScenario.node[18].veinsmobility  posx  ETV
vector 32448  IntersectionExampleScenario.node[18].veinsmobility  posy  ETV
vector 32449  IntersectionExampleScenario.node[18].veinsmobility  speed  ETV
vector 32450  IntersectionExampleScenario.node[18].veinsmobility  acceleration  ETV
vector 32451  IntersectionExampleScenario.node[18].veinsmobility  co2emission  ETV
32332	10505 5013 33 3622 3.5 43.25 160 0.973 11.648172402475 506.62173068736 2743.0137753722
32331	15518 4483 33 3622 3.5 43.25 160 -3.4773120880127 2.5 38.341367721558 280.06647708604
32330	20001 4890 28 3622 3.25 43.25 161 5.6500000953674 15.64999961853 2188.2596011162 31102.264453378
32329	24891 5233 23 3622 3 43.25 162 235.80725097656 483.14999389648 70006.698883057 31188394.07234
32328	30124 5212 23 3622 3 43.25 162 184.17810058594 483.18157958984 64454.02557373 27390686.976022
vector 32454  IntersectionExampleScenario.node[19].veinsmobility  posx  ETV
vector 32455  IntersectionExampleScenario.node[19].veinsmobility  posy  ETV
vector 32456  IntersectionExampleScenario.node[19].veinsmobility  speed  ETV
vector 32457  IntersectionExampleScenario.node[19].veinsmobility  acceleration  ETV
vector 32458  IntersectionExampleScenario.node[19].veinsmobility  co2emission  ETV
32325	35737 5322 14 3879 2.25 45.25 173 0.973 11.648172402475 546.06737913394 2888.4936577126
32324	41059 5099 14 3879 2.25 45.25 173 -7.7750473022461 4 38.511121749878 475.15690914019
32323	46158 5372 11 3879 2 45.25 174 0 15.64999961853 2211.3921542168 31385.073425455
32322	51530 5633 8 3879 1.75 45.25 175 236.76129150391 785.82187652588 90842.119667053 51296171.567711
32321	57163 5651 8 3879 1.75 45.25 175 483.14999389648 483.14999389648 84551.248931885 40850935.40538
32353	62814 5105 119 4120 6.5 47.25 164 0.973 11.648172402475 514.03577711385 2738.794686404
32352	67919 5055 119 4120 6.5 47.25 164 -3.9804000854492 2.5 38.511121749878 271.96426646944
32351	72974 5257 108 4120 6.25 47.25 165 5.6500000953674 15.64999961853 2230.8493041992 31465.972869486
32350	78231 5392 97 4120 6 47.25 166 237.33044433594 790.18281555176 86887.203659058 49695689.496722
32349	83623 5405 97 4120 6 47.25 166 483.14999389648 483.14999389648 80202.898986816 38750030.155961
vector 32461  IntersectionExampleScenario.node[20].veinsmobility  posx  ETV
vector 32462  IntersectionExampleScenario.node[20].veinsmobility  posy  ETV
vector 32463  IntersectionExampleScenario.node[20].veinsmobility  speed  ETV
vector 32464  IntersectionExampleScenario.node[20].veinsmobility  acceleration  ETV
vector 32465  IntersectionExampleScenario.node[20].veinsmobility  co2emission  ETV
vector 32468  IntersectionExampleScenario.node[21].veinsmobility  posx  ETV
vector 32469  IntersectionExampleScenario.node[21].veinsmobility  posy  ETV
vector 32470  IntersectionExampleScenario.node[21].veinsmobility  speed  ETV
32395	89661 5073 790 5160 17.25 56.25 157 0.973 11.200708441096 460.15834192339 2219.9375708414
32394	94734 4386 790 5160 17.25 56.25 157 -3.1989059448242 2.5 36.813589096069 173.16766246996
32393	99120 4987 767 5160 17 56.25 158 5.6500000953674 15.02499961853 2213.1961212158 31557.99574022
32392	104107 5235 744 5160 16.75 56.25 159 486.85000610352 486.85000610352 77409.150970459 37686645.622436
32391	109342 5203 744 5160 16.75 56.25 159 237.50286865234 785.82187652588 82875.22858429 47398697.567213
vector 32471  IntersectionExampleScenario.node[21].veinsmobility  acceleration  ETV
vector 32472  IntersectionExampleScenario.node[21].veinsmobility  co2emission  ETV
vector 32475  IntersectionExampleScenario.node[22].veinsmobility  posx  ETV
vector 32476  IntersectionExampleScenario.node[22].veinsmobility  posy  ETV
vector 32477  IntersectionExampleScenario.node[22].veinsmobility  speed  ETV
vector 32478  IntersectionExampleScenario.node[22].veinsmobility  acceleration  ETV
vector 32479  IntersectionExampleScenario.node[22].veinsmobility  co2emission  ETV
32367	115115 6094 342 5770 11.25 61.5 202 0.973 11.36141391502 558.76806206791 2770.0707197201
32366	121209 5590 342 5770 11.25 61.5 202 -8.2128324508667 4 36.813589096069 481.09837192663
32365	126799 5886 327 5770 11 61.5 203 0 15.25 2172.3116803169 29932.914043158
32364	132685 6666 312 5770 10.75 61.5 204 184.17810058594 483.36395263672 84019.012451172 36540757.280782
32363	139351 6631 312 5770 10.75 61.5 204 486.85000610352 732.10182189941 107627.76177979 57800249.917621
32374	145982 6279 436 5878 12.75 62.5 200 0.973 11.54047740176 574.16030954328 2850.8594168998
32373	152261 5993 436 5878 12.75 62.5 200 -4.5 2.5000004768372 37.832105636597 441.51779447944
32372	158254 6456 419 5878 12.5 62.5 201 0 15.5 2303.4662021324 32142.142758842
32371	164710 6591 402 5878 12.25 62.5 202 163.88433837891 734.84687805176 89690.122177124 44510794.549903
32370	171301 6637 402 5878 12.25 62.5 202 486.85000610352 486.85000610352 98343.70123291 47878631.545484
vector 32482  IntersectionExampleScenario.node[23].veinsmobility  posx  ETV
vector 32483  IntersectionExampleScenario.node[23].veinsmobility  posy  ETV
vector 32484  IntersectionExampleScenario.node[23].veinsmobility  speed  ETV
vector 32485  IntersectionExampleScenario.node[23].veinsmobility  acceleration  ETV
vector 32486  IntersectionExampleScenario.node[23].veinsmobility  co2emission  ETV
vector 32489  IntersectionExampleScenario.node[24].veinsmobility  posx  ETV
vector 32490  IntersectionExampleScenario.node[24].veinsmobility  posy  ETV
vector 32491  IntersectionExampleScenario.node[24].veinsmobility  speed  ETV
vector 32492  IntersectionExampleScenario.node[24].veinsmobility  acceleration  ETV
vector 32493  IntersectionExampleScenario.node[24].veinsmobility  co2emission  ETV
vector 32496  IntersectionExampleScenario.node[25].veinsmobility  posx  ETV
vector 32497  IntersectionExampleScenario.node[25].veinsmobility  posy  ETV
vector 32498  IntersectionExampleScenario.node[25].veinsmobility  speed  ETV
vector 32503  IntersectionExampleScenario.node[26].veinsmobility  posx  ETV
vector 32504  IntersectionExampleScenario.node[26].veinsmobility  posy  ETV
vector 32499  IntersectionExampleScenario.node[25].veinsmobility  acceleration  ETV
vector 32500  IntersectionExampleScenario.node[25].veinsmobility  co2emission  ETV
vector 32505  IntersectionExampleScenario.node[26].veinsmobility  speed  ETV
vector 32506  IntersectionExampleScenario.node[26].veinsmobility  acceleration  ETV
vector 32507  IntersectionExampleScenario.node[26].veinsmobility  co2emission  ETV
vector 32510  IntersectionExampleScenario.node[27].veinsmobility  posx  ETV
vector 32511  IntersectionExampleScenario.node[27].veinsmobility  posy  ETV
vector 32512  IntersectionExampleScenario.node[27].veinsmobility  speed  ETV
vector 32513  IntersectionExampleScenario.node[27].veinsmobility  acceleration  ETV
vector 32514  IntersectionExampleScenario.node[27].veinsmobility  co2emission  ETV
32339	179943 7392 67 6658 5 69.25 258 0.973 11.648172402475 674.26064446651 3471.9372324125
32338	187335 6383 67 6658 5 69.25 258 -33.663394927979 4 38.511121749878 1580.6701650471
32337	193718 6925 60 6658 4.75 69.25 259 0 15.64999961853 2295.8350801468 33034.523734867
32336	200643 8490 53 6658 4.5 69.25 260 483.14999389648 483.14999389648 125618.99841309 60692818.316565
32335	209133 8458 53 6658 4.5 69.25 260 163.88433837891 733.9766998291 117337.97593689 57627973.257997
vector 32517  IntersectionExampleScenario.node[28].veinsmobility  posx  ETV
vector 32518  IntersectionExampleScenario.node[28].veinsmobility  posy  ETV
vector 32524  IntersectionExampleScenario.node[29].veinsmobility  posx  ETV
vector 32525  IntersectionExampleScenario.node[29].veinsmobility  posy  ETV
vector 32519  IntersectionExampleScenario.node[28].veinsmobility  speed  ETV
vector 32526  IntersectionExampleScenario.node[29].veinsmobility  speed  ETV
vector 32520  IntersectionExampleScenario.node[28].veinsmobility  acceleration  ETV
vector 32521  IntersectionExampleScenario.node[28].veinsmobility  co2emission  ETV
vector 32527  IntersectionExampleScenario.node[29].veinsmobility  acceleration  ETV
vector 32528  IntersectionExampleScenario.node[29].veinsmobility  co2emission  ETV
vector 32531  IntersectionExampleScenario.node[30].veinsmobility  posx  ETV
vector 32532  IntersectionExampleScenario.node[30].veinsmobility  posy  ETV
vector 32533  IntersectionExampleScenario.node[30].veinsmobility  speed  ETV
vector 32534  IntersectionExampleScenario.node[30].veinsmobility  acceleration  ETV
vector 32535  IntersectionExampleScenario.node[30].veinsmobility  co2emission  ETV
32346	218794 8226 108 7115 6.25 72.75 267 0.973 10.65035628006 626.75697746594 2631.7068513209
32345	227020 8378 108 7115 6.25 72.75 267 -4.5 2.5 36.916599273682 393.82195200206
32344	235398 8489 97 7115 6 72.75 268 0 14.762547492981 2341.7878386872 30885.549074863
32343	243887 8803 88 7115 5.75 72.75 269 483.14999389648 483.14999389648 129967.34835815 62793723.565984
32342	252690 8766 88 7115 5.75 72.75 269 152.71051025391 733.92593383789 119375.82102966 58276819.718192
32360	261456 7859 299 7360 10.5 74.5 257 0.973 10.756497587458 631.91303203654 2664.1026965968
32359	269315 8124 299 7360 10.5 74.5 257 -4.5 2.5000009536743 38.001859664917 377.1868028301
32358	277439 8279 286 7360 10.25 74.5 258 0 15.182590484619 2313.2315844093 30866.678101722
32357	285718 8507 273 7360 10 74.5 259 483.14999389648 483.14999389648 125135.84841919 60459384.399963
32356	294225 8472 273 7360 10 74.5 259 161.55169677734 735.34301757812 114895.05506897 55737119.458362
32381	302697 7276 525 7779 14 77.5 255 0.973 11.631255463117 624.45909059127 3062.9488075795
32380	309973 6818 525 7779 14 77.5 255 -7.893180847168 4 37.492597579956 543.30006655538
32379	316791 6928 506 7779 13.75 77.5 256 0 15.626455307007 2215.8009557724 31257.622401491
32378	323719 8445 487 7779 13.5 77.5 257 235.61877441406 785.82187652588 131612.58200836 71639938.2934
32377	332164 8456 487 7779 13.5 77.5 257 483.14999389648 483.14999389648 124169.5484314 59992516.566758
vector 32538  IntersectionExampleScenario.node[31].veinsmobility  posx  ETV
vector 32539  IntersectionExampleScenario.node[31].veinsmobility  posy  ETV
vector 32545  IntersectionExampleScenario.node[32].veinsmobility  posx  ETV
vector 32546  IntersectionExampleScenario.node[32].veinsmobility  posy  ETV
vector 32540  IntersectionExampleScenario.node[31].veinsmobility  speed  ETV
vector 32541  IntersectionExampleScenario.node[31].veinsmobility  acceleration  ETV
vector 32542  IntersectionExampleScenario.node[31].veinsmobility  co2emission  ETV
vector 32547  IntersectionExampleScenario.node[32].veinsmobility  speed  ETV
vector 32548  IntersectionExampleScenario.node[32].veinsmobility  acceleration  ETV
vector 32549  IntersectionExampleScenario.node[32].veinsmobility  co2emission  ETV
32402	341422 7254 1093 8120 20.5 80 239 0.973 11.200708441096 591.0489664255 2788.375615118
32401	348676 7713 1093 8120 20.5 80 239 -3.9536831378937 2.5 36.98334312439 331.26168400269
32400	356389 7761 1068 8120 20.25 80 240 0 15.411157608032 2218.4068867508 29336.533084797
32399	364150 7912 1043 8120 20 80 241 235.81030273438 785.82187652588 124679.79825592 68749163.223825
32398	372062 7951 1043 8120 20 80 241 483.14999389648 483.14999389648 116439.14852905 56257573.901123
vector 32552  IntersectionExampleScenario.node[33].veinsmobility  posx  ETV
vector 32553  IntersectionExampleScenario.node[33].veinsmobility  posy  ETV
vector 32554  IntersectionExampleScenario.node[33].veinsmobility  speed  ETV
32430	380245 6070 2181 8332 31 81.5 203 0.973 11.648172402475 559.36047036417 2803.2166327896
32429	386315 6249 2181 8332 31 81.5 203 -2.5164632797241 2.5 38.511121749878 313.75600895029
32428	392564 6567 2152 8332 30.75 81.5 204 1.32361805439 15.64999961853 2208.4973056316 29168.53783519
32427	399131 6737 2123 8332 30.5 81.5 205 238.76690673828 785.82187652588 107278.04706573 60249164.31997
32426	405868 6765 2123 8332 30.5 81.5 205 483.14999389648 483.14999389648 99045.748748779 47853952.903445
vector 32555  IntersectionExampleScenario.node[33].veinsmobility  acceleration  ETV
vector 32556  IntersectionExampleScenario.node[33].veinsmobility  co2emission  ETV
32409	412802 6906 1522 8702 24.75 84 238 0.973 11.90022389248 616.87923327304 3126.7130988054
32408	419708 6416 1522 8702 24.75 84 238 -7.6570835113525 4 39.190130233765 499.06182730084
32407	426124 6572 1495 8702 24.5 84 239 0 16 2210.5708651543 31764.182444722
32406	432696 7920 1468 8702 24.25 84 240 486.85000610352 486.85000610352 116844.00146484 56885502.826318
32405	440616 7904 1468 8702 24.25 84 240 237.0615234375 785.82187652588 123284.30432892 67453091.948283
vector 32559  IntersectionExampleScenario.node[34].veinsmobility  posx  ETV
vector 32560  IntersectionExampleScenario.node[34].veinsmobility  posy  ETV
vector 32561  IntersectionExampleScenario.node[34].veinsmobility  speed  ETV
vector 32562  IntersectionExampleScenario.node[34].veinsmobility  acceleration  ETV
vector 32563  IntersectionExampleScenario.node[34].veinsmobility  co2emission  ETV
32451	448921 5505 3622 9220 43.25 87.5 178 0.973 11.36141391502 539.88588597069 2885.0329194271
32450	454426 5365 3622 9220 43.25 87.5 178 -2.883451461792 2.5 37.15309715271 319.4138685766
32449	459791 5587 3591 9220 43 87.5 179 4.8767313957214 15.25 2190.1131372452 28934.213971955
32448	465378 5926 3560 9220 42.75 87.5 180 486.85000610352 734.3365020752 96055.949157715 52251027.417629
32447	471304 5929 3560 9220 42.75 87.5 180 486.7727355957 785.82187652588 102423.68315887 60069192.214863
32416	477233 7382 2042 9967 29.75 93.25 255 0.973 11.648172402475 633.49581000455 3035.4495707356
32415	484615 6391 2042 9967 29.75 93.25 255 -43.138458251953 4 38.511121749878 2188.3622807683
32414	491006 6857 2015 9967 29.5 93.25 256 0 15.64999961853 2215.2592515945 32094.643882207
32413	497863 8452 1987 9967 29.25 93.25 257 184.17810058594 733.9766998291 117684.88893127 58069266.103916
32412	506315 8482 1987 9967 29.25 93.25 257 486.85000610352 486.85000610352 125120.4515686 60914892.609849
vector 32566  IntersectionExampleScenario.node[35].veinsmobility  posx  ETV
vector 32567  IntersectionExampleScenario.node[35].veinsmobility  posy  ETV
vector 32568  IntersectionExampleScenario.node[35].veinsmobility  speed  ETV
32437	515029 7691 2404 10144 33 94.75 248 0.973 11.648172402475 624.06150426084 2973.6934066115
32436	522720 7555 2404 10144 33 94.75 248 -4.5 2.5 38.341367721558 419.78774725698
32435	530275 7734 2375 10144 32.75 94.75 249 0 15.64999961853 2228.573652748 30686.505717805
32434	538009 8227 2346 10144 32.5 94.75 250 172.9296875 483.14999389648 104289.67147827 45697679.398114
32433	546236 8253 2346 10144 32.5 94.75 250 486.85000610352 733.05183410645 129892.47406006 68559035.898317
vector 32569  IntersectionExampleScenario.node[35].veinsmobility  acceleration  ETV
vector 32570  IntersectionExampleScenario.node[35].veinsmobility  co2emission  ETV
vector 32573  IntersectionExampleScenario.node[36].veinsmobility  posx  ETV
vector 32574  IntersectionExampleScenario.node[36].veinsmobility  posy  ETV
vector 32575  IntersectionExampleScenario.node[36].veinsmobility  speed  ETV
vector 32580  IntersectionExampleScenario.node[37].veinsmobility  posx  ETV
vector 32581  IntersectionExampleScenario.node[37].veinsmobility  posy  ETV
vector 32576  IntersectionExampleScenario.node[36].veinsmobility  acceleration  ETV
vector 32577  IntersectionExampleScenario.node[36].veinsmobility  co2emission  ETV
vector 32582  IntersectionExampleScenario.node[37].veinsmobility  speed  ETV
vector 32583  IntersectionExampleScenario.node[37].veinsmobility  acceleration  ETV
vector 32584  IntersectionExampleScenario.node[37].veinsmobility  co2emission  ETV
vector 32587  IntersectionExampleScenario.node[38].veinsmobility  posx  ETV
vector 32588  IntersectionExampleScenario.node[38].veinsmobility  posy  ETV
vector 32589  IntersectionExampleScenario.node[38].veinsmobility  speed  ETV
vector 32590  IntersectionExampleScenario.node[38].veinsmobility  acceleration  ETV
vector 32591  IntersectionExampleScenario.node[38].veinsmobility  co2emission  ETV
vector 32594  IntersectionExampleScenario.node[39].veinsmobility  posx  ETV
vector 32595  IntersectionExampleScenario.node[39].veinsmobility  posy  ETV
vector 32596  IntersectionExampleScenario.node[39].veinsmobility  speed  ETV
32388	556093 9772 681 11118 16 102.25 346 0.973 11.00486315618 698.84134569578 2811.9290514474
32387	565865 9912 681 11118 16 102.25 346 -7.9681782722473 4 34.606801986694 531.00259571885
32386	575777 9950 660 11118 15.75 102.25 347 0 14.75 2241.7070799377 27603.983395908
32385	585727 11512 639 11118 15.5 102.25 348 483.14999389648 483.14999389648 168136.19787598 81235002.977556
32384	597239 11490 639 11118 15.5 102.25 348 177.62457275391 734.72151184082 157594.90989685 75966411.449366
vector 32597  IntersectionExampleScenario.node[39].veinsmobility  acceleration  ETV
vector 32598  IntersectionExampleScenario.node[39].veinsmobility  co2emission  ETV
32423	608898 8735 2042 11223 29.75 103 294 0.973 11.450879080643 653.96758089153 2893.0187527351
32422	617633 9256 2042 11223 29.75 103 294 -4.5 2.5000009536743 36.813589096069 425.82896840596
32421	626889 9150 2015 11223 29.5 103 295 0 15.375 2211.0059605176 27861.555603981
32420	636039 9804 1987 11223 29.25 103 296 483.14999389648 734.23622131348 151690.8754425 78935951.442913
32419	645843 9782 1987 11223 29.25 103 296 184.17810058594 486.86563110352 125382.42333984 55187715.816907
32444	655625 8311 2930 11573 37.5 105.5 273 0.973 11.36141391502 636.41767138141 2951.1836988582
32443	663936 8592 2930 11573 37.5 105.5 273 -4.0388221740723 2.5000004768372 37.32285118103 404.35136075168
32442	672528 8739 2899 11573 37.25 105.5 274 0 15.25 2189.8208520431 27584.7772183
32441	681267 9135 2868 11573 37 105.5 275 235.39727783203 483.14999389648 124449.19366455 57447012.712153
32440	690402 9093 2868 11573 37 105.5 275 184.17810058594 483.14999389648 115087.22753906 50146194.712542
32458	699495 7814 3719 11678 44 106.25 250 0.973 11.467503070401 668.55174903429 3361.8867010518
32457	707309 7951 3719 11678 44 106.25 250 -4.3253517150879 2.5000004768372 44.736288070679 451.44591622048
32456	715260 8040 3686 11678 43.75 106.25 251 0 16.834072113037 2175.9462475535 30238.443043877
32455	723300 8386 3653 11678 43.5 106.25 252 239.54412841797 483.14999389648 114271.47012329 52798604.784679
32454	731686 8348 3653 11678 43.5 106.25 252 184.17810058594 483.14999389648 104816.17462158 45474657.828667
vector 32601  IntersectionExampleScenario.node[40].veinsmobility  posx  ETV
vector 32602  IntersectionExampleScenario.node[40].veinsmobility  posy  ETV
vector 32608  IntersectionExampleScenario.node[41].veinsmobility  posx  ETV
vector 32609  IntersectionExampleScenario.node[41].veinsmobility  posy  ETV
vector 32603  IntersectionExampleScenario.node[40].veinsmobility  speed  ETV
vector 32604  IntersectionExampleScenario.node[40].veinsmobility  acceleration  ETV
vector 32605  IntersectionExampleScenario.node[40].veinsmobility  co2emission  ETV
vector 32610  IntersectionExampleScenario.node[41].veinsmobility  speed  ETV
vector 32611  IntersectionExampleScenario.node[41].veinsmobility  acceleration  ETV
vector 32612  IntersectionExampleScenario.node[41].veinsmobility  co2emission  ETV
32465	740836 6647 4929 12091 54.25 109.25 221 0.973 11.648172402475 591.59116147086 2954.7598259088
32464	747483 6078 4929 12091 54.25 109.25 221 -7.03919506073 4 38.341367721558 478.13103295482
32463	753561 6382 4900 12091 54 109.25 222 0 15.64999961853 2200.0624997616 31109.684844129
32462	759943 7455 4871 12091 53.75 109.25 223 483.14999389648 785.82187652588 122878.03591156 69725665.40091
32461	767398 7456 4871 12091 53.75 109.25 223 483.14999389648 732.70495605469 116117.39743042 61541056.544283
vector 32615  IntersectionExampleScenario.node[42].veinsmobility  posx  ETV
vector 32616  IntersectionExampleScenario.node[42].veinsmobility  posy  ETV
vector 32617  IntersectionExampleScenario.node[42].veinsmobility  speed  ETV
vector 32618  IntersectionExampleScenario.node[42].veinsmobility  acceleration  ETV
vector 32619  IntersectionExampleScenario.node[42].veinsmobility  co2emission  ETV
32507	775255 5455 6473 12305 67.75 110.75 173 0.973 11.648172402475 530.01858750615 2901.3259245578
32506	780710 5357 6473 12305 67.75 110.75 173 -2.0975685119629 2.5000019073486 38.511121749878 283.87170456761
32505	786067 5616 6442 12305 67.5 110.75 174 4.2883329391479 15.64999961853 2211.9905338287 30230.373846875
32504	791683 5868 6411 12305 67.25 110.75 175 238.38116455078 785.82187652588 91613.619606018 52066019.24048
32503	797551 5890 6411 12305 67.25 110.75 175 483.14999389648 483.14999389648 84551.248931885 40850935.40538
32535	803441 5390 7045 12779 72.25 114.25 169 0.973 11.810082123732 569.59071286278 3421.0627289126
32534	808831 5270 7045 12779 72.25 114.25 169 -4.5 2.5 38.850629806519 432.67244949522
32533	814101 5411 7010 12779 72 114.25 170 5.6500000953674 15.875 2176.631632328 29722.206180251
32532	819512 5772 6975 12779 71.75 114.25 171 486.84765625 785.82187652588 97759.813362122 57626479.765279
32531	825284 5772 6975 12779 71.75 114.25 171 238.26507568359 483.14999389648 74591.662719727 33466939.804152
vector 32622  IntersectionExampleScenario.node[43].veinsmobility  posx  ETV
vector 32623  IntersectionExampleScenario.node[43].veinsmobility  posy  ETV
vector 32624  IntersectionExampleScenario.node[43].veinsmobility  speed  ETV
vector 32625  IntersectionExampleScenario.node[43].veinsmobility  acceleration  ETV
vector 32626  IntersectionExampleScenario.node[43].veinsmobility  co2emission  ETV
vector 32629  IntersectionExampleScenario.node[44].veinsmobility  posx  ETV
vector 32630  IntersectionExampleScenario.node[44].veinsmobility  posy  ETV
vector 32631  IntersectionExampleScenario.node[44].veinsmobility  speed  ETV
vector 32632  IntersectionExampleScenario.node[44].veinsmobility  acceleration  ETV
vector 32633  IntersectionExampleScenario.node[44].veinsmobility  co2emission  ETV
vector 32636  IntersectionExampleScenario.node[45].veinsmobility  posx  ETV
vector 32637  IntersectionExampleScenario.node[45].veinsmobility  posy  ETV
vector 32638  IntersectionExampleScenario.node[45].veinsmobility  speed  ETV
vector 32643  IntersectionExampleScenario.node[46].veinsmobility  posx  ETV
vector 32644  IntersectionExampleScenario.node[46].veinsmobility  posy  ETV
vector 32639  IntersectionExampleScenario.node[45].veinsmobility  acceleration  ETV
vector 32640  IntersectionExampleScenario.node[45].veinsmobility  co2emission  ETV
vector 32645  IntersectionExampleScenario.node[46].veinsmobility  speed  ETV
vector 32646  IntersectionExampleScenario.node[46].veinsmobility  acceleration  ETV
vector 32647  IntersectionExampleScenario.node[46].veinsmobility  co2emission  ETV
vector 32650  IntersectionExampleScenario.node[47].veinsmobility  posx  ETV
vector 32651  IntersectionExampleScenario.node[47].veinsmobility  posy  ETV
vector 32652  IntersectionExampleScenario.node[47].veinsmobility  speed  ETV
vector 32653  IntersectionExampleScenario.node[47].veinsmobility  acceleration  ETV
vector 32654  IntersectionExampleScenario.node[47].veinsmobility  co2emission  ETV
32563	833061 5014 8817 13838 84.75 122 150 0.96333723109819 12.099024792222 482.54028496117 2746.3377127
32562	838075 4898 8817 13838 84.75 122 150 -3.0577354431152 2.5 40.208654403687 208.21497387803
32561	842973 4943 8778 13838 84.5 122 151 5.6500000953674 16.27499961853 2210.5432167053 33105.493484639
32560	847916 5219 8739 13838 84.25 122 152 486.85000610352 486.85000610352 74001.200927734 36027485.123335
32559	853135 5202 8739 13838 84.25 122 152 238.51147460938 785.82187652588 79472.700431824 45563036.384245
vector 32657  IntersectionExampleScenario.node[48].veinsmobility  posx  ETV
vector 32658  IntersectionExampleScenario.node[48].veinsmobility  posy  ETV
vector 32664  IntersectionExampleScenario.node[49].veinsmobility  posx  ETV
vector 32665  IntersectionExampleScenario.node[49].veinsmobility  posy  ETV
vector 32659  IntersectionExampleScenario.node[48].veinsmobility  speed  ETV
vector 32660  IntersectionExampleScenario.node[48].veinsmobility  acceleration  ETV
vector 32661  IntersectionExampleScenario.node[48].veinsmobility  co2emission  ETV
vector 32666  IntersectionExampleScenario.node[49].veinsmobility  speed  ETV
vector 32667  IntersectionExampleScenario.node[49].veinsmobility  acceleration  ETV
vector 32668  IntersectionExampleScenario.node[49].veinsmobility  co2emission  ETV
vector 32671  IntersectionExampleScenario.node[50].veinsmobility  posx  ETV
vector 32672  IntersectionExampleScenario.node[50].veinsmobility  posy  ETV
vector 32673  IntersectionExampleScenario.node[50].veinsmobility  speed  ETV
vector 32674  IntersectionExampleScenario.node[50].veinsmobility  acceleration  ETV
vector 32675  IntersectionExampleScenario.node[50].veinsmobility  co2emission  ETV
32493	859540 7348 6215 14480 65.5 126.25 244 0.973 11.00486315618 584.04422442426 2579.1935080145
32492	866888 6640 6215 14480 65.5 126.25 244 -7.1267910003662 4 34.437047958374 445.46657704428
32491	873528 7077 6186 14480 65.25 126.25 245 0 14.75 2203.0806496143 29464.736341055
32490	880605 8327 6157 14480 65 126.25 246 184.17810058594 486.85000610352 103776.74996948 45901294.129788
32489	888932 8346 6157 14480 65 126.25 246 236.12127685547 486.85000610352 110766.70950317 51051846.333113
vector 32678  IntersectionExampleScenario.node[51].veinsmobility  posx  ETV
vector 32679  IntersectionExampleScenario.node[51].veinsmobility  posy  ETV
32500	897432 7548 6411 14519 67.25 126.5 238 0.973 11.54047740176 608.010410789 2791.9499618882
32499	904980 7263 6411 14519 67.25 126.5 238 -4.5 2.5 37.15309715271 437.6501444561
32498	912243 7525 6382 14519 67 126.5 239 0 15.5 2288.9226953909 31612.001748768
32497	919768 8118 6353 14519 66.75 126.5 240 164.94219970703 732.36367797852 107257.015625 52598335.026712
32496	927886 8159 6353 14519 66.75 126.5 240 486.85000610352 486.85000610352 116844.00146484 56885502.826318
vector 32680  IntersectionExampleScenario.node[51].veinsmobility  speed  ETV
vector 32681  IntersectionExampleScenario.node[51].veinsmobility  acceleration  ETV
vector 32682  IntersectionExampleScenario.node[51].veinsmobility  co2emission  ETV
32521	936292 7245 6909 14756 71.25 128 228 0.973 11.200708441096 602.88722392624 2788.9190531739
32520	943537 7393 6909 14756 71.25 128 228 -3.8441770076752 2.5000009536743 39.190130233765 348.10389626487
32519	950930 7634 6876 14756 71 128 229 0 15.483015060425 2278.6266832259 31303.348364259
32518	958564 7825 6843 14756 70.75 128 230 168.36016845703 733.19435119629 102242.22250366 49926046.592626
32517	966389 7840 6843 14756 70.75 128 230 486.85000610352 486.85000610352 111975.50140381 54515273.541888
vector 32685  IntersectionExampleScenario.node[52].veinsmobility  posx  ETV
vector 32686  IntersectionExampleScenario.node[52].veinsmobility  posy  ETV
vector 32687  IntersectionExampleScenario.node[52].veinsmobility  speed  ETV
vector 32688  IntersectionExampleScenario.node[52].veinsmobility  acceleration  ETV
vector 32689  IntersectionExampleScenario.node[52].veinsmobility  co2emission  ETV
32556	974630 6071 8369 15041 81.75 129.75 193 0.973 11.648172402475 560.55224362438 2906.0523549753
32555	980701 6206 8369 15041 81.75 129.75 193 -2.1312026977539 2.5 39.869146347046 307.10193465235
32554	986907 6494 8332 15041 81.5 129.75 194 2.0820217132568 15.736563682556 2220.0876281261 29834.150567239
32553	993401 6671 8295 15041 81.25 129.75 195 184.17810058594 733.79676818848 86862.781021118 42799931.38042
32552	1000072 6702 8295 15041 81.25 129.75 195 486.85000610352 486.85000610352 94935.751190186 46219471.046384
vector 32692  IntersectionExampleScenario.node[53].veinsmobility  posx  ETV
vector 32693  IntersectionExampleScenario.node[53].veinsmobility  posy  ETV
vector 32694  IntersectionExampleScenario.node[53].veinsmobility  speed  ETV
vector 32695  IntersectionExampleScenario.node[53].veinsmobility  acceleration  ETV
vector 32696  IntersectionExampleScenario.node[53].veinsmobility  co2emission  ETV
32472	1007175 8957 5189 15740 56.5 134 311 0.973 11.200708441096 680.47661587925 2971.9825512685
32471	1016132 8845 5189 15740 56.5 134 311 -8.9859848022461 4 35.625318527222 573.50835491469
32470	1024977 9106 5160 15740 56.25 134 312 0 15.02499961853 2219.1517789364 27769.136444014
32469	1034083 10626 5131 15740 56 134 313 483.14999389648 483.14999389648 151225.9480896 73064815.89648
32468	1044709 10573 5131 15740 56 134 313 184.17810058594 734.74969482422 142170.76245117 68958054.491837
32479	1055282 9383 5451 15935 58.75 135.25 307 0.973 11.859582076238 716.75807741428 3222.5760123422
32478	1064665 9795 5451 15935 58.75 135.25 307 -4.5 2.5000009536743 40.848279953003 569.70163981467
32477	1074460 9838 5422 15935 58.5 135.25 308 0 15.943665504456 2289.7891713604 30040.641886861
32476	1084298 10507 5392 15935 58.25 135.25 309 483.14999389648 483.14999389648 149293.34811401 72131080.230071
32475	1094805 10453 5392 15935 58.25 135.25 309 167.29217529297 734.73327636719 138063.47232056 66292436.404787
32486	1105258 9196 5963 16310 63.25 137.75 299 0.973 11.90022389248 669.34987777488 3131.1797559576
32485	1114454 9809 5963 16310 63.25 137.75 299 -3.7771787643433 2.5000004768372 39.529638290405 405.94657259823
32484	1124263 9800 5934 16310 63 137.75 300 0 16 2252.3255570792 29428.822639177
32483	1134063 10231 5905 16310 62.75 137.75 301 483.14999389648 732.89498901367 153664.27278137 79592027.813761
32482	1144294 10240 5905 16310 62.75 137.75 301 173.25677490234 486.85000610352 125904.447052 54844188.884815
vector 32699  IntersectionExampleScenario.node[54].veinsmobility  posx  ETV
vector 32700  IntersectionExampleScenario.node[54].veinsmobility  posy  ETV
vector 32701  IntersectionExampleScenario.node[54].veinsmobility  speed  ETV
vector 32702  IntersectionExampleScenario.node[54].veinsmobility  acceleration  ETV
vector 32703  IntersectionExampleScenario.node[54].veinsmobility  co2emission  ETV
32549	1154935 7512 7980 16839 79 141.5 251 0.973 11.472655245101 609.96602326055 3013.4902984688
32548	1162447 7107 7980 16839 79 141.5 251 -7.4186658859253 4 36.813589096069 490.53811294338
32547	1169554 7206 7945 16839 78.75 141.5 252 0 15.405397415161 2172.7063384056 29958.829115541
32546	1176760 8705 7910 16839 78.5 141.5 253 486.63604736328 785.82187652588 138282.80768585 77659885.001001
32545	1185465 8644 7910 16839 78.5 141.5 253 237.89813232422 483.14999389648 113926.58773804 52384253.89304
32584	1194109 5930 10420 17014 97 142.75 184 0.973 11.90022389248 545.4545438798 2986.0056720382
32583	1200039 6077 10420 17014 97 142.75 184 -2.1426239013672 2.5000009536743 39.020376205444 303.92722991308
32582	1206116 6172 10387 17014 96.75 142.75 185 2.5204584598541 16 2212.1101996899 29866.472274686
32581	1212288 6478 10354 17014 96.5 142.75 186 483.14999389648 785.82187652588 105148.04749298 61264152.790831
32580	1218766 6491 10354 17014 96.5 142.75 186 483.14999389648 733.4860534668 98194.371459961 52856740.129343
vector 32706  IntersectionExampleScenario.node[55].veinsmobility  posx  ETV
vector 32707  IntersectionExampleScenario.node[55].veinsmobility  posy  ETV
32598	1225411 6080 11153 17788 102.5 148.75 186 0.973 11.990504229548 569.4494103163 2939.1485960162
32597	1231491 6141 11153 17788 102.5 148.75 186 -4.2171173095703 2.5000000596046 41.057416915894 388.94088109894
32596	1237632 6392 11118 17788 102.25 148.75 187 0 16.125 2216.8288930357 31611.86681593
32595	1244024 6580 11083 17788 102 148.75 188 486.85000610352 486.85000610352 91527.801147461 44560310.547283
32594	1250604 6553 11083 17788 102 148.75 188 236.47454833984 785.82187652588 97959.378044128 55109545.404806
vector 32708  IntersectionExampleScenario.node[55].veinsmobility  speed  ETV
vector 32709  IntersectionExampleScenario.node[55].veinsmobility  acceleration  ETV
vector 32710  IntersectionExampleScenario.node[55].veinsmobility  co2emission  ETV
32577	1257404 6828 10354 17854 96.5 149.25 212 0.973 11.00486315618 554.32326732628 2554.1149721185
32576	1264232 6168 10354 17854 96.5 149.25 212 -9.2687568664551 4 34.606801986694 478.02837339951
32575	1270400 6627 10323 17854 96.25 149.25 213 0 14.75 2204.3600749969 29580.539234354
32574	1277027 7463 10292 17854 96 149.25 214 235.53033447266 486.85000610352 95170.693969727 43456976.486547
32573	1284490 7466 10292 17854 96 149.25 214 483.14999389648 785.82187652588 118868.75376892 68057447.738862
32619	1291956 5640 12270 18267 110.5 152.75 170 0.973 11.200708441096 527.25807505427 2937.5895129693
32618	1297596 5401 12270 18267 110.5 152.75 170 -3.6333160400391 2.5 35.625318527222 297.93774125169
32617	1302997 5708 12234 18267 110.25 152.75 171 5.6500000953674 15.02499961853 2204.3258361816 29395.437068808
32616	1308705 6012 12197 18267 110 152.75 172 236.50347900391 486.85000610352 74938.68572998 33669552.568636
32615	1314717 6006 12197 18267 110 152.75 172 482.96124267578 785.82187652588 98193.652412415 57876811.552775
32626	1320723 5097 13062 18402 116.5 154 151 0.973 11.990504229548 496.27228247098 2806.7646962606
32625	1325820 4992 13062 18402 116.5 154 151 -3.4774436950684 2.5 40.378400802612 220.43294866858
32624	1330812 5085 13029 18402 116.25 154 152 5.6500000953674 16.125 2217.9338226318 33101.801067051
32623	1335897 5353 12996 18402 116 154 153 486.85000610352 486.85000610352 74488.050933838 36264508.051778
32622	1341250 5343 12996 18402 116 154 153 236.56695556641 785.82187652588 79955.101585388 45845446.45764
vector 32713  IntersectionExampleScenario.node[56].veinsmobility  posx  ETV
vector 32714  IntersectionExampleScenario.node[56].veinsmobility  posy  ETV
vector 32715  IntersectionExampleScenario.node[56].veinsmobility  speed  ETV
vector 32716  IntersectionExampleScenario.node[56].veinsmobility  acceleration  ETV
vector 32717  IntersectionExampleScenario.node[56].veinsmobility  co2emission  ETV
32570	1346994 7626 10175 18737 95 157.25 250 0.973 11.714675976873 646.67021079658 3400.940834612
32569	1354620 6896 10175 18737 95 157.25 250 -7.6092214584351 4 38.341367721558 557.77289602875
32568	1361516 7267 10144 18737 94.75 157.25 251 0 15.742491722107 2177.8303933144 30679.929239437
32567	1368783 8771 10113 18737 94.5 157.25 252 184.17810058594 483.36395263672 106830.7010498 47348423.918196
32566	1377554 8729 10113 18737 94.5 157.25 252 486.85000610352 733.04777526855 130867.94935608 69034736.472515
vector 32720  IntersectionExampleScenario.node[57].veinsmobility  posx  ETV
vector 32721  IntersectionExampleScenario.node[57].veinsmobility  posy  ETV
vector 32722  IntersectionExampleScenario.node[57].veinsmobility  speed  ETV
32605	1386515 6532 12017 18989 108.75 159.75 205 0.973 11.648172402475 570.13555271036 2916.4677088883
32604	1393047 6811 12017 18989 108.75 159.75 205 -3.6947984695435 2.5 39.699392318726 331.14678768611
32603	1399858 6901 11980 18989 108.5 159.75 206 0 15.64999961853 2189.2939245589 29289.729731259
32602	1406759 7220 11945 18989 108.25 159.75 207 184.17810058594 483.14999389648 84818.682067871 36602535.066958
32601	1413979 7245 11945 18989 108.25 159.75 207 486.85000610352 734.26473999023 108877.95800781 58280481.211558
vector 32723  IntersectionExampleScenario.node[57].veinsmobility  acceleration  ETV
vector 32724  IntersectionExampleScenario.node[57].veinsmobility  co2emission  ETV
vector 32727  IntersectionExampleScenario.node[58].veinsmobility  posx  ETV
vector 32728  IntersectionExampleScenario.node[58].veinsmobility  posy  ETV
vector 32729  IntersectionExampleScenario.node[58].veinsmobility  speed  ETV
vector 32730  IntersectionExampleScenario.node[58].veinsmobility  acceleration  ETV
vector 32731  IntersectionExampleScenario.node[58].veinsmobility  co2emission  ETV
32633	1421794 5998 13228 19383 117.75 163.25 183 0.973 11.200708441096 520.81012480347 2663.0106972086
32632	1427792 5774 13228 19383 117.75 163.25 183 -4.5 2.5 35.455564498901 286.90515393463
32631	1433566 6131 13195 19383 117.5 163.25 184 5.6500000953674 15.02499961853 2190.3247170448 27967.425905119
32630	1439697 6439 13161 19383 117.25 163.25 185 184.17810058594 483.16668701172 74161.132354736 31539585.455864
32629	1446136 6470 13161 19383 117.25 163.25 185 486.85000610352 734.92002868652 98761.555801392 53749808.077598
32514	1452606 11570 6627 19634 69 165.5 387 0.973 11.200708441096 773.53703093685 3103.4612645912
32513	1464176 11541 6627 19634 69 165.5 387 -19.622520446777 4 36.98334312439 968.27951697851
32512	1475717 11755 6596 19634 68.75 165.5 388 0 15.02499961853 2206.0254161153 27594.353843421
32511	1487472 13388 6565 19634 68.5 165.5 389 483.14999389648 483.14999389648 187945.34762573 90805793.558246
32510	1500860 13336 6565 19634 68.5 165.5 389 184.17810058594 732.25262451172 175797.45539856 83736971.203
32528	1514196 12010 6909 19709 71.25 166.25 381 0.973 11.810082123732 794.37084560547 3297.0018374328
32527	1526206 12236 6909 19709 71.25 166.25 381 -4.5 2.5 40.038900375366 659.94014376955
32526	1538442 12235 6876 19709 71 166.25 382 0 15.875 2243.6708971066 28922.18982675
32525	1550677 13182 6843 19709 70.75 166.25 383 239.04296875 483.14999389648 177209.58068848 83102861.726875
32524	1563859 13149 6843 19709 70.75 166.25 383 167.29217529297 483.14999389648 162024.01638794 70904929.586966
32542	1577008 11320 7945 19929 78.75 168.5 360 0.973 11.90022389248 755.61281268852 3419.0706828367
32541	1588328 11674 7945 19929 78.75 168.5 360 -4.5 2.5000009536743 39.869146347046 561.60180033406
32540	1600002 11767 7910 19929 78.5 168.5 361 0 16 2209.0343324374 28145.99012559
32539	1611769 12513 7877 19929 78.25 168.5 362 483.14999389648 733.08135986328 183105.91300964 93797859.92228
32538	1624282 12481 7877 19929 78.25 168.5 362 184.17810058594 486.87591552734 152918.87637329 66605344.46782
vector 32734  IntersectionExampleScenario.node[59].veinsmobility  posx  ETV
vector 32735  IntersectionExampleScenario.node[59].veinsmobility  posy  ETV
vector 32736  IntersectionExampleScenario.node[59].veinsmobility  speed  ETV
vector 32737  IntersectionExampleScenario.node[59].veinsmobility  acceleration  ETV
vector 32738  IntersectionExampleScenario.node[59].veinsmobility  co2emission  ETV
vector 32741  IntersectionExampleScenario.node[60].veinsmobility  posx  ETV
vector 32742  IntersectionExampleScenario.node[60].veinsmobility  posy  ETV
vector 32743  IntersectionExampleScenario.node[60].veinsmobility  speed  ETV
vector 32744  IntersectionExampleScenario.node[60].veinsmobility  acceleration  ETV
vector 32745  IntersectionExampleScenario.node[60].veinsmobility  co2emission  ETV
vector 32748  IntersectionExampleScenario.node[61].veinsmobility  posx  ETV
vector 32749  IntersectionExampleScenario.node[61].veinsmobility  posy  ETV
vector 32750  IntersectionExampleScenario.node[61].veinsmobility  speed  ETV
vector 32751  IntersectionExampleScenario.node[61].veinsmobility  acceleration  ETV
vector 32752  IntersectionExampleScenario.node[61].veinsmobility  co2emission  ETV
32591	1637966 9662 10555 20318 98 172.25 298 0.973 11.36141391502 668.71014736429 2962.5947758019
32590	1647628 9908 10555 20318 98 172.25 298 -4.153281211853 2.5 36.98334312439 417.40059586841
32589	1657536 10120 10521 20318 97.75 172.25 299 0 15.25 2188.0672505368 26879.993672108
32588	1667656 10482 10486 20318 97.5 172.25 300 236.111328125 483.14999389648 136529.61483765 63280198.633376
32587	1678138 10443 10486 20318 97.5 172.25 300 184.17810058594 483.29266357422 125096.07626343 54108838.171896
32682	1688581 6096 14600 20429 127 173.25 186 0.973 11.648172402475 554.12941258103 2895.9331187118
32681	1694677 5624 14600 20429 127 173.25 186 -7.4922199249268 4 38.171613693237 479.41769177267
32680	1700301 5958 14560 20429 126.75 173.25 187 0 15.64999961853 2175.1207141876 30519.901571347
32679	1706259 6569 14519 20429 126.5 173.25 188 486.63604736328 785.82187652588 105705.4495163 61298566.430956
32678	1712828 6505 14519 20429 126.5 173.25 188 237.46997070312 483.14999389648 82663.412445068 37325680.506724
vector 32755  IntersectionExampleScenario.node[62].veinsmobility  posx  ETV
vector 32756  IntersectionExampleScenario.node[62].veinsmobility  posy  ETV
vector 32757  IntersectionExampleScenario.node[62].veinsmobility  speed  ETV
vector 32758  IntersectionExampleScenario.node[62].veinsmobility  acceleration  ETV
vector 32759  IntersectionExampleScenario.node[62].veinsmobility  co2emission  ETV
vector 32762  IntersectionExampleScenario.node[63].veinsmobility  posx  ETV
vector 32763  IntersectionExampleScenario.node[63].veinsmobility  posy  ETV
vector 32764  IntersectionExampleScenario.node[63].veinsmobility  speed  ETV
vector 32765  IntersectionExampleScenario.node[63].veinsmobility  acceleration  ETV
vector 32766  IntersectionExampleScenario.node[63].veinsmobility  co2emission  ETV
vector 32769  IntersectionExampleScenario.node[64].veinsmobility  posx  ETV
vector 32770  IntersectionExampleScenario.node[64].veinsmobility  posy  ETV
32661	1720289 7528 14019 21176 123.25 180.25 229 0.96997852711604 12.44402232946 639.9968468694 3274.6830462868
32660	1727817 7513 14019 21176 123.25 180.25 229 -4.5 2.5 42.585195541382 479.80754569564
32659	1735330 7536 13980 21176 123 180.25 230 0 16.75 2246.5163448751 33177.395960506
32658	1742866 8085 13943 21176 122.75 180.25 231 486.85000610352 486.85000610352 112462.35140991 54752296.470331
32657	1750951 8065 13943 21176 122.75 180.25 231 239.20220947266 795.50155639648 120481.70934296 67002683.675763
vector 32771  IntersectionExampleScenario.node[64].veinsmobility  speed  ETV
vector 32772  IntersectionExampleScenario.node[64].veinsmobility  acceleration  ETV
vector 32773  IntersectionExampleScenario.node[64].veinsmobility  co2emission  ETV
vector 32776  IntersectionExampleScenario.node[65].veinsmobility  posx  ETV
vector 32777  IntersectionExampleScenario.node[65].veinsmobility  posy  ETV
32640	1759417 7830 13331 21260 118.5 181 251 0.973 11.200708441096 606.73937274229 2732.470307352
32639	1767247 7384 13331 21260 118.5 181 251 -7.6302871704102 4 35.795072555542 466.06860879095
32638	1774631 7500 13296 21260 118.25 181 252 0 15.02499961853 2279.792263031 31199.230645644
32637	1782131 8844 13261 21260 118 181 253 235.04376220703 486.85000610352 114295.60159302 52813776.603339
32636	1790975 8838 13261 21260 118 181 253 483.14999389648 803.92188262939 139710.21112823 79612853.322186
vector 32778  IntersectionExampleScenario.node[65].veinsmobility  speed  ETV
vector 32779  IntersectionExampleScenario.node[65].veinsmobility  acceleration  ETV
vector 32780  IntersectionExampleScenario.node[65].veinsmobility  co2emission  ETV
32703	1800060 5792 16839 21700 141.5 185 175 0.973 11.200708441096 541.11461238366 2950.2489384513
32702	1805852 5514 16839 21700 141.5 185 175 -3.0969123840332 2.5 35.625318527222 336.07332312996
32701	1811366 5852 16804 21700 141.25 185 176 5.6500000953674 15.02499961853 2180.625292778 28509.443324909
32700	1817218 6176 16769 21700 141 185 177 486.85000610352 732.40507507324 94674.919784546 51620178.817362
32699	1823394 6183 16769 21700 141 185 177 486.85000610352 785.82187652588 101021.69208527 59448291.501713
vector 32783  IntersectionExampleScenario.node[66].veinsmobility  posx  ETV
vector 32784  IntersectionExampleScenario.node[66].veinsmobility  posy  ETV
vector 32785  IntersectionExampleScenario.node[66].veinsmobility  speed  ETV
vector 32786  IntersectionExampleScenario.node[66].veinsmobility  acceleration  ETV
vector 32787  IntersectionExampleScenario.node[66].veinsmobility  co2emission  ETV
vector 32790  IntersectionExampleScenario.node[67].veinsmobility  posx  ETV
vector 32791  IntersectionExampleScenario.node[67].veinsmobility  posy  ETV
vector 32792  IntersectionExampleScenario.node[67].veinsmobility  speed  ETV
32668	1830210 7955 14058 22118 123.5 189.25 264 0.973 11.36141391502 621.57033847906 2931.7789659547
32667	1838165 7413 14058 22118 123.5 189.25 264 -22.332046508789 4 38.171613693237 876.56188375751
32666	1845578 7643 14019 22118 123.25 189.25 265 0 15.25 2178.3480453491 29666.254509551
32665	1853221 9279 13980 22118 123 189.25 266 184.17810058594 483.36395263672 113116.45205688 50187916.474469
32664	1862500 9239 13980 22118 123 189.25 266 486.85000610352 732.53002929688 137670.8881073 72335648.890027
vector 32793  IntersectionExampleScenario.node[67].veinsmobility  acceleration  ETV
vector 32794  IntersectionExampleScenario.node[67].veinsmobility  co2emission  ETV
32675	1871908 8383 14441 22307 126 191 261 0.973 11.200708441096 611.74156143653 2723.6919738248
32674	1880291 8183 14441 22307 126 191 261 -4.5 2.5 35.285810470581 439.74462564296
32673	1888474 8297 14402 22307 125.75 191 262 0 15.02499961853 2273.6832304411 30814.032826772
32672	1896771 9165 14363 22307 125.5 191 263 168.58435058594 732.74946594238 118424.20252991 58004012.107338
32671	1905936 9204 14363 22307 125.5 191 263 486.85000610352 486.85000610352 128041.55160522 62337030.180507
vector 32797  IntersectionExampleScenario.node[68].veinsmobility  posx  ETV
vector 32798  IntersectionExampleScenario.node[68].veinsmobility  posy  ETV
32689	1915294 8422 14877 22495 128.75 192.75 257 0.973 11.36141391502 646.97782102769 3001.0609712392
32688	1923716 8586 14877 22495 128.75 192.75 257 -4.5 2.5 40.038900375366 421.4553864487
32687	1932302 8659 14836 22495 128.5 192.75 258 0 15.687369346619 2266.4187770514 31247.478815363
32686	1940961 9031 14795 22495 128.25 192.75 259 162.15777587891 483.18774414062 106988.74057007 46540820.619589
32685	1949992 9061 14795 22495 128.25 192.75 259 486.85000610352 731.63011169434 133990.04911804 70358720.01603
vector 32799  IntersectionExampleScenario.node[68].veinsmobility  speed  ETV
vector 32800  IntersectionExampleScenario.node[68].veinsmobility  acceleration  ETV
vector 32801  IntersectionExampleScenario.node[68].veinsmobility  co2emission  ETV
vector 32804  IntersectionExampleScenario.node[69].veinsmobility  posx  ETV
vector 32805  IntersectionExampleScenario.node[69].veinsmobility  posy  ETV
vector 32811  IntersectionExampleScenario.node[70].veinsmobility  posx  ETV
vector 32812  IntersectionExampleScenario.node[70].veinsmobility  posy  ETV
vector 32806  IntersectionExampleScenario.node[69].veinsmobility  speed  ETV
vector 32807  IntersectionExampleScenario.node[69].veinsmobility  acceleration  ETV
vector 32808  IntersectionExampleScenario.node[69].veinsmobility  co2emission  ETV
vector 32813  IntersectionExampleScenario.node[70].veinsmobility  speed  ETV
vector 32814  IntersectionExampleScenario.node[70].veinsmobility  acceleration  ETV
vector 32815  IntersectionExampleScenario.node[70].veinsmobility  co2emission  ETV
vector 32818  IntersectionExampleScenario.node[71].veinsmobility  posx  ETV
vector 32819  IntersectionExampleScenario.node[71].veinsmobility  posy  ETV
vector 32820  IntersectionExampleScenario.node[71].veinsmobility  speed  ETV
vector 32821  IntersectionExampleScenario.node[71].veinsmobility  acceleration  ETV
vector 32822  IntersectionExampleScenario.node[71].veinsmobility  co2emission  ETV
32612	1960503 10831 12054 23049 109 197.5 355 0.973 11.36141391502 733.57410905614 3082.2254272493
32611	1971334 10878 12054 23049 109 197.5 355 -6.7140073776245 4 37.492597579956 514.92257199773
32610	1982212 10924 12017 23049 108.75 197.5 356 0 15.25 2182.7670561597 27374.796003519
32609	1993136 12428 11980 23049 108.5 197.5 357 235.78491210938 483.14999389648 164120.23434448 76629204.226952
32608	2005564 12464 11980 23049 108.5 197.5 357 184.17810058594 483.36395263672 152744.89678955 67474016.786189
32647	2018028 9372 13405 23080 119 197.75 316 0.973 12.099024792222 705.44061128944 3407.8965581532
32646	2027400 9412 13405 23080 119 197.75 316 -4.5 2.5000009536743 41.057416915894 518.07314041315
32645	2036812 9628 13368 23080 118.75 197.75 317 0 16.27499961853 2219.3236122802 29361.322118886
32644	2046440 11131 13331 23080 118.5 197.75 318 483.14999389648 483.14999389648 153641.69805908 74231985.479491
32643	2057571 11097 13331 23080 118.5 197.75 318 184.17810058594 734.06190490723 142665.75837708 68121315.518853
32654	2068668 10063 13728 23406 121.25 200.5 318 0.973 11.648172402475 687.44712613088 3035.6738782142
32653	2078731 10487 13728 23406 121.25 200.5 318 -4.5 2.5000004768372 38.341367721558 463.38283468911
32652	2089218 10611 13691 23406 121 200.5 319 0 15.64999961853 2280.4934980292 29682.87790169
32651	2099829 11200 13654 23406 120.75 200.5 320 483.14999389648 483.14999389648 154607.99804688 74698853.312695
32650	2111029 11104 13654 23406 120.75 200.5 320 167.29217529297 732.21423339844 141355.47720337 66984146.428719
vector 32825  IntersectionExampleScenario.node[72].veinsmobility  posx  ETV
vector 32826  IntersectionExampleScenario.node[72].veinsmobility  posy  ETV
vector 32827  IntersectionExampleScenario.node[72].veinsmobility  speed  ETV
vector 32832  IntersectionExampleScenario.node[73].veinsmobility  posx  ETV
vector 32833  IntersectionExampleScenario.node[73].veinsmobility  posy  ETV
vector 32828  IntersectionExampleScenario.node[72].veinsmobility  acceleration  ETV
vector 32829  IntersectionExampleScenario.node[72].veinsmobility  co2emission  ETV
vector 32834  IntersectionExampleScenario.node[73].veinsmobility  speed  ETV
vector 32835  IntersectionExampleScenario.node[73].veinsmobility  acceleration  ETV
vector 32836  IntersectionExampleScenario.node[73].veinsmobility  co2emission  ETV
32696	2122935 9059 15414 23596 132 202 281 0.973 12.099024792222 677.83159132676 3272.8929197905
32695	2131994 9347 15414 23596 132 202 281 -4.5 2.5 42.245687484741 423.87121829386
32694	2141341 9653 15371 23596 131.75 202 282 0 16.27499961853 2222.3603756242 29208.033855405
32693	2150994 9904 15328 23596 131.5 202 283 483.14999389648 483.14999389648 136731.44827271 66061798.398415
32692	2160898 9855 15328 23596 131.5 202 283 184.17810058594 734.10182189941 125003.44715881 59276800.729394
vector 32839  IntersectionExampleScenario.node[74].veinsmobility  posx  ETV
vector 32840  IntersectionExampleScenario.node[74].veinsmobility  posy  ETV
vector 32846  IntersectionExampleScenario.node[75].veinsmobility  posx  ETV
vector 32847  IntersectionExampleScenario.node[75].veinsmobility  posy  ETV
vector 32841  IntersectionExampleScenario.node[74].veinsmobility  speed  ETV
vector 32848  IntersectionExampleScenario.node[75].veinsmobility  speed  ETV
vector 32842  IntersectionExampleScenario.node[74].veinsmobility  acceleration  ETV
vector 32843  IntersectionExampleScenario.node[74].veinsmobility  co2emission  ETV
vector 32849  IntersectionExampleScenario.node[75].veinsmobility  acceleration  ETV
vector 32850  IntersectionExampleScenario.node[75].veinsmobility  co2emission  ETV
32738	2171555 5368 20048 24531 169.75 209.25 159 0.973 11.810082123732 508.49538687659 2854.0891032743
32737	2176923 5079 20048 24531 169.75 209.25 159 -3.5987949371338 2.5 38.511121749878 289.97426918725
32736	2182002 5271 20023 24531 169.5 209.25 160 5.6500000953674 15.875 2187.4260525703 31251.806350984
32735	2187273 5625 19998 24531 169.25 209.25 161 486.6611328125 785.82187652588 92175.98639679 54512584.595682
32734	2192898 5633 19998 24531 169.25 209.25 161 236.08911132812 483.14999389648 69584.890655518 31005018.71986
vector 32853  IntersectionExampleScenario.node[76].veinsmobility  posx  ETV
vector 32854  IntersectionExampleScenario.node[76].veinsmobility  posy  ETV
vector 32855  IntersectionExampleScenario.node[76].veinsmobility  speed  ETV
vector 32856  IntersectionExampleScenario.node[76].veinsmobility  acceleration  ETV
vector 32857  IntersectionExampleScenario.node[76].veinsmobility  co2emission  ETV
32724	2198932 6492 19016 24764 160 211.25 206 0.973 12.553400930962 612.49144526318 3500.5662097684
32723	2205424 6081 19016 24764 160 211.25 206 -8.9821796417236 4 42.924703598022 530.51171541307
32722	2211505 6247 18989 24764 159.75 211.25 207 0 16.89999961853 2171.6442551613 32358.137223093
32721	2217752 7208 18962 24764 159.5 211.25 208 486.85000610352 731.55372619629 108820.56896973 57883145.702755
32720	2224960 7263 18962 24764 159.5 211.25 208 486.63604736328 785.82187652588 115169.12688446 65670587.950616
vector 32860  IntersectionExampleScenario.node[77].veinsmobility  posx  ETV
vector 32861  IntersectionExampleScenario.node[77].veinsmobility  posy  ETV
vector 32862  IntersectionExampleScenario.node[77].veinsmobility  speed  ETV
vector 32863  IntersectionExampleScenario.node[77].veinsmobility  acceleration  ETV
vector 32864  IntersectionExampleScenario.node[77].veinsmobility  co2emission  ETV
32752	2232624 5562 20318 25171 172.25 214.75 171 0.973 12.26218747632 560.33100215329 3311.9337429992
32751	2238186 5570 20318 25171 172.25 214.75 171 -3.096830368042 2.5000019073486 41.227170944214 335.08022772851
32750	2243756 5676 20289 25171 172 214.75 172 5.1981744766235 16.5 2193.0884051323 30487.582633788
32749	2249432 6045 20260 25171 171.75 214.75 173 486.85000610352 734.94395446777 92167.030731201 50046674.751132
32748	2255477 6049 20260 25171 171.75 214.75 173 486.85000610352 785.82187652588 98541.042640686 57859245.511163
32773	2261526 5284 21233 25722 180.75 219.5 156 0.973 11.54047740176 465.67602607776 2441.9886805674
32772	2266810 5207 21233 25722 180.75 219.5 156 -3.5232582092285 2.5 36.98334312439 195.57375782472
32771	2272017 5251 21205 25722 180.5 219.5 157 5.6500000953674 15.5 2210.5191392899 31688.562468024
32770	2277268 5531 21176 25722 180.25 219.5 158 486.85000610352 486.85000610352 76922.300964355 37449622.693993
32769	2282799 5510 21176 25722 180.25 219.5 158 238.31896972656 785.82187652588 82452.90763092 47202393.203622
32717	2288309 7931 18737 25980 157.25 221.75 259 0.973 11.36141391502 617.91254599166 2923.4446886632
32716	2296240 7356 18737 25980 157.25 221.75 259 -17.004261016846 4 35.964826583862 705.18147350478
32715	2303596 7504 18712 25980 157 221.75 260 0 15.25 2177.6826019287 29846.558005308
32714	2311100 9109 18687 25980 156.75 221.75 261 184.17810058594 483.36395263672 110827.42944336 49166310.700948
32713	2320209 9068 18687 25980 156.75 221.75 261 486.85000610352 733.14964294434 135558.51751709 71522494.045158
32731	2329277 7912 19209 25980 161.75 221.75 241 0.973 11.450879080643 649.8653528128 3081.4001772308
32730	2337189 8023 19209 25980 161.75 221.75 241 -4.5 2.5 42.754949569702 454.8554757128
32729	2345212 7940 19180 25980 161.5 221.75 242 0 16.366281509399 2204.412703326 32087.934420822
32728	2353152 8473 19151 25980 161.25 221.75 243 184.17810058594 486.86566162109 102482.14651489 45210638.908526
32727	2361625 8504 19151 25980 161.25 221.75 243 237.86102294922 486.85000610352 110467.44412231 51260314.324734
32759	2370129 6250 20617 26185 175 223.75 196 0.973 12.099024792222 575.25665950493 3085.9764356371
32758	2376379 6556 20617 26185 175 223.75 196 -2.1751480102539 2.5 41.566686630249 313.68769245402
32757	2382935 6635 20590 26185 174.75 223.75 197 1.333176612854 16.27499961853 2200.5498503447 29969.035186196
32756	2389570 6898 20563 26185 174.5 223.75 198 184.17810058594 486.85000610352 80725.259490967 34729546.184966
32755	2396468 6926 20563 26185 174.5 223.75 198 239.23327636719 486.85000610352 88521.715209961 40558391.394346
vector 32867  IntersectionExampleScenario.node[78].veinsmobility  posx  ETV
vector 32868  IntersectionExampleScenario.node[78].veinsmobility  posy  ETV
vector 32869  IntersectionExampleScenario.node[78].veinsmobility  speed  ETV
vector 32870  IntersectionExampleScenario.node[78].veinsmobility  acceleration  ETV
vector 32871  IntersectionExampleScenario.node[78].veinsmobility  co2emission  ETV
32766	2403795 6412 20959 26523 178.25 227.25 197 0.973 11.648172402475 566.99180759595 2994.9875323377
32765	2410207 6416 20959 26523 178.25 227.25 197 -4.4659118652344 2.5000019073486 38.171613693237 372.09231170348
32764	2416623 6607 20932 26523 178 227.25 198 3.9860215187073 15.64999961853 2231.6825466156 29022.082081144
32763	2423230 6932 20905 26523 177.75 227.25 199 172.9296875 483.24740600586 79487.534759521 33716040.541064
32762	2430162 6958 20905 26523 177.75 227.25 199 486.85000610352 733.74690246582 105139.14138794 56560006.240606
32710	2437120 9521 17854 26660 149.25 228.75 319 0.973 12.099024792222 728.67458515676 3452.4185431321
32709	2446641 9538 17854 26660 149.25 228.75 319 -7.3719596862793 4 41.227170944214 572.73551726505
32708	2456179 9705 17821 26660 149 228.75 320 0 16.27499961853 2219.4771400727 29227.406573856
32707	2465884 11236 17788 26660 148.75 228.75 321 483.14999389648 483.14999389648 155091.14804077 74932287.229297
32706	2477120 11193 17788 26660 148.75 228.75 321 184.17810058594 734.84895324707 145006.96257019 69650286.644006
vector 32874  IntersectionExampleScenario.node[79].veinsmobility  posx  ETV
vector 32875  IntersectionExampleScenario.node[79].veinsmobility  posy  ETV
vector 32876  IntersectionExampleScenario.node[79].veinsmobility  speed  ETV
vector 32877  IntersectionExampleScenario.node[79].veinsmobility  acceleration  ETV
vector 32878  IntersectionExampleScenario.node[79].veinsmobility  co2emission  ETV
vector 32881  IntersectionExampleScenario.node[80].veinsmobility  posx  ETV
vector 32882  IntersectionExampleScenario.node[80].veinsmobility  posy  ETV
vector 32883  IntersectionExampleScenario.node[80].veinsmobility  speed  ETV
vector 32884  IntersectionExampleScenario.node[80].veinsmobility  acceleration  ETV
vector 32885  IntersectionExampleScenario.node[80].veinsmobility  co2emission  ETV
32745	2489115 8330 20152 27359 170.75 237.75 269 0.973 11.165392087921 655.36177587256 3089.5491938667
32744	2497445 7252 20152 27359 170.75 237.75 269 -41.123699188232 4 35.964826583862 2052.6705929328
32743	2504697 7837 20125 27359 170.5 237.75 270 0 14.975474357605 2291.6779403687 31943.430060241
32742	2512534 9470 20098 27359 170.25 237.75 271 237.70941162109 807.99687957764 140648.13826752 77827444.29776
32741	2522004 9487 20098 27359 170.25 237.75 271 483.14999389648 483.14999389648 130933.64834595 63260591.399189
32801	2531491 6041 22549 27504 193.25 239.75 187 0.973 11.648172402475 543.81201795585 2807.7330896976
32800	2537532 6134 22549 27504 193.25 239.75 187 -2.0996398925781 2.5000009536743 38.850629806519 290.48711515028
32799	2543666 6401 22522 27504 193 239.75 188 2.5090024471283 15.64999961853 2209.090287447 29514.503326968
32798	2550067 6598 22495 27504 192.75 239.75 189 238.75158691406 785.82187652588 99107.236183167 56062302.600005
32797	2556665 6616 22495 27504 192.75 239.75 189 483.14999389648 483.14999389648 91315.348846436 44119010.237811
32780	2563281 7526 21318 27504 181.5 239.75 234 0.973 10.916047529558 561.39653610106 2509.0522344595
32779	2570807 7747 21318 27504 181.5 239.75 234 -3.8335890769958 2.5 34.437047958374 313.58832835228
32778	2578554 7929 21289 27504 181.25 239.75 235 0 14.625 2180.267457176 27287.900226373
32777	2586483 8240 21260 27504 181 239.75 236 486.71844482422 785.82187652588 131129.17138672 74839346.310418
32776	2594723 8253 21260 27504 181 239.75 236 237.66485595703 483.14999389648 105361.59414673 48135442.948809
vector 32888  IntersectionExampleScenario.node[81].veinsmobility  posx  ETV
vector 32889  IntersectionExampleScenario.node[81].veinsmobility  posy  ETV
vector 32890  IntersectionExampleScenario.node[81].veinsmobility  speed  ETV
vector 32891  IntersectionExampleScenario.node[81].veinsmobility  acceleration  ETV
vector 32892  IntersectionExampleScenario.node[81].veinsmobility  co2emission  ETV
vector 32895  IntersectionExampleScenario.node[82].veinsmobility  posx  ETV
vector 32896  IntersectionExampleScenario.node[82].veinsmobility  posy  ETV
vector 32897  IntersectionExampleScenario.node[82].veinsmobility  speed  ETV
vector 32898  IntersectionExampleScenario.node[82].veinsmobility  acceleration  ETV
vector 32899  IntersectionExampleScenario.node[82].veinsmobility  co2emission  ETV
32808	2603778 6602 22744 27793 195 244.25 198 0.973 10.916047529558 543.50745241223 2608.9662797526
32807	2610380 6408 22744 27793 195 244.25 198 -4.5 2.5 34.267293930054 361.906650181
32806	2616788 6645 22713 27793 194.75 244.25 199 3.6506979465485 14.625 2264.5102956295 28434.853206485
32805	2623433 6983 22684 27793 194.5 244.25 200 486.84848022461 805.05782318115 114845.62731171 68115265.338599
32804	2630416 6992 22684 27793 194.5 244.25 200 235.58825683594 483.14999389648 87804.500488281 39613592.98339
vector 32902  IntersectionExampleScenario.node[83].veinsmobility  posx  ETV
vector 32903  IntersectionExampleScenario.node[83].veinsmobility  posy  ETV
vector 32904  IntersectionExampleScenario.node[83].veinsmobility  speed  ETV
vector 32905  IntersectionExampleScenario.node[83].veinsmobility  acceleration  ETV
vector 32906  IntersectionExampleScenario.node[83].veinsmobility  co2emission  ETV
32787	2637809 7102 22041 27865 188.5 245.25 228 0.973 12.099024792222 635.83067901324 3298.6034291663
32786	2644911 6694 22041 27865 188.5 245.25 228 -8.3283615112305 4 39.771699905396 527.66056051112
32785	2651605 7020 22016 27865 188.25 245.25 229 0 16.344289779663 2213.6629261971 31681.386070282
32784	2658625 8049 21991 27865 188 245.25 230 486.85000610352 486.85000610352 111975.50140381 54515273.541888
32783	2666674 8024 21991 27865 188 245.25 230 236.26898193359 785.82187652588 117300.96483612 64023564.946424
32815	2674698 6457 22775 27900 195.25 245.75 203 0.973 11.648172402475 556.49403856339 2878.1119299487
32814	2681155 6725 22775 27900 195.25 245.75 203 -3.8303289413452 2.5000019073486 38.341367721558 337.21208978403
32813	2687880 6912 22744 27900 195 245.75 204 0 15.64999961853 2210.7756089494 29467.834833965
32812	2694792 7160 22713 27900 194.75 245.75 205 235.73504638672 486.85000610352 91327.432952881 41754602.470605
32811	2701952 7169 22713 27900 194.75 245.75 205 483.12606811523 785.82187652588 114792.03227997 66167232.162092
vector 32909  IntersectionExampleScenario.node[84].veinsmobility  posx  ETV
vector 32910  IntersectionExampleScenario.node[84].veinsmobility  posy  ETV
vector 32911  IntersectionExampleScenario.node[84].veinsmobility  speed  ETV
vector 32912  IntersectionExampleScenario.node[84].veinsmobility  acceleration  ETV
vector 32913  IntersectionExampleScenario.node[84].veinsmobility  co2emission  ETV
32843	2709522 5844 23863 28062 204 248 177 0.973 11.200708441096 503.88701318686 2544.02266329
32842	2715366 5796 23863 28062 204 248 177 -2.741455078125 2.5 35.625318527222 241.80129321688
32841	2721162 6072 23828 28062 203.75 248 178 5.6500000953674 15.02499961853 2210.3662724495 28890.732956964
32840	2727234 6264 23793 28062 203.5 248 179 486.85000610352 486.85000610352 87146.151092529 42427104.191296
32839	2733498 6247 23793 28062 203.5 248 179 238.23626708984 785.82187652588 93698.254310608 53308952.408303
32864	2739745 5002 25055 28268 213.75 251.25 151 0.973 12.137169297563 512.45938155766 3081.2111698155
32863	2744747 5046 25055 28268 213.75 251.25 151 -3.985466003418 2.5000038146973 40.887662887573 248.91169197476
32862	2749793 5087 25026 28268 213.5 251.25 152 5.6500000953674 16.32763671875 2220.1736621857 33189.511351599
32861	2754880 5356 24996 28268 213.25 251.25 153 486.85000610352 486.85000610352 74488.050933838 36264508.051778
32860	2760236 5341 24996 28268 213.25 251.25 153 236.19952392578 785.82187652588 79916.085716248 45788924.166829
vector 32916  IntersectionExampleScenario.node[85].veinsmobility  posx  ETV
vector 32917  IntersectionExampleScenario.node[85].veinsmobility  posy  ETV
vector 32918  IntersectionExampleScenario.node[85].veinsmobility  speed  ETV
vector 32919  IntersectionExampleScenario.node[85].veinsmobility  acceleration  ETV
vector 32920  IntersectionExampleScenario.node[85].veinsmobility  co2emission  ETV
32794	2765978 7752 22145 28449 189.5 254 259 0.973 12.099024792222 693.99628372227 3799.2353986872
32793	2773730 7288 22145 28449 189.5 254 259 -19.875789642334 4 42.415441513062 889.30120316532
32792	2781018 7782 22118 28449 189.25 254 260 0 16.309055328369 2207.2766637802 31598.871574599
32791	2788800 9108 22091 28449 189 254 261 184.17810058594 486.85000610352 111156.75830078 49416964.688023
32790	2797908 9131 22091 28449 189 254 261 235.72137451172 486.85000610352 119087.38922119 55425048.979719
vector 32923  IntersectionExampleScenario.node[86].veinsmobility  posx  ETV
vector 32924  IntersectionExampleScenario.node[86].veinsmobility  posy  ETV
vector 32925  IntersectionExampleScenario.node[86].veinsmobility  speed  ETV
vector 32930  IntersectionExampleScenario.node[87].veinsmobility  posx  ETV
vector 32931  IntersectionExampleScenario.node[87].veinsmobility  posy  ETV
vector 32926  IntersectionExampleScenario.node[86].veinsmobility  acceleration  ETV
vector 32927  IntersectionExampleScenario.node[86].veinsmobility  co2emission  ETV
vector 32932  IntersectionExampleScenario.node[87].veinsmobility  speed  ETV
vector 32933  IntersectionExampleScenario.node[87].veinsmobility  acceleration  ETV
vector 32934  IntersectionExampleScenario.node[87].veinsmobility  co2emission  ETV
32822	2807841 7672 22956 28588 196.75 255.75 237 0.97223939240464 11.648172402475 601.73518271882 2954.7275351999
32821	2815513 8030 22956 28588 196.75 255.75 237 -3.8299269676208 2.5000002384186 38.680875778198 351.87378713576
32820	2823543 8188 22925 28588 196.5 255.75 238 0 15.64999961853 2217.826539211 30047.610802299
32819	2831731 8318 22894 28588 196.25 255.75 239 184.17810058594 733.82197570801 108081.50946045 53030831.517112
32818	2840049 8367 22894 28588 196.25 255.75 239 486.85000610352 486.85000610352 116357.15145874 56648479.897875
32836	2848416 7307 23563 28819 201.75 258.5 228 0.973 11.648172402475 584.95465254827 2908.4284756296
32835	2855723 7556 23563 28819 201.75 258.5 228 -3.9076545238495 2.5000019073486 38.341367721558 352.78958675916
32834	2863279 7715 23530 28819 201.5 258.5 229 0 15.64999961853 2202.2285011485 28477.815673733
32833	2870994 8011 23497 28819 201.25 258.5 230 184.17810058594 486.85940551758 94819.485290527 40996436.732082
32832	2879005 8035 23497 28819 201.25 258.5 230 238.01708984375 486.85000610352 103644.28512573 47784128.160334
vector 32937  IntersectionExampleScenario.node[88].veinsmobility  posx  ETV
vector 32938  IntersectionExampleScenario.node[88].veinsmobility  posy  ETV
32829	2887194 7435 23497 29024 201.25 261 240 0.973 11.90022389248 622.22140992329 3142.3057626542
32828	2894629 6813 23497 29024 201.25 261 240 -7.2641463279724 4 39.699392318726 488.74823969018
32827	2901442 7113 23466 29024 201 261 241 0 16 2217.2995821238 32035.833704362
32826	2908555 8469 23435 29024 200.75 261 242 483.14999389648 483.14999389648 116922.29852295 56491007.817726
32825	2917024 8439 23435 29024 200.75 261 242 184.17810058594 734.53973388672 110550.59475708 54636553.663244
vector 32939  IntersectionExampleScenario.node[88].veinsmobility  speed  ETV
vector 32940  IntersectionExampleScenario.node[88].veinsmobility  acceleration  ETV
vector 32941  IntersectionExampleScenario.node[88].veinsmobility  co2emission  ETV
32850	2925710 7849 23863 29185 204 263 237 0.973 11.648172402475 626.93653088345 3126.120919911
32849	2933559 7807 23863 29185 204 263 237 -4.5 2.5 39.869146347046 444.79308764847
32848	2941366 8097 23828 29185 203.75 263 238 0 16.076528549194 2277.5302753011 32577.411061104
32847	2949463 8364 23793 29185 203.5 263 239 483.14999389648 483.14999389648 115472.84854126 55790706.067919
32846	2957827 8335 23793 29185 203.5 263 239 169.95465087891 734.53379821777 107366.4256897 52674430.481197
vector 32944  IntersectionExampleScenario.node[89].veinsmobility  posx  ETV
vector 32945  IntersectionExampleScenario.node[89].veinsmobility  posy  ETV
vector 32946  IntersectionExampleScenario.node[89].veinsmobility  speed  ETV
vector 32947  IntersectionExampleScenario.node[89].veinsmobility  acceleration  ETV
vector 32948  IntersectionExampleScenario.node[89].veinsmobility  co2emission  ETV
32857	2966563 6947 24735 29381 211 265.5 219 0.973 11.810082123732 586.34229203107 3066.3039832035
32856	2973510 7224 24735 29381 211 265.5 219 -3.7692880630493 2.5000004768372 39.869146347046 343.85048980649
32855	2980734 7369 24706 29381 210.75 265.5 220 0 15.875 2176.5783159137 28677.716118456
32854	2988103 7727 24676 29381 210.5 265.5 221 238.88623046875 483.14999389648 98903.920135498 45258256.014926
32853	2995830 7701 24676 29381 210.5 265.5 221 184.17810058594 483.14999389648 90791.223144531 39151199.642243
vector 32951  IntersectionExampleScenario.node[90].veinsmobility  posx  ETV
vector 32952  IntersectionExampleScenario.node[90].veinsmobility  posy  ETV
vector 32953  IntersectionExampleScenario.node[90].veinsmobility  speed  ETV
vector 32954  IntersectionExampleScenario.node[90].veinsmobility  acceleration  ETV
vector 32955  IntersectionExampleScenario.node[90].veinsmobility  co2emission  ETV
vector 32958  IntersectionExampleScenario.node[91].veinsmobility  posx  ETV
vector 32959  IntersectionExampleScenario.node[91].veinsmobility  posy  ETV
vector 32960  IntersectionExampleScenario.node[91].veinsmobility  speed  ETV
vector 32961  IntersectionExampleScenario.node[91].veinsmobility  acceleration  ETV
vector 32962  IntersectionExampleScenario.node[91].veinsmobility  co2emission  ETV
vector 32965  IntersectionExampleScenario.node[92].veinsmobility  posx  ETV
vector 32966  IntersectionExampleScenario.node[92].veinsmobility  posy  ETV
vector 32967  IntersectionExampleScenario.node[92].veinsmobility  speed  ETV
vector 32968  IntersectionExampleScenario.node[92].veinsmobility  acceleration  ETV
vector 32969  IntersectionExampleScenario.node[92].veinsmobility  co2emission  ETV
vector 32972  IntersectionExampleScenario.node[93].veinsmobility  posx  ETV
vector 32973  IntersectionExampleScenario.node[93].veinsmobility  posy  ETV
vector 32974  IntersectionExampleScenario.node[93].veinsmobility  speed  ETV
vector 32975  IntersectionExampleScenario.node[93].veinsmobility  acceleration  ETV
vector 32976  IntersectionExampleScenario.node[93].veinsmobility  co2emission  ETV
vector 32979  IntersectionExampleScenario.node[94].veinsmobility  posx  ETV
[...]
36430	25378309 15393 217193 234340 1684.75 1789 418 486.84991455078 734.86784362793 211589.96400452 108281442.89047
vector 36717  IntersectionExampleScenario.node[628].veinsmobility  posx  ETV
vector 36718  IntersectionExampleScenario.node[628].veinsmobility  posy  ETV
vector 36719  IntersectionExampleScenario.node[628].veinsmobility  speed  ETV
vector 36720  IntersectionExampleScenario.node[628].veinsmobility  acceleration  ETV
vector 36721  IntersectionExampleScenario.node[628].veinsmobility  co2emission  ETV
36455	25394108 13549 218012 234920 1690.75 1792 406 0.973 11.648172402475 797.12359608005 3217.119044639
36454	25407657 14090 218012 234920 1690.75 1792 406 -3.9341125488281 2.5 38.341367721558 584.82330580416
36453	25421747 14142 217977 234920 1690.5 1792 407 0 15.64999961853 2185.6613671575 25011.161574876
36452	25435889 15042 217941 234920 1690.25 1792 408 184.17810058594 483.18621826172 171242.51867676 74026677.098761
36451	25450931 15091 217941 234920 1690.25 1792 408 486.84994506836 733.7798614502 206868.86593628 106073275.60775
36462	25466022 12403 219317 235296 1700.5 1794 375 0.973 11.648172402475 737.4987859772 3117.455576362
36461	25478425 13297 219317 235296 1700.5 1794 375 -4.5 2.5000009536743 38.171613693237 494.25241177702
36460	25491722 13363 219284 235296 1700.25 1794 376 0 15.64999961853 2216.1510843839 26799.081344252
36459	25505085 13873 219251 235296 1700 1794 377 184.17810058594 733.73741149902 166045.65072632 77470051.629177
36458	25518958 13947 219251 235296 1700 1794 377 486.84994506836 486.85000610352 183542.4520874 89357643.815004
vector 36724  IntersectionExampleScenario.node[629].veinsmobility  posx  ETV
vector 36725  IntersectionExampleScenario.node[629].veinsmobility  posy  ETV
vector 36726  IntersectionExampleScenario.node[629].veinsmobility  speed  ETV
vector 36731  IntersectionExampleScenario.node[630].veinsmobility  posx  ETV
vector 36732  IntersectionExampleScenario.node[630].veinsmobility  posy  ETV
vector 36727  IntersectionExampleScenario.node[629].veinsmobility  acceleration  ETV
vector 36728  IntersectionExampleScenario.node[629].veinsmobility  co2emission  ETV
vector 36733  IntersectionExampleScenario.node[630].veinsmobility  speed  ETV
vector 36734  IntersectionExampleScenario.node[630].veinsmobility  acceleration  ETV
vector 36735  IntersectionExampleScenario.node[630].veinsmobility  co2emission  ETV
36553	25533717 7744 224616 235889 1738.75 1797 234 0.973 11.810082123732 624.11334842156 3206.782550217
36552	25541461 7057 224616 235889 1738.75 1797 234 -7.4987864494324 4 39.869146347046 500.82373659301
36551	25548518 7401 224577 235889 1738.5 1797 235 0 15.875 2182.297282815 31247.186915405
36550	25555919 8663 224538 235889 1738.25 1797 236 235.62799072266 483.14999389648 105948.63839722 48615176.914857
36549	25564582 8709 224538 235889 1738.25 1797 236 184.17810058594 483.36395263672 99454.509979248 43919387.708661
36560	25573291 8064 224816 236080 1740 1798 233 0.973 11.648172402475 626.28668398935 3058.9694975154
36559	25581355 7735 224816 236080 1740 1798 233 -4.5 2.5 40.038900375366 463.83548228788
36558	25589090 8064 224774 236080 1739.75 1798 234 0 15.720922470093 2305.3706002468 33178.432828356
36557	25597154 8694 224733 236080 1739.5 1798 235 483.14999389648 483.14999389648 113540.24856567 54856970.40151
36556	25605848 8660 224733 236080 1739.5 1798 235 162.90466308594 734.17488098145 104920.70152283 51439834.928554
vector 36738  IntersectionExampleScenario.node[631].veinsmobility  posx  ETV
vector 36739  IntersectionExampleScenario.node[631].veinsmobility  posy  ETV
vector 36740  IntersectionExampleScenario.node[631].veinsmobility  speed  ETV
vector 36741  IntersectionExampleScenario.node[631].veinsmobility  acceleration  ETV
vector 36742  IntersectionExampleScenario.node[631].veinsmobility  co2emission  ETV
36490	25614914 10903 221104 236458 1713.5 1800 347 0.973 12.099024792222 559.25492520628 2018.9663036872
36489	25625817 11465 221104 236458 1713.5 1800 347 -19.659515380859 2.500000089407 -22.60000038147 812.47475198598
36488	25637282 11614 221069 236458 1713.25 1800 348 0 16.27499961853 1149.1008074842 11845.877994015
36487	25648896 12851 221034 236458 1713 1800 349 184.17810058594 471.60000610352 145049.67205811 62138615.24025
36486	25661747 12911 221034 236458 1713 1800 349 486.85000610352 486.85003662109 169910.65219116 82721002.086035
36497	25674658 11215 221178 236458 1714 1800 345 0.973 11.887396232335 568.41134084891 1940.7192857031
36496	25685873 11953 221178 236458 1714 1800 345 -4.5 2.5 -22.60000038147 581.14662279275
36495	25697826 11949 221141 236458 1713.75 1800 346 0 15.982223510742 1215.0968163507 12510.261909105
36494	25709775 12793 221104 236458 1713.5 1800 347 160.43438720703 465.20043945312 139951.31289673 58612647.90394
36493	25722568 12838 221104 236458 1713.5 1800 347 486.85000610352 486.85006713867 168936.95227051 82246956.318294
36504	25735406 11228 221674 236458 1717.5 1800 331 0.973 11.200708441096 509.94131567747 1566.4065503261
36503	25746634 12129 221674 236458 1717.5 1800 331 -4.5 2.5000000596046 -22.388786330819 458.71624435921
36502	25758763 12079 221639 236458 1717.25 1800 332 0 15.02499961853 1183.9396804161 11619.190908043
36501	25770842 12293 221604 236458 1717 1800 333 162.31317138672 458.58258056641 132048.71484375 54332808.375916
36500	25783135 12319 221604 236458 1717 1800 333 486.84994506836 486.85003662109 162121.050354 78928633.537194
36511	25795454 10495 222311 236458 1722.25 1800 312 0.973 11.200708441096 482.563524783 1516.1075287611
36510	25805949 11252 222311 236458 1722.25 1800 312 -4.5 4 -21.442643284798 527.1568546116
36509	25817201 11208 222278 236458 1722 1800 313 0 15.02499961853 1110.2559589967 10687.739338251
36508	25828409 11484 222245 236458 1721.75 1800 314 172.61352539062 450.49758911133 122756.22021484 49642920.809376
36507	25839893 11616 222245 236458 1721.75 1800 314 486.84973144531 486.85000610352 152870.90008545 74425197.748202
36546	25851509 8771 223983 236458 1734.5 1800 263 0.973 12.099024792222 443.40239221438 1774.8674397134
36545	25860280 9750 223983 236458 1734.5 1800 263 -4.5 2.5 -19.693249940872 337.37073940553
36544	25870030 9698 223946 236458 1734.25 1800 264 0 16.27499961853 1023.338827081 10611.547065963
36543	25879728 9733 223909 236458 1734 1800 265 184.17810058594 440.13372802734 102468.54663086 40904892.220457
36542	25889461 9803 223909 236458 1734 1800 265 486.85000610352 486.85009765625 129015.25268555 62811077.077417
36574	25899264 7133 225584 236458 1744.75 1800 222 0.973 11.200708441096 365.29639831775 1372.0936101594
36573	25906397 8117 225584 236458 1744.75 1800 222 -4.5 2.5 -22.60000038147 307.71316603671
36572	25914514 8001 225544 236458 1744.5 1800 223 0 15.02499961853 990.62199033424 10522.601332503
36571	25922515 8227 225503 236458 1744.25 1800 224 184.17810058594 432.03860473633 84315.821777344 32892918.639638
36570	25930742 8288 225503 236458 1744.25 1800 224 486.85000610352 486.85006713867 109054.40274048 53093137.308404
36581	25939030 7051 225783 236458 1746 1800 217 0.973 11.200708441096 398.54958940946 1525.8111223038
36580	25946081 7695 225783 236458 1746 1800 217 -10.685431003571 3.5436177253723 -21.106751084328 548.54081581402
36579	25953776 7727 225742 236458 1745.75 1800 218 -0.88590443134308 15.56920337677 1041.5343366154 12245.046889646
36578	25961503 8066 225701 236458 1745.5 1800 219 162.90466308594 423.94458007812 80170.765625 30666127.442704
36577	25969569 8102 225701 236458 1745.5 1800 219 486.85000610352 486.85000610352 106620.15133667 51908021.329015
36588	25977671 7272 225868 236458 1746.5 1800 215 0.96333723109819 12.099024792222 584.92119900416 3069.3823244898
36587	25984943 7547 225868 236458 1746.5 1800 215 -3.9259173870087 2.5 40.208654403687 351.68557590432
36586	25992490 7714 225826 236458 1746.25 1800 216 0 16.27499961853 2193.7292124033 29631.467188222
36585	26000204 8010 225783 236458 1746 1800 217 483.14999389648 729.71899414062 112799.40820312 59648212.103666
36584	26008214 7992 225783 236458 1746 1800 217 184.17810058594 486.87741088867 89383.045440674 38686453.213685
36595	26016206 6553 226036 236458 1747.5 1800 211 0.973 10.756497587458 499.34320158219 2574.1672077569
36594	26022759 6316 226036 236458 1747.5 1800 211 -7.4858350753784 4 33.275686264038 472.88958986682
36593	26029075 6383 225993 236458 1747.25 1800 212 0 14.39999961853 1423.912027359 17125.589573232
36592	26035458 7826 225950 236458 1747 1800 213 486.85000610352 545.06149291992 104292.7489624 51085826.006613
36591	26043284 7873 225950 236458 1747 1800 213 486.63604736328 785.82187652588 119831.29063416 69316489.753018
36602	26051157 6681 226126 236458 1748 1800 209 0.973 11.450879080643 538.04676600557 2714.3562275066
36601	26057838 6202 226126 236458 1748 1800 209 -4.5 2.5 38.89999961853 488.2819607905
36600	26064040 6381 226081 236458 1747.75 1800 210 0 15.375 1471.6155033708 18024.300640848
36599	26070421 7805 226036 236458 1747.5 1800 211 444.17575073242 486.85000610352 102387.07757568 49691704.711208
36598	26078226 7793 226036 236458 1747.5 1800 211 483.13372802734 809.56562805176 121360.176651 71999251.821483
36609	26086019 7062 226220 236458 1748.5 1800 207 0.973 11.810082123732 585.2665282716 3127.6112095605
36608	26093081 7312 226220 236458 1748.5 1800 207 -4.5 2.5 39.869150161743 454.99635896773
36607	26100393 7357 226173 236458 1748.25 1800 208 0 15.875 2075.7518274784 27034.971680658
36606	26107750 7727 226126 236458 1748 1800 209 282.21960449219 483.14999389648 95600.985992432 44306406.890022
36605	26115477 7674 226126 236458 1748 1800 209 166.078125 483.18545532227 83140.939483643 35104076.966746
36616	26123151 6359 227063 236458 1753.25 1800 188 0.973 11.200708441096 523.23345252218 2610.141114527
36615	26129510 6091 227063 236458 1753.25 1800 188 -8.4870567321777 4 37.15309715271 469.57592341496
36614	26135601 6266 227018 236458 1753 1800 189 0 15.02499961853 1872.6571381092 25694.832306592
36613	26141867 7017 226973 236458 1752.75 1800 190 321.28131103516 785.82187652588 103307.03618622 58942735.954397
36612	26148884 7029 226973 236458 1752.75 1800 190 483.14999389648 483.14999389648 91798.498840332 44352444.154413
36623	26155913 5129 227917 236458 1758 1800 169 0.973 11.200708441096 346.23172662025 1548.3360469651
36622	26161042 5356 227917 236458 1758 1800 169 -6.8153076171875 2.5 -22.60000038147 401.04058851577
36621	26166398 5564 227872 236458 1757.75 1800 170 0 15.02499961853 1147.7973022461 13191.71788076
36620	26171962 6326 227827 236458 1757.5 1800 171 483.14999389648 483.14999389648 82618.648956299 39917199.738971
36619	26178288 6298 227827 236458 1757.5 1800 171 184.17810058594 471.60000610352 66222.403839111 27167356.742278
36630	26184586 5238 228191 236458 1759.5 1800 163 0.973 12.553400930962 334.34732304924 1746.9018112838
36629	26189824 5882 228191 236458 1759.5 1800 163 -3.9441666603088 2.5 -21.540899753571 278.76074881838
36628	26195706 6044 228144 236458 1759.25 1800 164 0 16.89999961853 931.91890757531 10562.231905508
36627	26201750 6074 228097 236458 1759 1800 165 184.17810058594 417.58270263672 58924.405181885 21930318.845515
36626	26207824 6103 228097 236458 1759 1800 165 486.85000610352 486.85000610352 80330.25100708 39108783.193094
36637	26213927 5443 228289 236458 1760 1800 161 0.973 11.200708441096 340.92729994805 1446.3707312396
36636	26219370 5859 228289 236458 1760 1800 161 -4.5 2.5 -22.492779031396 318.49288592665
36635	26225229 5945 228240 236458 1759.75 1800 162 0 15.23908996582 1195.8238028549 14803.53635694
36634	26231174 6030 228191 236458 1759.5 1800 163 483.14999389648 483.14999389648 78753.449005127 38049728.406154
36633	26237204 5983 228191 236458 1759.5 1800 163 166.078125 465.16363525391 61059.582305908 24507973.72966
36644	26243187 5288 228440 236458 1760.75 1800 158 0.973 11.200708441096 319.20519371136 1379.3428839023
36643	26248475 5811 228440 236458 1760.75 1800 158 -4.5 2.5 -18.549696922302 288.885235824
36642	26254286 5841 228389 236458 1760.5 1800 159 0 15.02499961853 988.13042688929 10998.78076717
36641	26260127 5885 228338 236458 1760.25 1800 160 162.90466308594 410.48504638672 54328.611328125 19446996.249268
36640	26266012 5920 228338 236458 1760.25 1800 160 486.85000610352 486.85000610352 77896.000976562 37923668.550879
36651	26271932 5245 228648 236458 1761.75 1800 154 0.973 11.200708441096 461.73407862348 2530.6838848039
36650	26277177 5420 228648 236458 1761.75 1800 154 -3.0105323791504 2.5 35.795171737671 302.05848542187
36649	26282597 5437 228595 236458 1761.5 1800 155 3.2292008399963 15.02499961853 1712.5892925262 21277.297305172
36648	26288034 5763 228542 236458 1761.25 1800 156 486.85000610352 785.82187652588 91085.979682922 54752227.715844
36647	26293797 5755 228542 236458 1761.25 1800 156 354.82971191406 483.14999389648 72962.818267822 34291188.083367
36658	26299552 5102 228758 236458 1762.25 1800 152 0.973 10.756497587458 309.72212295407 1277.7634196869
36657	26304654 5658 228758 236458 1762.25 1800 152 -4.5 2.5 -21.804109215736 230.87543262415
36656	26310312 5621 228703 236458 1762 1800 153 0 14.39999961853 1194.1542822048 14275.675501692
36655	26315933 5697 228648 236458 1761.75 1800 154 483.14999389648 483.14999389648 74405.099060059 35948823.156735
36654	26321630 5655 228648 236458 1761.75 1800 154 158.2421875 456.81198120117 55131.417663574 21280752.155611
36665	26327285 4720 229147 236458 1764 1800 145 0.973 11.648172402475 352.65170833271 1701.2541587397
36664	26332005 5078 229147 236458 1764 1800 145 -3.8675956726074 2.5000009536743 8.3999996185303 277.18181551021
36663	26337083 5200 229090 236458 1763.75 1800 146 0 15.64999961853 1237.6081973687 14749.252628418
36662	26342283 5437 229033 236458 1763.5 1800 147 486.85000610352 499.11883544922 71622.791412354 34897192.746353
36661	26347720 5426 229033 236458 1763.5 1800 147 486.82769775391 785.82187652588 87160.392662048 53010743.468057
36672	26353146 4205 230126 236458 1768.5 1800 127 0.973 11.200708441096 311.9369519939 1461.3088576508
36671	26357351 4640 230126 236458 1768.5 1800 127 -4.0441093444824 2.5 5.3999996185303 260.58977378168
36670	26361991 4668 230072 236458 1768.25 1800 128 2.5105590820312 15.02499961853 1166.0643901825 13496.63093426
36669	26366659 4771 230017 236458 1768 1800 129 486.85000610352 487.17559814453 62804.051940918 30576348.484096
36668	26371430 4752 230017 236458 1768 1800 129 496.42202758789 785.82187652588 78846.851905823 49274456.861634
36679	26376182 3956 230553 236458 1770.5 1800 119 0.973 11.200708441096 315.96404043559 1535.8013977922
36678	26380138 4284 230553 236458 1770.5 1800 119 -4.5 2.5 8.1463928222656 259.5223493652
36677	26384422 4418 230499 236458 1770.25 1800 120 2.3528451919556 15.590544700623 1177.7452964783 14510.719221749
36676	26388840 4475 230444 236458 1770 1800 121 486.85000610352 486.85000610352 58908.850738525 28679774.341602
36675	26393315 4465 230444 236458 1770 1800 121 512.36804199219 803.92188262939 76048.683937073 48917267.687008
36686	26397780 3440 231135 236458 1773.25 1800 108 0.973 11.648172402475 262.39098690935 1561.3888334776
36685	26401220 3786 231135 236458 1773.25 1800 108 -3.2852373123169 2.5 -18.362528324127 221.46175683451
36684	26405006 4008 231082 236458 1773 1800 109 0 15.64999961853 875.53112581372 10182.758984373
36683	26409014 4043 231029 236458 1772.75 1800 110 184.17810058594 403.10903930664 35903.976287842 12332661.242147
36682	26413057 4069 231029 236458 1772.75 1800 110 486.85000610352 486.85000610352 53553.500671387 26072522.128729
36693	26417126 3178 231615 236458 1775.5 1800 99 0.97223939240464 11.648172402475 244.27398324988 1353.8560691432
36692	26420304 3511 231615 236458 1775.5 1800 99 -4.5 2.5 -17.199786663055 211.02072445524
36691	26423815 3682 231561 236458 1775.25 1800 100 1.3500534296036 15.64999961853 912.03234148026 10716.724682282
36690	26427497 3696 231506 236458 1775 1800 101 167.29217529297 395.43548583984 30891.122772217 10039469.278556
36689	26431193 3735 231506 236458 1775 1800 101 486.85000610352 486.85000610352 49171.850616455 23939315.772742
36700	26434928 2983 231937 236458 1777 1800 93 0.973 11.200708441096 231.5580622569 1225.7550851111
36699	26437911 3407 231937 236458 1777 1800 93 -1.7372207641602 2.5 -7.4296827316284 146.38651534912
36698	26441318 3460 231882 236458 1776.75 1800 94 3.7925794124603 15.02499961853 1015.9430754185 12339.187890925
36697	26444778 3514 231827 236458 1776.5 1800 95 483.14999389648 483.14999389648 45899.249420166 22176222.077206
36696	26448292 3492 231827 236458 1776.5 1800 95 184.17810058594 437.02554321289 30724.283508301 10597968.990402
36707	26451784 1969 233913 236458 1786.75 1800 54 0.973 11.648172402475 209.99101567248 1343.906464832
36706	26453753 1966 233913 236458 1786.75 1800 54 -0.49953460693359 2.5 38.001893997192 100.57035722254
36705	26455719 2019 233865 236458 1786.5 1800 55 5.6500000953674 15.64999961853 758.2662191391 10855.676196923
36704	26457738 2072 233816 236458 1786.25 1800 56 486.85000610352 486.85000610352 27263.600341797 13273283.992808
36703	26459810 2069 233816 236458 1786.25 1800 56 601.3447265625 785.82187652588 39372.545082092 27868937.22686
36714	26461879 1658 234340 236458 1789 1800 45 0.97223939240464 11.648172402475 192.70441123611 1309.1961554728
36713	26463537 1585 234340 236458 1789 1800 45 -0.32978057861328 2.5 38.681180953979 100.2485760758
36712	26465122 1687 234291 236458 1788.75 1800 46 5.6500000953674 15.64999961853 626.3254032135 8924.5665428597
36711	26466809 1738 234242 236458 1788.5 1800 47 634.38134765625 785.82187652588 33810.23815155 24429023.840769
36710	26468547 1738 234242 236458 1788.5 1800 47 483.14999389648 483.14999389648 22708.049713135 10971394.080302
36721	26470285 1543 234488 236458 1789.75 1800 42 1.4469060381571 11.648172402475 196.72231541979 1344.7613291712
36720	26471828 1446 234488 236458 1789.75 1800 42 -0.20923233032227 2.5 41.018495559692 100.44338781199
36719	26473274 1580 234439 236458 1789.5 1800 43 5.6500000953674 16.001356124878 595.53246307373 8695.178465141
36718	26474854 1628 234389 236458 1789.25 1800 44 486.85000610352 486.85000610352 21421.400268555 10429008.851492
36717	26476482 1625 234389 236458 1789.25 1800 44 655.04043579102 798.59687805176 32414.664299011 23970155.512992
36728	26478107 800 235441 236458 1794.75 1800 22 0.973 11.200708441096 132.91680679353 1069.0843851058
36727	26478907 661 235441 236458 1794.75 1800 22 -0.38379669189453 2.5 36.16974067688 94.080674525921
36726	26479568 840 235392 236458 1794.5 1800 23 5.6500000953674 15.02499961853 268.8861207962 3372.5898615734
36725	26480408 888 235343 236458 1794.25 1800 24 723.50482177734 785.82187652588 18253.434257507 13892144.061462
36724	26481296 888 235343 236458 1794.25 1800 24 483.14999389648 483.14999389648 11595.599853516 5602413.9984521
36735	26482184 737 235543 236458 1795.25 1800 20 1.6778656626784 11.200708441096 131.88326330746 1070.4624212691
36734	26482921 586 235543 236458 1795.25 1800 20 -0.12916564941406 2.5 37.105939865112 93.78597744802
36733	26483507 766 235492 236458 1795 1800 21 5.6500000953674 15.02499961853 240.17470741272 2960.8891717788
36732	26484273 795 235441 236458 1794.75 1800 22 184.17810058594 239.24426269531 4537.4882202148 942472.65306529
36731	26485068 813 235441 236458 1794.75 1800 22 486.85000610352 486.85000610352 10710.700134277 5214504.4257459
36742	26485881 35 236458 236458 1800 1800 1 5.2162187258585 5.2162187258585 5.2162187258585 27.208937795997
36741	26485916 23 236458 236458 1800 1800 1 2.5 2.5 2.5 6.25
36740	26485939 73 236410 236458 1799.75 1800 2 5.6500000953674 6.2750000953674 11.925000190735 71.298127274513
36739	26486012 110 236362 236458 1799.5 1800 3 486.85000610352 486.85000610352 1460.5500183105 711068.78532898
36738	26486122 110 236362 236458 1799.5 1800 3 784.48750305176 785.82187652588 2356.1312561035 1850452.6856977
32317	26486232 640 0 236457 0 1800 31 0 34 649 14999
32318	26486872 656 0 236457 0 1800 31 0 277 3833 675133
