file 23748607 1591396577                                        
version 2
run nodebug-5-20200605-18:32:25-18076
attr configname nodebug
attr datetime 20200605-18:32:25
attr experiment nodebug
attr inifile omnetpp.ini
attr iterationvars ""
attr iterationvars2 $repetition=5
attr measurement ""
attr network "\"org.car2x.veins.modules.application.ExtTraCIScenarioManagerLaunchd.IntersectionExampleScenario\""
attr processid 18076
attr repetition 5
attr replication #5
attr resultdir results
attr runnumber 5
attr seedset 5
param **.coreDebug false
param **.debug false
param *.**.nic.mac1609_4.bitrate 18Mbps
param *.**.nic.mac1609_4.txPower 20mW
param *.**.nic.mac1609_4.useServiceChannel false
param *.**.nic.phy80211p.analogueModels "xmldoc(\"config.xml\")"
param *.**.nic.phy80211p.decider "xmldoc(\"config.xml\")"
param *.**.nic.phy80211p.sensitivity -89dBm
param *.**.nic.phy80211p.thermalNoise -110dBm
param *.**.nic.phy80211p.usePropagationDelay true
param *.**.nic.phy80211p.useThermalNoise true
param *.annotations.draw false
param *.connectionManager.alpha 2.0
param *.connectionManager.carrierFrequency "5.890e9 Hz"
param *.connectionManager.pMax 20mW
param *.connectionManager.sat -89dBm
param *.connectionManager.sendDirect true
param *.manager.autoShutdown true
param *.manager.host "\"localhost\""
param *.manager.launchConfig "xmldoc(\"paramics.launchd.xml\")"
param *.manager.margin 25
param *.manager.moduleDisplayString "\"\""
param *.manager.moduleName "\"node\""
param *.manager.moduleType "\"org.car2x.veins.nodes.Car\""
param *.manager.port 9999
param *.manager.updateInterval 250ms
param *.node[*0].veinsmobility.accidentCount 0
param *.node[*0].veinsmobility.accidentDuration 30s
param *.node[*0].veinsmobility.accidentStart 75s
param *.node[*].appl.LiderSelectZoneRadio 55.0
param *.node[*].appl.ShareDataZoneRadio 110.0
param *.node[*].appl.TiempoSemaforo 30.0
param *.node[*].appl.beaconInterval 1s
param *.node[*].appl.beaconPriority 3
param *.node[*].appl.dataOnSch false
param *.node[*].appl.dataPriority 2
param *.node[*].appl.debug false
param *.node[*].appl.headerLength "256 bit"
param *.node[*].appl.maxOffset 0.005s
param *.node[*].appl.sendBeacons false
param *.node[*].appl.sendData true
param *.node[*].applType "\"Dummy\""
param *.node[*].mobilityType "\"TraCIMobility\""
param *.node[*].mobilityType.debug true
param *.node[*].veinsmobility.x 0
param *.node[*].veinsmobility.y 0
param *.node[*].veinsmobility.z 1.895
param *.node[*].veinsmobilityType "\"org.car2x.veins.modules.mobility.traci.TraCIMobility\""
param *.node[*].veinsmobilityType.debug true
param *.playgroundSizeX 8500m
param *.playgroundSizeY 8500m
param *.playgroundSizeZ 50m
param *.world.use2D false
param *.world.useTorus false

vector 13989  IntersectionExampleScenario.manager  vehiclesinsim  ETV
attr type  int
vector 13990  IntersectionExampleScenario.manager  realtime  ETV
attr type  int
attr unit  s
vector 13993  IntersectionExampleScenario.node[0].veinsmobility  posx  ETV
vector 13994  IntersectionExampleScenario.node[0].veinsmobility  posy  ETV
vector 14000  IntersectionExampleScenario.node[1].veinsmobility  posx  ETV
vector 14001  IntersectionExampleScenario.node[1].veinsmobility  posy  ETV
vector 13995  IntersectionExampleScenario.node[0].veinsmobility  speed  ETV
vector 13996  IntersectionExampleScenario.node[0].veinsmobility  acceleration  ETV
vector 13997  IntersectionExampleScenario.node[0].veinsmobility  co2emission  ETV
vector 14002  IntersectionExampleScenario.node[1].veinsmobility  speed  ETV
vector 14003  IntersectionExampleScenario.node[1].veinsmobility  acceleration  ETV
vector 14004  IntersectionExampleScenario.node[1].veinsmobility  co2emission  ETV
vector 14007  IntersectionExampleScenario.node[2].veinsmobility  posx  ETV
vector 14008  IntersectionExampleScenario.node[2].veinsmobility  posy  ETV
vector 14009  IntersectionExampleScenario.node[2].veinsmobility  speed  ETV
vector 14010  IntersectionExampleScenario.node[2].veinsmobility  acceleration  ETV
vector 14011  IntersectionExampleScenario.node[2].veinsmobility  co2emission  ETV
vector 14014  IntersectionExampleScenario.node[3].veinsmobility  posx  ETV
vector 14015  IntersectionExampleScenario.node[3].veinsmobility  posy  ETV
vector 14016  IntersectionExampleScenario.node[3].veinsmobility  speed  ETV
vector 14021  IntersectionExampleScenario.node[4].veinsmobility  posx  ETV
vector 14022  IntersectionExampleScenario.node[4].veinsmobility  posy  ETV
vector 14017  IntersectionExampleScenario.node[3].veinsmobility  acceleration  ETV
vector 14018  IntersectionExampleScenario.node[3].veinsmobility  co2emission  ETV
vector 14023  IntersectionExampleScenario.node[4].veinsmobility  speed  ETV
vector 14024  IntersectionExampleScenario.node[4].veinsmobility  acceleration  ETV
vector 14025  IntersectionExampleScenario.node[4].veinsmobility  co2emission  ETV
vector 14028  IntersectionExampleScenario.node[5].veinsmobility  posx  ETV
vector 14029  IntersectionExampleScenario.node[5].veinsmobility  posy  ETV
vector 14030  IntersectionExampleScenario.node[5].veinsmobility  speed  ETV
vector 14031  IntersectionExampleScenario.node[5].veinsmobility  acceleration  ETV
vector 14032  IntersectionExampleScenario.node[5].veinsmobility  co2emission  ETV
vector 14035  IntersectionExampleScenario.node[6].veinsmobility  posx  ETV
vector 14036  IntersectionExampleScenario.node[6].veinsmobility  posy  ETV
vector 14037  IntersectionExampleScenario.node[6].veinsmobility  speed  ETV
vector 14038  IntersectionExampleScenario.node[6].veinsmobility  acceleration  ETV
vector 14039  IntersectionExampleScenario.node[6].veinsmobility  co2emission  ETV
vector 14042  IntersectionExampleScenario.node[7].veinsmobility  posx  ETV
vector 14043  IntersectionExampleScenario.node[7].veinsmobility  posy  ETV
vector 14044  IntersectionExampleScenario.node[7].veinsmobility  speed  ETV
vector 14045  IntersectionExampleScenario.node[7].veinsmobility  acceleration  ETV
vector 14046  IntersectionExampleScenario.node[7].veinsmobility  co2emission  ETV
vector 14049  IntersectionExampleScenario.node[8].veinsmobility  posx  ETV
vector 14050  IntersectionExampleScenario.node[8].veinsmobility  posy  ETV
vector 14051  IntersectionExampleScenario.node[8].veinsmobility  speed  ETV
vector 14052  IntersectionExampleScenario.node[8].veinsmobility  acceleration  ETV
vector 14053  IntersectionExampleScenario.node[8].veinsmobility  co2emission  ETV
vector 14056  IntersectionExampleScenario.node[9].veinsmobility  posx  ETV
vector 14057  IntersectionExampleScenario.node[9].veinsmobility  posy  ETV
vector 14058  IntersectionExampleScenario.node[9].veinsmobility  speed  ETV
vector 14059  IntersectionExampleScenario.node[9].veinsmobility  acceleration  ETV
vector 14060  IntersectionExampleScenario.node[9].veinsmobility  co2emission  ETV
vector 14063  IntersectionExampleScenario.node[10].veinsmobility  posx  ETV
vector 14064  IntersectionExampleScenario.node[10].veinsmobility  posy  ETV
vector 14065  IntersectionExampleScenario.node[10].veinsmobility  speed  ETV
vector 14066  IntersectionExampleScenario.node[10].veinsmobility  acceleration  ETV
vector 14067  IntersectionExampleScenario.node[10].veinsmobility  co2emission  ETV
vector 14070  IntersectionExampleScenario.node[11].veinsmobility  posx  ETV
vector 14071  IntersectionExampleScenario.node[11].veinsmobility  posy  ETV
vector 14072  IntersectionExampleScenario.node[11].veinsmobility  speed  ETV
vector 14073  IntersectionExampleScenario.node[11].veinsmobility  acceleration  ETV
vector 14074  IntersectionExampleScenario.node[11].veinsmobility  co2emission  ETV
vector 14077  IntersectionExampleScenario.node[12].veinsmobility  posx  ETV
vector 14078  IntersectionExampleScenario.node[12].veinsmobility  posy  ETV
vector 14079  IntersectionExampleScenario.node[12].veinsmobility  speed  ETV
vector 14084  IntersectionExampleScenario.node[13].veinsmobility  posx  ETV
vector 14085  IntersectionExampleScenario.node[13].veinsmobility  posy  ETV
vector 14080  IntersectionExampleScenario.node[12].veinsmobility  acceleration  ETV
vector 14081  IntersectionExampleScenario.node[12].veinsmobility  co2emission  ETV
vector 14086  IntersectionExampleScenario.node[13].veinsmobility  speed  ETV
vector 14087  IntersectionExampleScenario.node[13].veinsmobility  acceleration  ETV
vector 14088  IntersectionExampleScenario.node[13].veinsmobility  co2emission  ETV
vector 14091  IntersectionExampleScenario.node[14].veinsmobility  posx  ETV
vector 14092  IntersectionExampleScenario.node[14].veinsmobility  posy  ETV
vector 14093  IntersectionExampleScenario.node[14].veinsmobility  speed  ETV
vector 14094  IntersectionExampleScenario.node[14].veinsmobility  acceleration  ETV
vector 14095  IntersectionExampleScenario.node[14].veinsmobility  co2emission  ETV
14004	8895 5638 36 3245 6.25 52.5 186 0.973 11.450879080643 548.58064826173 2808.6531816787
14003	14533 5162 36 3245 6.25 52.5 186 -8.4870567321777 4 37.15309715271 481.82449572734
14002	19695 5551 31 3245 6 52.5 187 0 15.375 2210.4979660511 30840.215052249
14001	25246 6081 26 3245 5.75 52.5 188 486.85000610352 486.85000610352 91527.801147461 44560310.547283
14000	31327 6065 26 3245 5.75 52.5 188 236.75714111328 785.82187652588 97325.316520691 54597381.256897
14018	37392 5260 144 3321 10.75 53.25 171 0.93438186594183 12.26218747632 556.43150921235 3089.4631800186
14017	42652 5141 144 3321 10.75 53.25 171 -4.5 2.5 41.057416915894 415.07574284465
14016	47793 5265 135 3321 10.5 53.25 172 1.6922835111618 16.5 2179.417027235 31094.935608296
14015	53058 5633 126 3321 10.25 53.25 173 486.85000610352 731.77738952637 91998.135467529 49836616.580622
14014	58691 5627 126 3321 10.25 53.25 173 486.77032470703 785.82187652588 98184.365699768 57494832.418117
vector 14098  IntersectionExampleScenario.node[15].veinsmobility  posx  ETV
vector 14099  IntersectionExampleScenario.node[15].veinsmobility  posy  ETV
vector 14100  IntersectionExampleScenario.node[15].veinsmobility  speed  ETV
vector 14101  IntersectionExampleScenario.node[15].veinsmobility  acceleration  ETV
vector 14102  IntersectionExampleScenario.node[15].veinsmobility  co2emission  ETV
vector 14105  IntersectionExampleScenario.node[16].veinsmobility  posx  ETV
vector 14106  IntersectionExampleScenario.node[16].veinsmobility  posy  ETV
vector 14107  IntersectionExampleScenario.node[16].veinsmobility  speed  ETV
vector 14108  IntersectionExampleScenario.node[16].veinsmobility  acceleration  ETV
vector 14109  IntersectionExampleScenario.node[16].veinsmobility  co2emission  ETV
vector 14112  IntersectionExampleScenario.node[17].veinsmobility  posx  ETV
vector 14113  IntersectionExampleScenario.node[17].veinsmobility  posy  ETV
vector 14114  IntersectionExampleScenario.node[17].veinsmobility  speed  ETV
vector 14115  IntersectionExampleScenario.node[17].veinsmobility  acceleration  ETV
vector 14116  IntersectionExampleScenario.node[17].veinsmobility  co2emission  ETV
vector 14119  IntersectionExampleScenario.node[18].veinsmobility  posx  ETV
vector 14120  IntersectionExampleScenario.node[18].veinsmobility  posy  ETV
vector 14121  IntersectionExampleScenario.node[18].veinsmobility  speed  ETV
vector 14122  IntersectionExampleScenario.node[18].veinsmobility  acceleration  ETV
vector 14123  IntersectionExampleScenario.node[18].veinsmobility  co2emission  ETV
vector 14126  IntersectionExampleScenario.node[19].veinsmobility  posx  ETV
vector 14127  IntersectionExampleScenario.node[19].veinsmobility  posy  ETV
vector 14133  IntersectionExampleScenario.node[20].veinsmobility  posx  ETV
vector 14134  IntersectionExampleScenario.node[20].veinsmobility  posy  ETV
vector 14128  IntersectionExampleScenario.node[19].veinsmobility  speed  ETV
vector 14129  IntersectionExampleScenario.node[19].veinsmobility  acceleration  ETV
vector 14130  IntersectionExampleScenario.node[19].veinsmobility  co2emission  ETV
vector 14135  IntersectionExampleScenario.node[20].veinsmobility  speed  ETV
vector 14136  IntersectionExampleScenario.node[20].veinsmobility  acceleration  ETV
vector 14137  IntersectionExampleScenario.node[20].veinsmobility  co2emission  ETV
vector 14140  IntersectionExampleScenario.node[21].veinsmobility  posx  ETV
vector 14141  IntersectionExampleScenario.node[21].veinsmobility  posy  ETV
vector 14142  IntersectionExampleScenario.node[21].veinsmobility  speed  ETV
vector 14143  IntersectionExampleScenario.node[21].veinsmobility  acceleration  ETV
vector 14144  IntersectionExampleScenario.node[21].veinsmobility  co2emission  ETV
13997	67125 6992 31 4792 6 68.25 250 0.973 12.553400930962 657.97005424323 3550.9669085698
13996	74117 6274 31 4792 6 68.25 250 -29.875473022461 4 42.924703598022 1281.4290467184
13995	80391 6476 26 4792 5.75 68.25 251 0 16.89999961853 2169.9461545944 32699.802328084
13994	86867 8120 23 4792 5.5 68.25 252 238.4462890625 483.14999389648 114198.03076172 52749534.240855
13993	94987 8165 23 4792 5.5 68.25 252 184.17810058594 483.36395263672 107386.79217529 47777539.250942
14011	103152 7458 105 5089 9.5 71 247 0.973 11.200708441096 594.46380145671 2700.8580255602
14010	110610 7730 105 5089 9.5 71 247 -3.6928052902222 2.5000009536743 35.795072555542 337.06343767655
14009	118340 7952 98 5089 9.25 71 248 0 15.02499961853 2258.7052550372 29621.068104803
14008	126292 8131 91 5089 9 71 249 483.14999389648 483.14999389648 120304.34848022 58125045.233941
14007	134423 8088 91 5089 9 71 249 174.53436279297 734.6512298584 112132.1083374 55040112.237842
14025	142511 7417 166 5224 11.25 72.25 245 0.973 11.90022389248 651.65911119504 3147.8798259801
14024	149928 7446 166 5224 11.25 72.25 245 -4.5 2.5 41.227170944214 490.6276300567
14023	157374 7740 155 5224 11 72.25 246 0 16 2305.4001980424 31876.780736252
14022	165114 8071 144 5224 10.75 72.25 247 483.14999389648 733.75044250488 127428.48851013 66824563.670642
14021	173185 8045 144 5224 10.75 72.25 247 160.12030029297 486.85000610352 101142.40823364 43765038.000541
14046	181230 5389 1136 5440 30.75 74.25 175 0.973 11.648172402475 548.58203885322 2925.2022340702
14045	186619 5401 1136 5440 30.75 74.25 175 -3.7422142028809 2.5000019073486 39.529638290405 309.3224577352
14044	192020 5583 1119 5440 30.5 74.25 176 5.236487865448 15.64999961853 2219.9432649612 30210.930904843
14043	197603 5842 1102 5440 30.25 74.25 177 483.14999389648 483.14999389648 85517.548919678 41317803.238584
14042	203445 5816 1102 5440 30.25 74.25 177 184.17810058594 733.80520629883 78901.808502197 39292422.47236
vector 14147  IntersectionExampleScenario.node[22].veinsmobility  posx  ETV
vector 14148  IntersectionExampleScenario.node[22].veinsmobility  posy  ETV
vector 14149  IntersectionExampleScenario.node[22].veinsmobility  speed  ETV
14032	209493 6926 511 5836 19 78 237 0.973 11.200708441096 586.02712800753 2696.048879421
14031	216419 6275 511 5836 19 78 237 -6.8640689849854 4 35.625318527222 447.68975026733
14030	222694 6639 498 5836 18.75 78 238 0 15.02499961853 2205.7956194878 30004.684011173
14029	229333 7839 485 5836 18.5 78 239 483.14999389648 785.82187652588 131175.51840973 74083732.035999
14028	237172 7843 485 5836 18.5 78 239 483.14999389648 734.37588500977 124334.0750885 65838229.628051
vector 14150  IntersectionExampleScenario.node[22].veinsmobility  acceleration  ETV
vector 14151  IntersectionExampleScenario.node[22].veinsmobility  co2emission  ETV
14060	245184 5590 1271 5889 32.5 78.5 185 0.973 11.648172402475 536.437567799 2868.090325936
14059	250774 5754 1271 5889 32.5 78.5 185 -2.0798950195312 2.5 37.662351608276 298.41317935743
14058	256528 5937 1250 5889 32.25 78.5 186 2.3936412334442 15.64999961853 2211.7059795856 29592.935723446
14057	262465 6152 1229 5889 32 78.5 187 237.99346923828 785.82187652588 97670.932289124 55167069.374912
14056	268617 6170 1229 5889 32 78.5 187 483.14999389648 483.14999389648 90349.048858643 43652142.404606
vector 14154  IntersectionExampleScenario.node[23].veinsmobility  posx  ETV
vector 14155  IntersectionExampleScenario.node[23].veinsmobility  posy  ETV
vector 14156  IntersectionExampleScenario.node[23].veinsmobility  speed  ETV
vector 14157  IntersectionExampleScenario.node[23].veinsmobility  acceleration  ETV
vector 14158  IntersectionExampleScenario.node[23].veinsmobility  co2emission  ETV
14067	275188 5857 1401 6125 34 80.75 188 0.94600815583079 12.26218747632 605.95700018489 3411.2629524079
14066	281045 5604 1401 6125 34 80.75 188 -4.5 2.5 41.566686630249 457.84048399089
14065	286649 5877 1378 6125 33.75 80.75 189 3.5505576133728 16.5 2267.2541584969 31193.673103328
14064	292526 6257 1355 6125 33.5 80.75 190 486.70150756836 806.11563110352 109238.28783417 64864601.650205
14063	298783 6264 1355 6125 33.5 80.75 190 236.77911376953 483.14999389648 83989.633300781 38082367.264016
vector 14161  IntersectionExampleScenario.node[24].veinsmobility  posx  ETV
vector 14162  IntersectionExampleScenario.node[24].veinsmobility  posy  ETV
vector 14163  IntersectionExampleScenario.node[24].veinsmobility  speed  ETV
vector 14164  IntersectionExampleScenario.node[24].veinsmobility  acceleration  ETV
vector 14165  IntersectionExampleScenario.node[24].veinsmobility  co2emission  ETV
vector 14168  IntersectionExampleScenario.node[25].veinsmobility  posx  ETV
vector 14169  IntersectionExampleScenario.node[25].veinsmobility  posy  ETV
vector 14170  IntersectionExampleScenario.node[25].veinsmobility  speed  ETV
vector 14171  IntersectionExampleScenario.node[25].veinsmobility  acceleration  ETV
vector 14172  IntersectionExampleScenario.node[25].veinsmobility  co2emission  ETV
vector 14175  IntersectionExampleScenario.node[26].veinsmobility  posx  ETV
vector 14176  IntersectionExampleScenario.node[26].veinsmobility  posy  ETV
vector 14177  IntersectionExampleScenario.node[26].veinsmobility  speed  ETV
vector 14182  IntersectionExampleScenario.node[27].veinsmobility  posx  ETV
vector 14183  IntersectionExampleScenario.node[27].veinsmobility  posy  ETV
vector 14178  IntersectionExampleScenario.node[26].veinsmobility  acceleration  ETV
vector 14179  IntersectionExampleScenario.node[26].veinsmobility  co2emission  ETV
vector 14184  IntersectionExampleScenario.node[27].veinsmobility  speed  ETV
vector 14185  IntersectionExampleScenario.node[27].veinsmobility  acceleration  ETV
vector 14186  IntersectionExampleScenario.node[27].veinsmobility  co2emission  ETV
14039	306651 7370 1087 7263 30 93.5 255 0.973 11.36141391502 614.65411845682 2835.5251915168
14038	314021 6471 1087 7263 30 93.5 255 -9.4506397247314 4 37.15309715271 541.12182189696
14037	320492 6901 1072 7263 29.75 93.5 256 0 15.25 2177.2266139984 30291.280534282
14036	327393 8462 1057 7263 29.5 93.5 257 184.17810058594 483.36395263672 109076.7651062 48380606.708692
14035	335855 8419 1057 7263 29.5 93.5 257 486.85000610352 733.15849304199 133457.79003906 70398693.737499
14081	344274 6666 1886 7332 39.25 94.25 221 0.97223939240464 11.648172402475 583.02038502075 2934.3340795378
14080	350940 6939 1886 7332 39.25 94.25 221 -3.8634693622589 2.5000002384186 38.680875778198 342.35878350372
14079	357879 7173 1863 7332 39 94.25 222 0 15.64999961853 2218.3940233085 29780.300454157
14078	365052 7321 1840 7332 38.75 94.25 223 184.17810058594 733.87245178223 100506.42755127 49454703.07146
14077	372373 7359 1840 7332 38.75 94.25 223 486.85000610352 486.85000610352 108567.55136108 52856113.042787
14095	379732 5726 2840 7524 48.75 96.5 192 0.973 12.099024792222 566.29216208469 3094.8407001549
14094	385458 5674 2840 7524 48.75 96.5 192 -4.2976989746094 2.5 40.038900375366 339.04261158231
14093	391132 6061 2813 7524 48.5 96.5 193 2.2713465690613 16.27499961853 2190.8504886627 28982.551782831
14092	397193 6375 2786 7524 48.25 96.5 194 184.17810058594 483.14999389648 78446.371856689 33500891.170982
14091	403568 6393 2786 7524 48.25 96.5 194 486.85000610352 734.5113067627 102518.881073 55166852.986686
vector 14189  IntersectionExampleScenario.node[28].veinsmobility  posx  ETV
vector 14190  IntersectionExampleScenario.node[28].veinsmobility  posy  ETV
vector 14191  IntersectionExampleScenario.node[28].veinsmobility  speed  ETV
14102	410193 5228 3495 7631 55 97.75 172 0.973 12.099024792222 546.07436884696 3170.0887970943
14101	415421 5165 3495 7631 55 97.75 172 -3.1722640991211 2.5 40.038900375366 312.24613418438
14100	420586 5475 3470 7631 54.75 97.75 173 5.3569178581238 16.27499961853 2223.3844985962 30639.851692942
14099	426061 5703 3445 7631 54.5 97.75 174 184.17810058594 734.97090148926 77428.97845459 38578191.73971
14098	431764 5743 3445 7631 54.5 97.75 174 486.85000610352 486.85000610352 84711.901062012 41241989.549081
vector 14192  IntersectionExampleScenario.node[28].veinsmobility  acceleration  ETV
vector 14193  IntersectionExampleScenario.node[28].veinsmobility  co2emission  ETV
vector 14196  IntersectionExampleScenario.node[29].veinsmobility  posx  ETV
vector 14197  IntersectionExampleScenario.node[29].veinsmobility  posy  ETV
vector 14198  IntersectionExampleScenario.node[29].veinsmobility  speed  ETV
vector 14203  IntersectionExampleScenario.node[30].veinsmobility  posx  ETV
vector 14204  IntersectionExampleScenario.node[30].veinsmobility  posy  ETV
vector 14199  IntersectionExampleScenario.node[29].veinsmobility  acceleration  ETV
vector 14200  IntersectionExampleScenario.node[29].veinsmobility  co2emission  ETV
vector 14205  IntersectionExampleScenario.node[30].veinsmobility  speed  ETV
vector 14206  IntersectionExampleScenario.node[30].veinsmobility  acceleration  ETV
vector 14207  IntersectionExampleScenario.node[30].veinsmobility  co2emission  ETV
14053	438478 8062 1191 8058 31.5 102.25 284 0.973 11.051075683587 644.12596013025 2801.54983008
14052	446540 7743 1191 8058 31.5 102.25 284 -9.3168268203735 4 34.267293930054 540.18561884432
14051	454283 7869 1172 8058 31.25 102.25 285 0 14.814969062805 2271.8385751247 28613.232250328
14050	462152 9379 1153 8058 31 102.25 286 235.92425537109 483.14999389648 129380.67892456 59707406.19827
14049	471531 9418 1153 8058 31 102.25 286 161.1796875 483.36395263672 119376.29953003 52486914.166388
vector 14210  IntersectionExampleScenario.node[31].veinsmobility  posx  ETV
vector 14211  IntersectionExampleScenario.node[31].veinsmobility  posy  ETV
vector 14212  IntersectionExampleScenario.node[31].veinsmobility  speed  ETV
vector 14213  IntersectionExampleScenario.node[31].veinsmobility  acceleration  ETV
vector 14214  IntersectionExampleScenario.node[31].veinsmobility  co2emission  ETV
14074	481350 8018 1520 8284 35.25 104.5 278 0.973 10.756497587458 616.11801563951 2580.8322586702
14073	489368 7686 1520 8284 35.25 104.5 278 -4.5 2.5 35.795072555542 384.76602489293
14072	497054 7862 1495 8284 35 104.5 279 0 14.663981437683 2265.8660069751 29043.600494776
14071	504916 9256 1470 8284 34.75 104.5 280 236.79669189453 483.14999389648 126747.62454224 58512531.831849
14070	514172 9246 1470 8284 34.75 104.5 280 163.55230712891 483.27041625977 116664.39199829 51086929.376454
14088	523418 8170 1936 8469 39.75 106.5 268 0.973 11.200708441096 628.16134712693 2773.3594915401
14087	531588 8483 1936 8469 39.75 106.5 268 -4.5 2.5000009536743 38.171613693237 402.36353075884
14086	540071 8433 1911 8469 39.5 106.5 269 0 15.24866771698 2231.4078903049 30143.781979022
14085	548504 8934 1886 8469 39.25 106.5 270 238.12286376953 483.14999389648 122319.43408203 56493562.674524
14084	557438 8912 1886 8469 39.25 106.5 270 171.28308105469 483.14999389648 112642.74859619 49208826.703912
14109	566350 6304 3673 8703 56.75 109.25 211 0.973 11.810082123732 582.10599323427 3034.9672560052
14108	572654 5926 3673 8703 56.75 109.25 211 -7.7750473022461 4 38.511121749878 481.76489070548
14107	578580 6075 3647 8703 56.5 109.25 212 0 15.875 2181.7101407051 30752.64095389
14106	584655 7057 3620 8703 56.25 109.25 213 486.63604736328 785.82187652588 118133.82880402 67471233.859716
14105	591712 6990 3620 8703 56.25 109.25 213 235.74822998047 483.14999389648 94682.754852295 43124108.003372
14137	598702 5515 4578 8799 66.25 110.5 178 0.97223939240464 11.648172402475 534.78446315035 2868.4807945651
14136	604217 5483 4578 8799 66.25 110.5 178 -2.1208915710449 2.5 38.680875778198 288.1909409949
14135	609700 5738 4553 8799 66 110.5 179 3.2559249401093 15.64999961853 2218.3129911423 30229.826888857
14134	615438 5976 4528 8799 65.75 110.5 180 236.54473876953 785.82187652588 94068.356330872 53297741.729454
14133	621414 5983 4528 8799 65.75 110.5 180 483.14999389648 483.14999389648 86966.998901367 42018104.988391
vector 14217  IntersectionExampleScenario.node[32].veinsmobility  posx  ETV
vector 14218  IntersectionExampleScenario.node[32].veinsmobility  posy  ETV
14116	627551 6895 3827 9188 58.25 116.25 233 0.97223939240464 11.648172402475 606.45776922157 2998.065404937
14115	634446 6215 3827 9188 58.25 116.25 233 -7.1630640029907 4 38.680875778198 475.21258299252
14114	640661 6603 3800 9188 58 116.25 234 0 15.64999961853 2217.0010960102 31576.666777073
14113	647264 7821 3773 9188 57.75 116.25 235 486.85000610352 486.85000610352 114409.75143433 55700388.184103
14112	655085 7809 3773 9188 57.75 116.25 235 235.46472167969 785.82187652588 120665.62491608 66136180.475275
vector 14219  IntersectionExampleScenario.node[32].veinsmobility  speed  ETV
vector 14220  IntersectionExampleScenario.node[32].veinsmobility  acceleration  ETV
vector 14221  IntersectionExampleScenario.node[32].veinsmobility  co2emission  ETV
vector 14224  IntersectionExampleScenario.node[33].veinsmobility  posx  ETV
vector 14225  IntersectionExampleScenario.node[33].veinsmobility  posy  ETV
vector 14226  IntersectionExampleScenario.node[33].veinsmobility  speed  ETV
vector 14227  IntersectionExampleScenario.node[33].veinsmobility  acceleration  ETV
vector 14228  IntersectionExampleScenario.node[33].veinsmobility  co2emission  ETV
vector 14231  IntersectionExampleScenario.node[34].veinsmobility  posx  ETV
vector 14232  IntersectionExampleScenario.node[34].veinsmobility  posy  ETV
vector 14233  IntersectionExampleScenario.node[34].veinsmobility  speed  ETV
vector 14234  IntersectionExampleScenario.node[34].veinsmobility  acceleration  ETV
vector 14235  IntersectionExampleScenario.node[34].veinsmobility  co2emission  ETV
14130	663943 6398 4553 9363 66 118.75 212 0.973 11.200708441096 557.75012956012 2718.2580629134
14129	670341 6865 4553 9363 66 118.75 212 -3.9242734909058 2.5000009536743 37.15309715271 315.16118509003
14128	677206 6974 4528 9363 65.75 118.75 213 0 15.367554664612 2216.2899345979 29177.237750719
14127	684180 7139 4505 9363 65.5 118.75 214 486.85000610352 486.85000610352 104185.90130615 50722906.6868
14126	691319 7124 4505 9363 65.5 118.75 214 236.38385009766 785.82187652588 111212.29409027 62019925.438098
14144	698443 6723 4657 9573 67 121.5 219 0.973 11.36141391502 589.4969451173 2870.4152886965
14143	705166 6731 4657 9573 67 121.5 219 -4.5 2.5 37.15309715271 442.11273504256
14142	711897 7030 4630 9573 66.75 121.5 220 1.6455991268158 15.25 2275.0415136814 29245.841819226
14141	718927 7375 4603 9573 66.5 121.5 221 486.85000610352 733.86735534668 115982.71514893 61927900.131836
14140	726302 7362 4603 9573 66.5 121.5 221 486.81704711914 807.99687957764 125821.55879211 73863959.950806
14151	733664 5552 5863 9706 78.25 123.25 181 0.973 12.014115303484 558.96259573467 3150.8918109726
14150	739216 5625 5863 9706 78.25 123.25 181 -2.4626541137695 2.5 39.869146347046 303.25285562962
14149	744841 5774 5836 9706 78 123.25 182 4.4077568054199 16.15765953064 2192.9103751183 29256.718846389
14148	750615 6113 5809 9706 77.75 123.25 183 486.85000610352 735.08331298828 97228.563720703 52635712.693657
14147	756728 6125 5809 9706 77.75 123.25 183 486.77688598633 785.82187652588 103956.95590973 60823559.426153
14123	762853 7271 4441 9910 64.75 126 246 0.973 11.200708441096 596.32557789325 2724.5762980993
14122	770124 6805 4441 9910 64.75 126 246 -7.7007970809937 4 35.795072555542 467.78426754766
14121	776929 6935 4418 9910 64.5 126 247 0 15.02499961853 2207.3959879875 30148.815959762
14120	783864 8266 4395 9910 64.25 126 248 184.17810058594 486.85000610352 104929.69503784 46505158.666642
14119	792130 8280 4395 9910 64.25 126 248 235.04376220703 486.85000610352 111861.3515625 51628661.961125
14165	800410 5414 6591 10050 85.75 128.25 171 0.973 11.810082123732 557.51755164125 3215.3460166319
14164	805824 5277 6591 10050 85.75 128.25 171 -2.9924030303955 2.5 39.699392318726 344.02220551112
14163	811101 5461 6568 10050 85.5 128.25 172 5.6500000953674 15.875 2191.0431852341 30026.590944799
14162	816562 5801 6545 10050 85.25 128.25 173 184.17810058594 483.25909423828 69188.143890381 29415549.964802
14161	822363 5819 6545 10050 85.25 128.25 173 486.85000610352 734.5399017334 92334.617935181 50234946.609203
vector 14238  IntersectionExampleScenario.node[35].veinsmobility  posx  ETV
vector 14239  IntersectionExampleScenario.node[35].veinsmobility  posy  ETV
vector 14245  IntersectionExampleScenario.node[36].veinsmobility  posx  ETV
vector 14246  IntersectionExampleScenario.node[36].veinsmobility  posy  ETV
vector 14240  IntersectionExampleScenario.node[35].veinsmobility  speed  ETV
vector 14241  IntersectionExampleScenario.node[35].veinsmobility  acceleration  ETV
vector 14242  IntersectionExampleScenario.node[35].veinsmobility  co2emission  ETV
vector 14247  IntersectionExampleScenario.node[36].veinsmobility  speed  ETV
vector 14248  IntersectionExampleScenario.node[36].veinsmobility  acceleration  ETV
vector 14249  IntersectionExampleScenario.node[36].veinsmobility  co2emission  ETV
14172	828984 5207 7040 10197 91 130.75 160 0.973 11.481705118545 516.41609238863 3001.5721974043
14171	834191 4813 7040 10197 91 130.75 160 -3.7402038574219 2.5 36.813589096069 269.07175055432
14170	839004 5218 7019 10197 90.75 130.75 161 5.6500000953674 15.418026924133 2216.0306596756 31093.031365732
14169	844222 5456 6998 10197 90.5 130.75 162 184.17810058594 733.06300354004 72553.624969482 36722482.69797
14168	849678 5485 6998 10197 90.5 130.75 162 486.85000610352 486.85000610352 78869.70098877 38397714.407765
14186	855163 5217 7217 10315 93 132.5 159 0.973 11.648172402475 514.30267089317 2825.3736154218
14185	860380 4921 7217 10315 93 132.5 159 -3.1321830749512 2.5 38.511121749878 284.1134507194
14184	865301 5249 7194 10315 92.75 132.5 160 5.6500000953674 15.64999961853 2220.9865856171 31866.452405817
14183	870550 5465 7170 10315 92.5 132.5 161 483.14999389648 483.14999389648 77787.149017334 37582860.57295
14182	876015 5428 7170 10315 92.5 132.5 161 184.17810058594 734.68663024902 72387.29876709 36709627.707418
vector 14252  IntersectionExampleScenario.node[37].veinsmobility  posx  ETV
vector 14253  IntersectionExampleScenario.node[37].veinsmobility  posy  ETV
vector 14254  IntersectionExampleScenario.node[37].veinsmobility  speed  ETV
vector 14255  IntersectionExampleScenario.node[37].veinsmobility  acceleration  ETV
vector 14256  IntersectionExampleScenario.node[37].veinsmobility  co2emission  ETV
vector 14259  IntersectionExampleScenario.node[38].veinsmobility  posx  ETV
vector 14260  IntersectionExampleScenario.node[38].veinsmobility  posy  ETV
vector 14261  IntersectionExampleScenario.node[38].veinsmobility  speed  ETV
vector 14262  IntersectionExampleScenario.node[38].veinsmobility  acceleration  ETV
vector 14263  IntersectionExampleScenario.node[38].veinsmobility  co2emission  ETV
vector 14266  IntersectionExampleScenario.node[39].veinsmobility  posx  ETV
vector 14267  IntersectionExampleScenario.node[39].veinsmobility  posy  ETV
vector 14268  IntersectionExampleScenario.node[39].veinsmobility  speed  ETV
vector 14269  IntersectionExampleScenario.node[39].veinsmobility  acceleration  ETV
vector 14270  IntersectionExampleScenario.node[39].veinsmobility  co2emission  ETV
14158	882646 7401 5968 10889 79.25 141.25 249 0.973 11.648172402475 619.21095261113 2983.4310222502
14157	890047 6714 5968 10889 79.25 141.25 249 -7.7750473022461 4 38.511121749878 476.5267975717
14156	896761 7033 5941 10889 79 141.25 250 0 15.64999961853 2201.8212580681 31157.430440079
14155	903794 8493 5914 10889 78.75 141.25 251 483.14999389648 785.82187652588 136823.90674591 76668875.62233
14154	912287 8496 5914 10889 78.75 141.25 251 483.14999389648 733.24354553223 129659.60366821 68095950.419422
14179	920783 6177 7170 10949 92.5 142.25 200 0.973 11.990504229548 568.03044393841 3042.4197970423
14178	926960 6514 7170 10949 92.5 142.25 200 -3.7650997638702 2.5000019073486 39.529638290405 349.41595541254
14177	933474 6669 7147 10949 92.25 142.25 201 0 16.125 2221.0538616478 30154.018597084
14176	940143 6879 7124 10949 92 142.25 202 235.61022949219 785.82187652588 105207.7673111 58920693.037066
14175	947022 6895 7124 10949 92 142.25 202 483.14999389648 483.14999389648 97596.29876709 47153651.153639
vector 14273  IntersectionExampleScenario.node[40].veinsmobility  posx  ETV
vector 14274  IntersectionExampleScenario.node[40].veinsmobility  posy  ETV
vector 14280  IntersectionExampleScenario.node[41].veinsmobility  posx  ETV
vector 14281  IntersectionExampleScenario.node[41].veinsmobility  posy  ETV
vector 14275  IntersectionExampleScenario.node[40].veinsmobility  speed  ETV
vector 14282  IntersectionExampleScenario.node[41].veinsmobility  speed  ETV
vector 14276  IntersectionExampleScenario.node[40].veinsmobility  acceleration  ETV
vector 14277  IntersectionExampleScenario.node[40].veinsmobility  co2emission  ETV
vector 14283  IntersectionExampleScenario.node[41].veinsmobility  acceleration  ETV
vector 14284  IntersectionExampleScenario.node[41].veinsmobility  co2emission  ETV
14200	954719 5665 7908 11145 100.75 145 178 0.973 11.810082123732 555.96739565313 3183.0556181605
14199	960384 5542 7908 11145 100.75 145 178 -3.3558292388916 2.5 38.850629806519 343.93184482323
14198	965926 5832 7885 11145 100.5 145 179 5.4530258178711 15.875 2177.9803628922 28776.259809501
14197	971758 6180 7861 11145 100.25 145 180 486.85000610352 785.82187652588 102671.28214264 60316599.923606
14196	977938 6170 7861 11145 100.25 145 180 238.55169677734 483.14999389648 78962.165863037 35584653.858545
14193	984108 6326 7654 11349 98 148 201 0.973 11.90022389248 582.98024356163 3081.488056711
14192	990434 5859 7654 11349 98 148 201 -7.2641291618347 4 39.699392318726 485.24806203163
14191	996293 6137 7631 11349 97.75 148 202 0 16 2204.2747706175 31714.977261645
14190	1002430 6974 7608 11349 97.5 148 203 236.35540771484 486.85000610352 90571.502655029 41451972.883434
14189	1009404 6968 7608 11349 97.5 148 203 483.14999389648 785.82187652588 112782.10840607 64606385.338817
vector 14287  IntersectionExampleScenario.node[42].veinsmobility  posx  ETV
vector 14288  IntersectionExampleScenario.node[42].veinsmobility  posy  ETV
vector 14289  IntersectionExampleScenario.node[42].veinsmobility  speed  ETV
vector 14290  IntersectionExampleScenario.node[42].veinsmobility  acceleration  ETV
vector 14291  IntersectionExampleScenario.node[42].veinsmobility  co2emission  ETV
14214	1016773 6011 8134 11478 103 149.75 188 0.973 11.810082123732 558.04176492822 3013.6811539328
14213	1022784 5993 8134 11478 103 149.75 188 -3.9245891571045 2.5000004768372 39.869146347046 379.06736522804
14212	1028777 6209 8109 11478 102.75 149.75 189 0 15.875 2192.7532857172 30436.892549992
14211	1034986 6539 8083 11478 102.5 149.75 190 486.85000610352 735.24229431152 100637.5927124 54297991.02345
14210	1041525 6536 8083 11478 102.5 149.75 190 486.85000610352 785.82187652588 106934.10637665 62006571.402271
vector 14294  IntersectionExampleScenario.node[43].veinsmobility  posx  ETV
vector 14295  IntersectionExampleScenario.node[43].veinsmobility  posy  ETV
vector 14296  IntersectionExampleScenario.node[43].veinsmobility  speed  ETV
vector 14301  IntersectionExampleScenario.node[44].veinsmobility  posx  ETV
vector 14302  IntersectionExampleScenario.node[44].veinsmobility  posy  ETV
vector 14297  IntersectionExampleScenario.node[43].veinsmobility  acceleration  ETV
vector 14298  IntersectionExampleScenario.node[43].veinsmobility  co2emission  ETV
vector 14303  IntersectionExampleScenario.node[44].veinsmobility  speed  ETV
14221	1048694 5110 9221 11823 116.75 154.25 151 0.973 11.990504229548 478.50469052149 2624.5525560301
14220	1053804 5040 9221 11823 116.75 154.25 151 -3.2868690490723 2.5 39.699392318726 201.56188217015
14219	1058844 5024 9205 11823 116.5 154.25 152 5.6500000953674 16.125 2209.39407444 32831.070321044
14218	1063868 5311 9188 11823 116.25 154.25 153 486.85000610352 486.85000610352 74488.050933838 36264508.051778
14217	1069179 5307 9188 11823 116.25 154.25 153 238.76226806641 785.82187652588 80008.811637878 45873821.867328
vector 14304  IntersectionExampleScenario.node[44].veinsmobility  acceleration  ETV
vector 14305  IntersectionExampleScenario.node[44].veinsmobility  co2emission  ETV
vector 14308  IntersectionExampleScenario.node[45].veinsmobility  posx  ETV
vector 14309  IntersectionExampleScenario.node[45].veinsmobility  posy  ETV
vector 14310  IntersectionExampleScenario.node[45].veinsmobility  speed  ETV
vector 14311  IntersectionExampleScenario.node[45].veinsmobility  acceleration  ETV
vector 14312  IntersectionExampleScenario.node[45].veinsmobility  co2emission  ETV
vector 14315  IntersectionExampleScenario.node[46].veinsmobility  posx  ETV
vector 14316  IntersectionExampleScenario.node[46].veinsmobility  posy  ETV
vector 14317  IntersectionExampleScenario.node[46].veinsmobility  speed  ETV
vector 14318  IntersectionExampleScenario.node[46].veinsmobility  acceleration  ETV
vector 14319  IntersectionExampleScenario.node[46].veinsmobility  co2emission  ETV
14207	1075457 6978 7958 12093 101.25 157.25 225 0.973 11.648172402475 593.58796353784 2938.7893070903
14206	1082435 6291 7958 12093 101.25 157.25 225 -7.092942237854 4 38.341367721558 476.74128165784
14205	1088726 6671 7933 12093 101 157.25 226 0 15.64999961853 2177.7517211437 30631.668078274
14204	1095397 7812 7908 12093 100.75 157.25 227 184.17810058594 483.36395263672 95068.134613037 41809952.670412
14203	1103209 7769 7908 12093 100.75 157.25 227 486.85000610352 733.04777526855 118696.69920349 63109163.26144
vector 14322  IntersectionExampleScenario.node[47].veinsmobility  posx  ETV
vector 14323  IntersectionExampleScenario.node[47].veinsmobility  posy  ETV
vector 14324  IntersectionExampleScenario.node[47].veinsmobility  speed  ETV
vector 14329  IntersectionExampleScenario.node[48].veinsmobility  posx  ETV
vector 14330  IntersectionExampleScenario.node[48].veinsmobility  posy  ETV
vector 14325  IntersectionExampleScenario.node[47].veinsmobility  acceleration  ETV
vector 14326  IntersectionExampleScenario.node[47].veinsmobility  co2emission  ETV
vector 14331  IntersectionExampleScenario.node[48].veinsmobility  speed  ETV
vector 14332  IntersectionExampleScenario.node[48].veinsmobility  acceleration  ETV
vector 14333  IntersectionExampleScenario.node[48].veinsmobility  co2emission  ETV
14228	1111780 5646 9270 12402 117.5 160.25 172 0.973 11.450879080643 533.00828208059 2922.6739389114
14227	1117426 5439 9270 12402 117.5 160.25 172 -2.8822174072266 2.5 37.15309715271 298.44970827358
14226	1122865 5731 9253 12402 117.25 160.25 173 5.6500000953674 15.375 2208.57147789 29672.036154991
14225	1128596 6023 9236 12402 117 160.25 174 184.17810058594 486.85000610352 69679.94442749 29713923.384068
14224	1134619 6037 9236 12402 117 160.25 174 237.13598632812 486.85000610352 76166.441345215 34343609.61788
vector 14336  IntersectionExampleScenario.node[49].veinsmobility  posx  ETV
vector 14337  IntersectionExampleScenario.node[49].veinsmobility  posy  ETV
14249	1140810 5431 10180 13354 130.5 170 159 0.973 11.450879080643 484.44724015116 2505.8905222211
14248	1146241 4869 10180 13354 130.5 170 159 -3.4813270568848 2.5 37.32285118103 228.62192558588
14247	1151110 5319 10163 13354 130.25 170 160 5.6500000953674 15.375 2206.7534742355 31288.619008943
14246	1156429 5624 10146 13354 130 170 161 483.14999389648 732.93559265137 86313.589279175 47241572.564034
14245	1162053 5602 10146 13354 130 170 161 184.17810058594 486.85000610352 64095.075653076 27308215.373776
vector 14338  IntersectionExampleScenario.node[49].veinsmobility  speed  ETV
vector 14339  IntersectionExampleScenario.node[49].veinsmobility  acceleration  ETV
vector 14340  IntersectionExampleScenario.node[49].veinsmobility  co2emission  ETV
14235	1167902 6979 9325 13669 118.25 173.5 222 0.973 11.450879080643 581.01908734256 2813.9710006243
14234	1174881 6423 9325 13669 118.25 173.5 222 -6.7711477279663 4 36.98334312439 452.58212473492
14233	1181304 6747 9306 13669 118 173.5 223 0 15.375 2197.6686828136 30446.01081592
14232	1188051 7793 9287 13669 117.75 173.5 224 483.14999389648 785.82187652588 123564.51340485 70195526.263114
14231	1195844 7793 9287 13669 117.75 173.5 224 483.14999389648 732.12057495117 116737.48764038 61927494.191986
vector 14343  IntersectionExampleScenario.node[50].veinsmobility  posx  ETV
vector 14344  IntersectionExampleScenario.node[50].veinsmobility  posy  ETV
vector 14345  IntersectionExampleScenario.node[50].veinsmobility  speed  ETV
vector 14346  IntersectionExampleScenario.node[50].veinsmobility  acceleration  ETV
vector 14347  IntersectionExampleScenario.node[50].veinsmobility  co2emission  ETV
vector 14350  IntersectionExampleScenario.node[51].veinsmobility  posx  ETV
vector 14351  IntersectionExampleScenario.node[51].veinsmobility  posy  ETV
14242	1204192 6465 10163 14217 130.25 180.25 201 0.97223939240464 11.810082123732 573.68075159457 3030.1919373661
14241	1210657 6068 10163 14217 130.25 180.25 201 -7.1630640029907 4 38.680875778198 476.87792498683
14240	1216725 6257 10146 14217 130 180.25 202 0 15.875 2184.2047655582 30861.615730234
14239	1222982 7034 10131 14217 129.75 180.25 203 486.85000610352 734.74661254883 107070.60171509 57497056.636
14238	1230016 7096 10131 14217 129.75 180.25 203 486.63604736328 785.82187652588 113128.82920074 64963226.701326
vector 14352  IntersectionExampleScenario.node[51].veinsmobility  speed  ETV
vector 14353  IntersectionExampleScenario.node[51].veinsmobility  acceleration  ETV
vector 14354  IntersectionExampleScenario.node[51].veinsmobility  co2emission  ETV
14256	1237359 6206 10417 14301 134.25 181.25 189 0.97223939240464 11.648172402475 555.64281113247 2916.106345333
14255	1243565 6205 10417 14301 134.25 181.25 189 -4.2814788818359 2.5000009536743 38.680875778198 388.94352645803
14254	1249770 6493 10402 14301 134 181.25 190 0 15.64999961853 2235.5409139693 31190.358809881
14253	1256263 6685 10387 14301 133.75 181.25 191 486.85000610352 486.85000610352 92988.351165771 45271379.332612
14252	1262948 6653 10387 14301 133.75 181.25 191 237.84466552734 792.02188110352 99760.838226318 56352487.080065
vector 14357  IntersectionExampleScenario.node[52].veinsmobility  posx  ETV
vector 14358  IntersectionExampleScenario.node[52].veinsmobility  posy  ETV
vector 14359  IntersectionExampleScenario.node[52].veinsmobility  speed  ETV
vector 14360  IntersectionExampleScenario.node[52].veinsmobility  acceleration  ETV
vector 14361  IntersectionExampleScenario.node[52].veinsmobility  co2emission  ETV
14277	1270002 5598 11002 14589 143 185 169 0.973 11.36141391502 552.97495182958 3219.2114241711
14276	1275600 5394 11002 14589 143 185 169 -3.3277530670166 2.5 37.15309715271 352.73663258877
14275	1280994 5643 10983 14589 142.75 185 170 5.6500000953674 15.25 2181.9437260628 29388.910844438
14274	1286637 5977 10964 14589 142.5 185 171 486.85000610352 732.83982849121 91563.879104614 49985271.427689
14273	1292614 5974 10964 14589 142.5 185 171 486.66940307617 785.82187652588 97789.161949158 57685779.936897
vector 14364  IntersectionExampleScenario.node[53].veinsmobility  posx  ETV
vector 14365  IntersectionExampleScenario.node[53].veinsmobility  posy  ETV
vector 14366  IntersectionExampleScenario.node[53].veinsmobility  speed  ETV
vector 14367  IntersectionExampleScenario.node[53].veinsmobility  acceleration  ETV
vector 14368  IntersectionExampleScenario.node[53].veinsmobility  co2emission  ETV
vector 14371  IntersectionExampleScenario.node[54].veinsmobility  posx  ETV
vector 14372  IntersectionExampleScenario.node[54].veinsmobility  posy  ETV
vector 14373  IntersectionExampleScenario.node[54].veinsmobility  speed  ETV
vector 14374  IntersectionExampleScenario.node[54].veinsmobility  acceleration  ETV
vector 14375  IntersectionExampleScenario.node[54].veinsmobility  co2emission  ETV
14263	1299390 6811 10496 14903 135.5 189 215 0.973 11.810082123732 596.0049259185 3076.8799860552
14262	1306201 6171 10496 14903 135.5 189 215 -6.9388580322266 4 39.869146347046 481.49561179219
14261	1312372 6533 10479 14903 135.25 189 216 0 15.875 2183.3810305595 31318.381281911
14260	1318905 7571 10462 14903 135 189 217 184.17810058594 483.36395263672 90505.134674072 39703612.310882
14259	1326476 7523 10462 14903 135 189 217 486.85000610352 734.37205505371 113721.21165466 60623783.014157
vector 14378  IntersectionExampleScenario.node[55].veinsmobility  posx  ETV
vector 14379  IntersectionExampleScenario.node[55].veinsmobility  posy  ETV
vector 14380  IntersectionExampleScenario.node[55].veinsmobility  speed  ETV
vector 14381  IntersectionExampleScenario.node[55].veinsmobility  acceleration  ETV
vector 14382  IntersectionExampleScenario.node[55].veinsmobility  co2emission  ETV
14270	1334400 7057 10704 15120 138.5 191.75 214 0.973 11.810082123732 585.22401855461 3017.6811019388
14269	1341457 7204 10704 15120 138.5 191.75 214 -4.5 2.5000009536743 38.511121749878 414.7336023766
14268	1348661 7249 10685 15120 138.25 191.75 215 0 15.875 2238.891487712 31042.727360547
14267	1355910 7517 10666 15120 138 191.75 216 171.40313720703 483.14999389648 88398.986358643 38307900.859937
14266	1363427 7556 10666 15120 138 191.75 216 486.85000610352 734.18235778809 113380.74108887 60554331.226927
vector 14385  IntersectionExampleScenario.node[56].veinsmobility  posx  ETV
vector 14386  IntersectionExampleScenario.node[56].veinsmobility  posy  ETV
vector 14392  IntersectionExampleScenario.node[57].veinsmobility  posx  ETV
vector 14393  IntersectionExampleScenario.node[57].veinsmobility  posy  ETV
vector 14387  IntersectionExampleScenario.node[56].veinsmobility  speed  ETV
vector 14388  IntersectionExampleScenario.node[56].veinsmobility  acceleration  ETV
vector 14389  IntersectionExampleScenario.node[56].veinsmobility  co2emission  ETV
vector 14394  IntersectionExampleScenario.node[57].veinsmobility  speed  ETV
vector 14395  IntersectionExampleScenario.node[57].veinsmobility  acceleration  ETV
vector 14396  IntersectionExampleScenario.node[57].veinsmobility  co2emission  ETV
14319	1371785 5072 12068 15360 157 194.5 151 0.95539329806042 12.099024792222 502.96264607042 3087.1485395909
14318	1376857 4909 12068 15360 157 194.5 151 -3.4438400268555 2.5 40.038900375366 242.92185278071
14317	1381766 5078 12043 15360 156.75 194.5 152 5.6500000953674 16.27499961853 2214.9958934784 33017.106710798
14316	1386844 5331 12018 15360 156.5 194.5 153 184.17810058594 732.57263183594 68485.400360107 34698518.329087
14315	1392175 5355 12018 15360 156.5 194.5 153 486.85000610352 486.85000610352 74488.050933838 36264508.051778
vector 14399  IntersectionExampleScenario.node[58].veinsmobility  posx  ETV
vector 14400  IntersectionExampleScenario.node[58].veinsmobility  posy  ETV
vector 14401  IntersectionExampleScenario.node[58].veinsmobility  speed  ETV
vector 14402  IntersectionExampleScenario.node[58].veinsmobility  acceleration  ETV
vector 14403  IntersectionExampleScenario.node[58].veinsmobility  co2emission  ETV
14284	1397931 6917 11002 15609 143 197.25 218 0.973 11.648172402475 589.88891236005 2975.4756805118
14283	1404848 6366 11002 15609 143 197.25 218 -7.0929417610168 4 38.341367721558 482.03536989279
14282	1411214 6691 10983 15609 142.75 197.25 219 0 15.64999961853 2212.6930657625 31413.159395651
14281	1417905 7700 10964 15609 142.5 197.25 220 483.14999389648 483.14999389648 106292.99865723 51355461.652478
14280	1425605 7667 10964 15609 142.5 197.25 220 184.17810058594 733.41819763184 100148.85166931 49756288.589973
14291	1433272 6429 11421 15724 149 198.5 199 0.973 11.810082123732 566.32186373552 3012.0211385233
14290	1439701 6581 11421 15724 149 198.5 199 -3.9376931190491 2.5000002384186 39.699392318726 364.21414941954
14289	1446282 6695 11402 15724 148.75 198.5 200 0 15.875 2177.7982416302 29803.465232516
14288	1452977 7029 11383 15724 148.5 198.5 201 238.75561523438 483.14999389648 89209.411071777 40564596.782343
14287	1460006 6997 11383 15724 148.5 198.5 201 184.17810058594 483.28833007812 82332.006866455 35571670.886152
14305	1467003 6140 11844 16000 154.5 201.5 189 0.973 11.648172402475 548.15132144348 2889.7789105573
14304	1473143 5998 11844 16000 154.5 201.5 189 -2.5349578857422 2.5 38.171613693237 302.86226663443
14303	1479141 6320 11823 16000 154.25 201.5 190 3.7501602172852 15.64999961853 2184.9167275429 28160.996464471
14302	1485461 6675 11802 16000 154 201.5 191 236.54504394531 483.14999389648 84046.899200439 37977412.732416
14301	1492136 6652 11802 16000 154 201.5 191 184.17810058594 483.14999389648 76846.037841797 32707200.508042
vector 14406  IntersectionExampleScenario.node[59].veinsmobility  posx  ETV
vector 14407  IntersectionExampleScenario.node[59].veinsmobility  posy  ETV
vector 14408  IntersectionExampleScenario.node[59].veinsmobility  speed  ETV
vector 14409  IntersectionExampleScenario.node[59].veinsmobility  acceleration  ETV
vector 14410  IntersectionExampleScenario.node[59].veinsmobility  co2emission  ETV
14298	1499189 6607 11802 16350 154 205.25 206 0.973 11.648172402475 576.682938066 2958.4325533126
14297	1505796 6099 11802 16350 154 205.25 206 -7.4922199249268 4 38.171613693237 484.73603371837
14296	1511895 6435 11783 16350 153.75 205.25 207 0 15.64999961853 2209.8923177719 31296.209765439
14295	1518330 7257 11763 16350 153.5 205.25 208 237.14044189453 785.82187652588 107306.58123016 59517995.957906
14294	1525587 7280 11763 16350 153.5 205.25 208 483.14999389648 483.14999389648 100495.19873047 48554254.653252
14326	1532867 6614 12213 16565 158.5 207.75 198 0.973 11.200708441096 552.37019340837 2717.529255989
14325	1539481 6633 12213 16565 158.5 207.75 198 -4.5 2.5 37.15309715271 416.6536287128
14324	1546114 6842 12188 16565 158.25 207.75 199 0 15.304808616638 2117.7135496885 28984.256467365
14323	1552956 6976 12163 16565 158 207.75 200 235.98895263672 761.15078735352 101603.91059875 55305278.08911
14322	1559932 7000 12163 16565 158 207.75 200 483.14999389648 483.14999389648 96629.998779297 46686783.320434
vector 14413  IntersectionExampleScenario.node[60].veinsmobility  posx  ETV
vector 14414  IntersectionExampleScenario.node[60].veinsmobility  posy  ETV
vector 14420  IntersectionExampleScenario.node[61].veinsmobility  posx  ETV
vector 14421  IntersectionExampleScenario.node[61].veinsmobility  posy  ETV
14312	1567240 7074 11995 16722 156.25 209.75 215 0.973 11.810082123732 634.68093461149 3249.2609310653
14311	1574314 7003 11995 16722 156.25 209.75 215 -4.5 2.5 39.869146347046 546.81819199099
14310	1581317 7219 11972 16722 156 209.75 216 0 15.875 2244.3583995327 30011.977417475
14309	1588536 7570 11949 16722 155.75 209.75 217 486.76208496094 802.70781707764 123815.70558167 72991720.920798
14308	1596106 7585 11949 16722 155.75 209.75 217 238.32965087891 483.14999389648 96932.649383545 44295921.82494
vector 14415  IntersectionExampleScenario.node[60].veinsmobility  speed  ETV
vector 14422  IntersectionExampleScenario.node[61].veinsmobility  speed  ETV
vector 14416  IntersectionExampleScenario.node[60].veinsmobility  acceleration  ETV
vector 14417  IntersectionExampleScenario.node[60].veinsmobility  co2emission  ETV
vector 14423  IntersectionExampleScenario.node[61].veinsmobility  acceleration  ETV
vector 14424  IntersectionExampleScenario.node[61].veinsmobility  co2emission  ETV
vector 14427  IntersectionExampleScenario.node[62].veinsmobility  posx  ETV
vector 14428  IntersectionExampleScenario.node[62].veinsmobility  posy  ETV
vector 14429  IntersectionExampleScenario.node[62].veinsmobility  speed  ETV
vector 14430  IntersectionExampleScenario.node[62].veinsmobility  acceleration  ETV
vector 14431  IntersectionExampleScenario.node[62].veinsmobility  co2emission  ETV
vector 14434  IntersectionExampleScenario.node[63].veinsmobility  posx  ETV
vector 14435  IntersectionExampleScenario.node[63].veinsmobility  posy  ETV
vector 14436  IntersectionExampleScenario.node[63].veinsmobility  speed  ETV
vector 14437  IntersectionExampleScenario.node[63].veinsmobility  acceleration  ETV
vector 14438  IntersectionExampleScenario.node[63].veinsmobility  co2emission  ETV
14354	1604987 5335 14259 17622 180.75 219.5 156 0.973 11.54047740176 462.84796439642 2339.4980656845
14353	1610322 5248 14259 17622 180.75 219.5 156 -3.572681427002 2.5 36.98334312439 188.06141834564
14352	1615570 5251 14238 17622 180.5 219.5 157 5.6500000953674 15.5 2210.2164869308 31678.695641228
14351	1620821 5531 14217 17622 180.25 219.5 158 486.85000610352 486.85000610352 76922.300964355 37449622.693993
14350	1626352 5523 14217 17622 180.25 219.5 158 238.37652587891 785.82187652588 82453.046638489 47200651.94907
14333	1631875 7763 12267 17783 159 221.5 251 0.973 11.648172402475 649.48906313097 3170.8441969254
14332	1639638 6863 12267 17783 159 221.5 251 -7.7129797935486 4 39.869146347046 519.70258955569
14331	1646501 7382 12240 17783 158.75 221.5 252 0 15.64999961853 2276.7095712423 32900.895141609
14330	1653883 8812 12213 17783 158.5 221.5 253 166.078125 486.85000610352 106221.16659546 47010185.169853
14329	1662695 8852 12213 17783 158.5 221.5 253 236.21380615234 486.85000610352 114919.85736084 53307872.725887
14361	1671547 5542 14400 18011 182.5 224.5 169 0.973 12.099024792222 560.54141763922 3352.2668293406
14360	1677089 5340 14400 18011 182.5 224.5 169 -3.1372871398926 2.5 40.038900375366 356.25177810409
14359	1682429 5609 14380 18011 182.25 224.5 170 5.6500000953674 16.27499961853 2179.271572113 30026.334226051
14358	1688038 5960 14359 18011 182 224.5 171 184.17810058594 483.14999389648 68319.666931152 29026168.524502
14357	1693998 5979 14359 18011 182 224.5 171 486.85000610352 731.57752990723 91133.483139038 49485942.20747
vector 14441  IntersectionExampleScenario.node[64].veinsmobility  posx  ETV
vector 14442  IntersectionExampleScenario.node[64].veinsmobility  posy  ETV
vector 14448  IntersectionExampleScenario.node[65].veinsmobility  posx  ETV
vector 14449  IntersectionExampleScenario.node[65].veinsmobility  posy  ETV
vector 14443  IntersectionExampleScenario.node[64].veinsmobility  speed  ETV
vector 14450  IntersectionExampleScenario.node[65].veinsmobility  speed  ETV
vector 14444  IntersectionExampleScenario.node[64].veinsmobility  acceleration  ETV
vector 14445  IntersectionExampleScenario.node[64].veinsmobility  co2emission  ETV
vector 14451  IntersectionExampleScenario.node[65].veinsmobility  acceleration  ETV
vector 14452  IntersectionExampleScenario.node[65].veinsmobility  co2emission  ETV
14340	1700779 7245 13400 18316 170.5 228.5 233 0.973 12.099024792222 628.54034970928 3294.5229607493
14339	1708024 6371 13400 18316 170.5 228.5 233 -9.2126970291138 4 41.396924972534 525.32272029751
14338	1714395 6922 13377 18316 170.25 228.5 234 0 16.27499961853 2208.8034901619 32581.165845418
14337	1721317 8224 13354 18316 170 228.5 235 483.14999389648 483.14999389648 113540.24856567 54856970.40151
14336	1729541 8186 13354 18316 170 228.5 235 184.17810058594 731.91882324219 107065.23892212 52784293.44805
vector 14455  IntersectionExampleScenario.node[66].veinsmobility  posx  ETV
vector 14456  IntersectionExampleScenario.node[66].veinsmobility  posy  ETV
vector 14457  IntersectionExampleScenario.node[66].veinsmobility  speed  ETV
vector 14458  IntersectionExampleScenario.node[66].veinsmobility  acceleration  ETV
vector 14459  IntersectionExampleScenario.node[66].veinsmobility  co2emission  ETV
vector 14462  IntersectionExampleScenario.node[67].veinsmobility  posx  ETV
vector 14463  IntersectionExampleScenario.node[67].veinsmobility  posy  ETV
vector 14464  IntersectionExampleScenario.node[67].veinsmobility  speed  ETV
vector 14469  IntersectionExampleScenario.node[68].veinsmobility  posx  ETV
vector 14470  IntersectionExampleScenario.node[68].veinsmobility  posy  ETV
vector 14465  IntersectionExampleScenario.node[67].veinsmobility  acceleration  ETV
vector 14466  IntersectionExampleScenario.node[67].veinsmobility  co2emission  ETV
vector 14471  IntersectionExampleScenario.node[68].veinsmobility  speed  ETV
vector 14472  IntersectionExampleScenario.node[68].veinsmobility  acceleration  ETV
vector 14473  IntersectionExampleScenario.node[68].veinsmobility  co2emission  ETV
14347	1738930 6996 13952 18593 177 231.5 219 0.973 11.200708441096 566.21575610261 2760.1691226037
14346	1745926 7506 13952 18593 177 231.5 219 -3.7195670604706 2.5 37.32285118103 318.28774368984
14345	1753432 7556 13931 18593 176.75 231.5 220 0 15.457540512085 2213.2014851589 29263.614855951
14344	1760988 7735 13910 18593 176.5 231.5 221 483.14999389648 483.14999389648 106776.14865112 51588895.56908
14343	1768723 7687 13910 18593 176.5 231.5 221 184.17810058594 732.80067443848 99576.256942749 49065292.395638
vector 14476  IntersectionExampleScenario.node[69].veinsmobility  posx  ETV
vector 14477  IntersectionExampleScenario.node[69].veinsmobility  posy  ETV
vector 14478  IntersectionExampleScenario.node[69].veinsmobility  speed  ETV
vector 14479  IntersectionExampleScenario.node[69].veinsmobility  acceleration  ETV
vector 14480  IntersectionExampleScenario.node[69].veinsmobility  co2emission  ETV
14403	1776811 5495 15448 18999 195.5 236 163 0.973 11.36141391502 528.95147156638 3013.0608715139
14402	1782306 5220 15448 18999 195.5 236 163 -3.3115272521973 2.5 37.32285118103 311.6767141491
14401	1787526 5422 15425 18999 195.25 236 164 5.6500000953674 15.25 2188.8809251785 30459.280343883
14400	1792948 5736 15402 18999 195 236 165 235.64324951172 483.14999389648 71320.246063232 31782112.81368
14399	1798684 5743 15402 18999 195 236 165 184.17810058594 483.162109375 65621.407684326 27860145.966398
14375	1804427 6511 14777 19136 187.5 237.5 201 0.973 11.36141391502 559.78098256408 2777.1483377943
14374	1810938 5957 14777 19136 187.5 237.5 201 -8.4870567321777 4 37.15309715271 476.36065124764
14373	1816895 6304 14756 19136 187.25 237.5 202 0 15.25 2176.7448656559 30094.704683899
14372	1823199 7093 14735 19136 187 237.5 203 486.63604736328 785.82187652588 113328.01003265 65198095.752381
14371	1830292 7039 14735 19136 187 237.5 203 236.84155273438 483.14999389648 89742.110443115 40696449.651042
vector 14483  IntersectionExampleScenario.node[70].veinsmobility  posx  ETV
vector 14484  IntersectionExampleScenario.node[70].veinsmobility  posy  ETV
vector 14485  IntersectionExampleScenario.node[70].veinsmobility  speed  ETV
vector 14486  IntersectionExampleScenario.node[70].veinsmobility  acceleration  ETV
vector 14487  IntersectionExampleScenario.node[70].veinsmobility  co2emission  ETV
vector 14490  IntersectionExampleScenario.node[71].veinsmobility  posx  ETV
vector 14491  IntersectionExampleScenario.node[71].veinsmobility  posy  ETV
vector 14492  IntersectionExampleScenario.node[71].veinsmobility  speed  ETV
vector 14493  IntersectionExampleScenario.node[71].veinsmobility  acceleration  ETV
vector 14494  IntersectionExampleScenario.node[71].veinsmobility  co2emission  ETV
vector 14497  IntersectionExampleScenario.node[72].veinsmobility  posx  ETV
vector 14498  IntersectionExampleScenario.node[72].veinsmobility  posy  ETV
vector 14499  IntersectionExampleScenario.node[72].veinsmobility  speed  ETV
vector 14500  IntersectionExampleScenario.node[72].veinsmobility  acceleration  ETV
vector 14501  IntersectionExampleScenario.node[72].veinsmobility  co2emission  ETV
14368	1838534 7235 14678 19750 186.25 244 232 0.973 11.810082123732 612.28396127942 3036.6120183955
14367	1845769 6783 14678 19750 186.25 244 232 -7.1036190986633 4 39.869146347046 478.89753590195
14366	1852552 6890 14659 19750 186 244 233 0 15.875 2183.0439163446 31291.617670125
14365	1859442 8119 14640 19750 185.75 244 234 486.85000610352 734.37205505371 121997.66171265 64653172.74094
14364	1867561 8176 14640 19750 185.75 244 234 486.63604736328 785.82187652588 128477.98654938 72547038.884689
14396	1875737 6858 15206 19824 192.75 244.75 209 0.973 11.990504229548 587.51770096911 3096.9059747041
14395	1882595 7036 15206 19824 192.75 244.75 209 -4.4138107299805 2.5000009536743 41.057416915894 414.13612693805
14394	1889631 7185 15183 19824 192.5 244.75 210 0 16.125 2101.3534065168 30054.370415212
14393	1896816 7387 15160 19824 192.25 244.75 211 486.85000610352 486.85000610352 102725.35128784 50011837.901471
14392	1904203 7350 15160 19824 192.25 244.75 211 236.31134033203 757.09531402588 107189.22798157 57900295.861261
vector 14504  IntersectionExampleScenario.node[73].veinsmobility  posx  ETV
vector 14505  IntersectionExampleScenario.node[73].veinsmobility  posy  ETV
vector 14506  IntersectionExampleScenario.node[73].veinsmobility  speed  ETV
vector 14507  IntersectionExampleScenario.node[73].veinsmobility  acceleration  ETV
vector 14508  IntersectionExampleScenario.node[73].veinsmobility  co2emission  ETV
14382	1911954 7306 15100 20051 191.5 247.25 224 0.973 11.990504229548 615.05919443289 3096.8257606194
14381	1919260 7557 15100 20051 191.5 247.25 224 -4.5 2.5000019073486 39.699392318726 445.82648857598
14380	1926817 7679 15079 20051 191.25 247.25 225 0 16.125 2216.380761493 29754.275309482
14379	1934496 7909 15058 20051 191 247.25 226 486.85000610352 486.85000610352 110028.10137939 53567181.828116
14378	1942405 7883 15058 20051 191 247.25 226 236.22680664062 785.82187652588 118996.01715088 67035950.51205
vector 14511  IntersectionExampleScenario.node[74].veinsmobility  posx  ETV
vector 14512  IntersectionExampleScenario.node[74].veinsmobility  posy  ETV
vector 14513  IntersectionExampleScenario.node[74].veinsmobility  speed  ETV
vector 14514  IntersectionExampleScenario.node[74].veinsmobility  acceleration  ETV
vector 14515  IntersectionExampleScenario.node[74].veinsmobility  co2emission  ETV
vector 14518  IntersectionExampleScenario.node[75].veinsmobility  posx  ETV
vector 14519  IntersectionExampleScenario.node[75].veinsmobility  posy  ETV
vector 14520  IntersectionExampleScenario.node[75].veinsmobility  speed  ETV
vector 14521  IntersectionExampleScenario.node[75].veinsmobility  acceleration  ETV
vector 14522  IntersectionExampleScenario.node[75].veinsmobility  co2emission  ETV
vector 14525  IntersectionExampleScenario.node[76].veinsmobility  posx  ETV
vector 14526  IntersectionExampleScenario.node[76].veinsmobility  posy  ETV
vector 14527  IntersectionExampleScenario.node[76].veinsmobility  speed  ETV
vector 14528  IntersectionExampleScenario.node[76].veinsmobility  acceleration  ETV
vector 14529  IntersectionExampleScenario.node[76].veinsmobility  co2emission  ETV
14389	1951491 7763 15183 20417 192.5 250.75 234 0.973 11.473449266913 599.50464525129 2722.841915228
14388	1959254 7687 15183 20417 192.5 250.75 234 -4.5 2.5000019073486 36.643835067749 378.86891448153
14387	1966941 7993 15160 20417 192.25 250.75 235 0 15.406505584717 2306.149545298 29877.400251285
14386	1974934 8260 15139 20417 192 250.75 236 486.85000610352 486.85000610352 114896.60144043 55937411.112546
14385	1983194 8221 15139 20417 192 250.75 236 236.3232421875 807.99687957764 126195.49759674 72539433.669816
vector 14532  IntersectionExampleScenario.node[77].veinsmobility  posx  ETV
vector 14533  IntersectionExampleScenario.node[77].veinsmobility  posy  ETV
vector 14534  IntersectionExampleScenario.node[77].veinsmobility  speed  ETV
vector 14535  IntersectionExampleScenario.node[77].veinsmobility  acceleration  ETV
vector 14536  IntersectionExampleScenario.node[77].veinsmobility  co2emission  ETV
14417	1991816 5788 16768 20704 210.25 253.25 173 0.973 11.648172402475 549.83204106191 2947.9975332269
14416	1997604 5265 16768 20704 210.25 253.25 173 -6.8118047714233 4 38.850629806519 473.41527261686
14415	2002869 5743 16745 20704 210 253.25 174 0 15.64999961853 2219.7540535927 31693.65606955
14414	2008612 6095 16722 20704 209.75 253.25 175 184.17810058594 735.09378051758 79024.325683594 39848768.969657
14413	2014707 6125 16722 20704 209.75 253.25 175 486.85000610352 486.85000610352 85198.751068115 41479012.477524
14438	2020832 5273 17395 21062 217 256.5 159 0.973 11.648172402475 501.66666706811 2947.1899428797
14437	2026105 5190 17395 21062 217 256.5 159 -2.9673042297363 2.5 37.662351608276 236.68096569786
14436	2031295 5355 17372 21062 216.75 256.5 160 5.6500000953674 15.64999961853 2221.1211929321 31480.343229282
14435	2036650 5600 17349 21062 216.5 256.5 161 184.17810058594 734.57196044922 72267.073791504 36640865.601028
14434	2042250 5635 17349 21062 216.5 256.5 161 486.85000610352 486.85000610352 78382.850982666 38160691.479322
vector 14539  IntersectionExampleScenario.node[78].veinsmobility  posx  ETV
vector 14540  IntersectionExampleScenario.node[78].veinsmobility  posy  ETV
vector 14541  IntersectionExampleScenario.node[78].veinsmobility  speed  ETV
vector 14546  IntersectionExampleScenario.node[79].veinsmobility  posx  ETV
vector 14547  IntersectionExampleScenario.node[79].veinsmobility  posy  ETV
vector 14542  IntersectionExampleScenario.node[78].veinsmobility  acceleration  ETV
vector 14543  IntersectionExampleScenario.node[78].veinsmobility  co2emission  ETV
vector 14548  IntersectionExampleScenario.node[79].veinsmobility  speed  ETV
vector 14549  IntersectionExampleScenario.node[79].veinsmobility  acceleration  ETV
vector 14550  IntersectionExampleScenario.node[79].veinsmobility  co2emission  ETV
vector 14553  IntersectionExampleScenario.node[80].veinsmobility  posx  ETV
vector 14554  IntersectionExampleScenario.node[80].veinsmobility  posy  ETV
vector 14555  IntersectionExampleScenario.node[80].veinsmobility  speed  ETV
vector 14556  IntersectionExampleScenario.node[80].veinsmobility  acceleration  ETV
vector 14557  IntersectionExampleScenario.node[80].veinsmobility  co2emission  ETV
14424	2049088 6565 16768 21626 210.25 261.25 205 0.97223939240464 11.810082123732 577.57275159457 3033.9788533661
14423	2055653 6152 16768 21626 210.25 261.25 205 -7.1630792617798 4 38.680875778198 476.878071193
14422	2061805 6339 16745 21626 210 261.25 206 0 15.875 2184.2048661709 30861.617094532
14421	2068144 7175 16722 21626 209.75 261.25 207 235.25335693359 483.14999389648 91771.998077393 41716524.859061
14420	2075319 7218 16722 21626 209.75 261.25 207 184.17810058594 483.36395263672 85667.568359375 37385622.611704
14431	2082537 6776 16933 21772 212 262.5 203 0.973 11.54047740176 570.48432723254 2826.0930657934
14430	2089313 6481 16933 21772 212 262.5 203 -4.5 2.5000019073486 37.15309715271 428.48948883539
14429	2095794 6989 16908 21772 211.75 262.5 204 0 15.5 2289.3040197585 31638.907143816
14428	2102783 7175 16883 21772 211.5 262.5 205 483.14999389648 483.14999389648 99045.748748779 47853952.903445
14427	2109958 7150 16883 21772 211.5 262.5 205 164.94219970703 732.68661499023 91019.755279541 45062962.935486
vector 14560  IntersectionExampleScenario.node[81].veinsmobility  posx  ETV
vector 14561  IntersectionExampleScenario.node[81].veinsmobility  posy  ETV
vector 14562  IntersectionExampleScenario.node[81].veinsmobility  speed  ETV
vector 14563  IntersectionExampleScenario.node[81].veinsmobility  acceleration  ETV
vector 14564  IntersectionExampleScenario.node[81].veinsmobility  co2emission  ETV
vector 14567  IntersectionExampleScenario.node[82].veinsmobility  posx  ETV
vector 14568  IntersectionExampleScenario.node[82].veinsmobility  posy  ETV
vector 14569  IntersectionExampleScenario.node[82].veinsmobility  speed  ETV
vector 14570  IntersectionExampleScenario.node[82].veinsmobility  acceleration  ETV
vector 14571  IntersectionExampleScenario.node[82].veinsmobility  co2emission  ETV
vector 14574  IntersectionExampleScenario.node[83].veinsmobility  posx  ETV
vector 14575  IntersectionExampleScenario.node[83].veinsmobility  posy  ETV
vector 14581  IntersectionExampleScenario.node[84].veinsmobility  posx  ETV
vector 14582  IntersectionExampleScenario.node[84].veinsmobility  posy  ETV
vector 14576  IntersectionExampleScenario.node[83].veinsmobility  speed  ETV
vector 14577  IntersectionExampleScenario.node[83].veinsmobility  acceleration  ETV
vector 14578  IntersectionExampleScenario.node[83].veinsmobility  co2emission  ETV
vector 14583  IntersectionExampleScenario.node[84].veinsmobility  speed  ETV
vector 14584  IntersectionExampleScenario.node[84].veinsmobility  acceleration  ETV
vector 14585  IntersectionExampleScenario.node[84].veinsmobility  co2emission  ETV
14452	2118712 5515 18316 22530 228.5 268.75 162 0.973 11.36141391502 498.04660962162 2605.702682659
14451	2124227 5015 18316 22530 228.5 268.75 162 -3.4963760375977 2.5 37.15309715271 266.39964838222
14450	2129242 5391 18295 22530 228.25 268.75 163 5.6500000953674 15.25 2185.2570457458 30545.530708214
14449	2134633 5736 18274 22530 228 268.75 164 236.24053955078 483.14999389648 70855.863647461 31560643.56414
14448	2140369 5719 18274 22530 228 268.75 164 184.17810058594 483.14999389648 65225.143066406 27703567.755517
14473	2146088 5423 18543 22778 231 270.75 160 0.973 11.200708441096 474.80389781161 2306.7295496771
14472	2151511 5275 18543 22778 231 270.75 160 -2.6402244567871 2.5 36.98334312439 177.91932054595
14471	2156786 5589 18518 22778 230.75 270.75 161 5.6500000953674 15.096168518066 2221.0428304672 31337.854166506
14470	2162375 5654 18493 22778 230.5 270.75 162 235.85748291016 785.82187652588 84211.496040344 48010749.039297
14469	2168029 5671 18493 22778 230.5 270.75 162 483.14999389648 483.14999389648 78270.29901123 37816294.489552
vector 14588  IntersectionExampleScenario.node[85].veinsmobility  posx  ETV
vector 14589  IntersectionExampleScenario.node[85].veinsmobility  posy  ETV
vector 14590  IntersectionExampleScenario.node[85].veinsmobility  speed  ETV
vector 14591  IntersectionExampleScenario.node[85].veinsmobility  acceleration  ETV
vector 14592  IntersectionExampleScenario.node[85].veinsmobility  co2emission  ETV
14410	2174101 8638 16165 23405 203.25 276 292 0.973 12.099024792222 693.71961793366 3405.3977231818
14409	2182739 8281 16165 23405 203.25 276 292 -9.9583892822266 4 40.038900375366 633.8560192928
14408	2191020 8739 16140 23405 203 276 293 0 16.27499961853 2207.9692151546 28943.023685369
14407	2199759 10283 16115 23405 202.75 276 294 235.70397949219 486.85000610352 134868.12158203 63018310.286289
14406	2210042 10270 16115 23405 202.75 276 294 483.14999389648 785.82187652588 159921.13362885 89081750.055566
vector 14595  IntersectionExampleScenario.node[86].veinsmobility  posx  ETV
vector 14596  IntersectionExampleScenario.node[86].veinsmobility  posy  ETV
vector 14597  IntersectionExampleScenario.node[86].veinsmobility  speed  ETV
vector 14598  IntersectionExampleScenario.node[86].veinsmobility  acceleration  ETV
vector 14599  IntersectionExampleScenario.node[86].veinsmobility  co2emission  ETV
vector 14602  IntersectionExampleScenario.node[87].veinsmobility  posx  ETV
vector 14603  IntersectionExampleScenario.node[87].veinsmobility  posy  ETV
vector 14604  IntersectionExampleScenario.node[87].veinsmobility  speed  ETV
vector 14605  IntersectionExampleScenario.node[87].veinsmobility  acceleration  ETV
vector 14606  IntersectionExampleScenario.node[87].veinsmobility  co2emission  ETV
14445	2221114 6513 18316 23749 228.5 279 203 0.973 10.916047529558 527.80728878661 2476.871037435
14444	2227627 6598 18316 23749 228.5 279 203 -2.1141128540039 2.5 34.437047958374 281.47835831184
14443	2234225 6841 18295 23749 228.25 279 204 1.3773356676102 14.625 2192.1074105501 27540.09194079
14442	2241066 7158 18274 23749 228 279 205 486.85000610352 735.47875976562 108682.98840332 58704403.927254
14441	2248224 7160 18274 23749 228 279 205 486.85000610352 785.82187652588 115444.92675781 66904162.882628
14459	2255384 6587 18383 23749 229.25 279 200 0.973 11.54047740176 589.4962750356 2835.1691089501
14458	2261971 6389 18383 23749 229.25 279 200 -4.5 2.5 39.190130233765 425.13448977015
14457	2268360 6819 18360 23749 229 279 201 2.2573161125183 15.5 2303.3000359535 30906.351998978
14456	2275179 7069 18337 23749 228.75 279 202 486.85000610352 486.85000610352 98343.70123291 47878631.545484
14455	2282248 7046 18337 23749 228.75 279 202 237.75830078125 808.82032012939 108215.46846008 62679960.177555
vector 14609  IntersectionExampleScenario.node[88].veinsmobility  posx  ETV
vector 14610  IntersectionExampleScenario.node[88].veinsmobility  posy  ETV
vector 14611  IntersectionExampleScenario.node[88].veinsmobility  speed  ETV
vector 14612  IntersectionExampleScenario.node[88].veinsmobility  acceleration  ETV
vector 14613  IntersectionExampleScenario.node[88].veinsmobility  co2emission  ETV
14480	2289695 5904 18999 23985 236 281 181 0.973 11.648172402475 550.34403068923 2943.1192136745
14479	2295599 5804 18999 23985 236 281 181 -3.147500038147 2.5 40.717908859253 312.74734650872
14478	2301403 6140 18976 23985 235.75 281 182 2.3878865242004 15.86777973175 2221.6350746155 30529.91460246
14477	2307543 6404 18953 23985 235.5 281 183 486.85000610352 486.85000610352 89093.551116943 43375195.905068
14476	2313947 6372 18953 23985 235.5 281 183 235.89111328125 785.82187652588 95930.418388367 54360247.908121
vector 14616  IntersectionExampleScenario.node[89].veinsmobility  posx  ETV
vector 14617  IntersectionExampleScenario.node[89].veinsmobility  posy  ETV
vector 14618  IntersectionExampleScenario.node[89].veinsmobility  speed  ETV
vector 14619  IntersectionExampleScenario.node[89].veinsmobility  acceleration  ETV
vector 14620  IntersectionExampleScenario.node[89].veinsmobility  co2emission  ETV
vector 14623  IntersectionExampleScenario.node[90].veinsmobility  posx  ETV
vector 14624  IntersectionExampleScenario.node[90].veinsmobility  posy  ETV
vector 14625  IntersectionExampleScenario.node[90].veinsmobility  speed  ETV
vector 14626  IntersectionExampleScenario.node[90].veinsmobility  acceleration  ETV
vector 14627  IntersectionExampleScenario.node[90].veinsmobility  co2emission  ETV
14466	2321121 6817 18493 24445 230.5 284.5 217 0.973 12.26218747632 610.77586620573 3345.3759728297
14465	2327938 6411 18493 24445 230.5 284.5 217 -9.2126979827881 4 41.396924972534 526.8954818516
14464	2334349 6509 18470 24445 230.25 284.5 218 0 16.5 2173.0580775738 31776.32052604
14463	2340858 7633 18447 24445 230 284.5 219 184.17810058594 483.36395263672 91613.780487061 40271507.944352
14462	2348491 7591 18447 24445 230 284.5 219 486.85000610352 731.48248291016 114331.12188721 60668139.162846
14501	2356082 5677 19625 24644 242.75 286 174 0.973 12.099024792222 552.0250654254 3154.9106919773
14500	2361759 5625 19625 24644 242.75 286 174 -2.1759452819824 2.5 41.396924972534 304.70607578648
14499	2367384 5897 19600 24644 242.5 286 175 3.3420259952545 16.27499961853 2218.0152368546 31140.135624874
14498	2373281 6119 19575 24644 242.25 286 176 184.17810058594 733.08610534668 78534.615066528 39052462.865364
14497	2379400 6160 19575 24644 242.25 286 176 486.85000610352 486.85000610352 85685.601074219 41716035.405967
14522	2385560 5417 20303 25192 249.75 290.5 164 0.973 11.450879080643 548.50541385669 3305.9181292624
14521	2390977 5137 20303 25192 249.75 290.5 164 -3.548095703125 2.5 37.15309715271 328.67078746218
14520	2396114 5479 20276 25192 249.5 290.5 165 5.6500000953674 15.375 2200.0581674576 30224.183128998
14519	2401593 5789 20249 25192 249.25 290.5 166 184.17810058594 487.07180786133 65969.517303467 28008292.5027
14518	2407382 5798 20249 25192 249.25 290.5 166 238.5849609375 486.85000610352 72373.690673828 32522199.106695
vector 14630  IntersectionExampleScenario.node[91].veinsmobility  posx  ETV
vector 14631  IntersectionExampleScenario.node[91].veinsmobility  posy  ETV
vector 14632  IntersectionExampleScenario.node[91].veinsmobility  speed  ETV
vector 14633  IntersectionExampleScenario.node[91].veinsmobility  acceleration  ETV
vector 14634  IntersectionExampleScenario.node[91].veinsmobility  co2emission  ETV
14494	2413581 6859 19365 25517 240 293.5 215 0.973 11.36141391502 573.64789107055 2806.1409852887
14493	2420440 6498 19365 25517 240 293.5 215 -7.4601984024048 4 37.15309715271 468.68733398471
14492	2426938 6601 19339 25517 239.75 293.5 216 0 15.25 2177.1279549599 30130.009292588
14491	2433539 7530 19314 25517 239.5 293.5 217 236.84155273438 483.14999389648 96506.210357666 43964524.483473
14490	2441069 7572 19314 25517 239.5 293.5 217 184.17810058594 483.36395263672 90192.496246338 39465371.794069
14515	2448641 6049 20124 25642 248 294.75 188 0.973 11.54047740176 532.85277660336 2743.1026387953
14514	2454690 6198 20124 25642 248 294.75 188 -2.1867790222168 2.5 37.15309715271 288.36537416588
14513	2460888 6424 20099 25642 247.75 294.75 189 2.209716796875 15.5 2220.3591372967 29492.534363554
14512	2467312 6651 20074 25642 247.5 294.75 190 483.14999389648 483.14999389648 91798.498840332 44352444.154413
14511	2473963 6613 20074 25642 247.5 294.75 190 184.17810058594 734.3433380127 85276.923965454 42509259.414861
vector 14637  IntersectionExampleScenario.node[92].veinsmobility  posx  ETV
vector 14638  IntersectionExampleScenario.node[92].veinsmobility  posy  ETV
vector 14639  IntersectionExampleScenario.node[92].veinsmobility  speed  ETV
vector 14640  IntersectionExampleScenario.node[92].veinsmobility  acceleration  ETV
vector 14641  IntersectionExampleScenario.node[92].veinsmobility  co2emission  ETV
14487	2480977 7826 19245 26260 238.75 301.75 253 0.973 11.200708441096 600.15445879132 2695.2321788201
14486	2488803 6985 19245 26260 238.75 301.75 253 -8.6476802825928 4 35.795072555542 472.97505521195
14485	2495788 7435 19222 26260 238.5 301.75 254 0 15.02499961853 2171.2141442299 29466.991903709
14484	2503223 8920 19199 26260 238.25 301.75 255 486.63604736328 785.82187652588 139397.77490997 78294614.1146
14483	2512143 8863 19199 26260 238.25 301.75 255 238.08221435547 483.14999389648 114762.48791504 52745378.031213
14508	2521006 7007 20051 26302 247.25 302.25 221 0.973 11.90022389248 585.76119126245 3039.9230094682
14507	2528013 7386 20051 26302 247.25 302.25 221 -3.7671473026276 2.5 39.869146347046 346.73829038266
14506	2535399 7363 20028 26302 247 302.25 222 0 16 2204.3148611151 29834.702838717
14505	2542762 7790 20005 26302 246.75 302.25 223 482.98864746094 785.82187652588 123796.6778183 70648896.996547
14504	2550552 7800 20005 26302 246.75 302.25 223 483.14999389648 733.05325317383 115943.14015198 61345288.795666
vector 14644  IntersectionExampleScenario.node[93].veinsmobility  posx  ETV
vector 14645  IntersectionExampleScenario.node[93].veinsmobility  posy  ETV
vector 14646  IntersectionExampleScenario.node[93].veinsmobility  speed  ETV
vector 14647  IntersectionExampleScenario.node[93].veinsmobility  acceleration  ETV
vector 14648  IntersectionExampleScenario.node[93].veinsmobility  co2emission  ETV
vector 14651  IntersectionExampleScenario.node[94].veinsmobility  posx  ETV
vector 14652  IntersectionExampleScenario.node[94].veinsmobility  posy  ETV
vector 14653  IntersectionExampleScenario.node[94].veinsmobility  speed  ETV
vector 14654  IntersectionExampleScenario.node[94].veinsmobility  acceleration  ETV
vector 14655  IntersectionExampleScenario.node[94].veinsmobility  co2emission  ETV
14536	2559154 6801 20646 26598 252.75 305.75 213 0.973 11.200708441096 558.49607959834 2682.0788554403
14535	2565955 6975 20646 26598 252.75 305.75 213 -2.7353286743164 2.5 37.15309715271 312.5255603127
14534	2572930 7182 20617 26598 252.5 305.75 214 1.2720973491669 15.02499961853 2188.0599002838 27470.889774483
14533	2580112 7513 20588 26598 252.25 305.75 215 486.6867980957 785.82187652588 120967.77004242 69917308.069718
14532	2587625 7519 20588 26598 252.25 305.75 215 236.01000976562 483.14999389648 95470.495117188 43444924.192903
14550	2595144 6289 21317 26724 258.75 307.25 195 0.973 11.450879080643 540.14387182686 2802.0599625784
14549	2601433 6457 21317 26724 258.75 307.25 195 -3.5188331604004 2.5000019073486 37.32285118103 311.26572481727
[...]
18104	22676975 10597 189795 203662 1706.25 1789 332 0 15.875 2121.8666694053 28073.032914971
18103	22687572 12276 189756 203662 1706 1789 333 198.82965087891 483.36395263672 144303.29025269 64362778.656277
18102	22699848 12250 189756 203662 1706 1789 333 486.85000610352 733.87629699707 170183.91285706 88102401.606332
vector 18347  IntersectionExampleScenario.node[622].veinsmobility  posx  ETV
vector 18348  IntersectionExampleScenario.node[622].veinsmobility  posy  ETV
vector 18349  IntersectionExampleScenario.node[622].veinsmobility  speed  ETV
vector 18350  IntersectionExampleScenario.node[622].veinsmobility  acceleration  ETV
vector 18351  IntersectionExampleScenario.node[622].veinsmobility  co2emission  ETV
18099	22712504 11493 189605 203875 1705 1790 341 0.973 11.990504229548 769.56889760378 3418.7627056282
18098	22723997 11545 189605 203875 1705 1790 341 -4.5 2.5 39.869146347046 648.76399607395
18097	22735542 11582 189566 203875 1704.75 1790 342 0 16.125 2288.7069865838 29854.062767913
18096	22747124 12571 189527 203875 1704.5 1790 343 166.998046875 734.04402160645 151970.68099976 72187919.203854
18095	22759695 12690 189527 203875 1704.5 1790 343 486.85000610352 486.85000610352 166989.55209351 81298864.455947
18127	22772385 9847 191990 204388 1720.5 1792.5 289 0.973 12.099024792222 685.70443702707 3343.3405305267
18126	22782232 10220 191990 204388 1720.5 1792.5 289 -4.5 2.5 41.227170944214 426.27310604102
18125	22792452 10352 191953 204388 1720.25 1792.5 290 0 16.27499961853 2178.5198383601 28379.643350257
18124	22802804 10721 191916 204388 1720 1792.5 291 184.17810058594 483.14999389648 122358.68087769 53389291.964458
18123	22813525 10758 191916 204388 1720 1792.5 291 486.85000610352 731.52917480469 149421.33592224 77774550.773346
18134	22824283 9687 192651 204972 1725.25 1795.5 282 0.973 11.810082123732 649.85653529909 3087.5741697379
18133	22833970 10106 192651 204972 1725.25 1795.5 282 -4.5 2.5000009536743 39.699392318726 404.24978028986
18132	22844076 10113 192616 204972 1725 1795.5 283 0 15.875 2190.0829464346 28664.815414722
18131	22854189 10462 192581 204972 1724.75 1795.5 284 184.17810058594 483.21200561523 118769.99893188 51580143.329031
18130	22864651 10501 192581 204972 1724.75 1795.5 284 486.85000610352 734.43690490723 146367.77842712 76535823.067332
18162	22875152 8541 193692 205343 1733 1797.5 259 0.973 11.440161957732 644.54502093696 3116.2767206872
18161	22883693 7704 193692 205343 1733 1797.5 259 -11.964805603027 4 36.98334312439 639.32776001597
18160	22891397 8107 193657 205343 1732.75 1797.5 260 0 15.360035896301 2263.7019691467 31467.342377797
18159	22899504 9595 193622 205343 1732.5 1797.5 261 237.36993408203 483.14999389648 117778.30001831 54243666.940054
18158	22909099 9622 193622 205343 1732.5 1797.5 261 162.00311279297 483.36395263672 108919.84689331 47990174.892049
vector 18354  IntersectionExampleScenario.node[623].veinsmobility  posx  ETV
vector 18355  IntersectionExampleScenario.node[623].veinsmobility  posy  ETV
vector 18356  IntersectionExampleScenario.node[623].veinsmobility  speed  ETV
vector 18357  IntersectionExampleScenario.node[623].veinsmobility  acceleration  ETV
vector 18358  IntersectionExampleScenario.node[623].veinsmobility  co2emission  ETV
vector 18361  IntersectionExampleScenario.node[624].veinsmobility  posx  ETV
vector 18362  IntersectionExampleScenario.node[624].veinsmobility  posy  ETV
vector 18363  IntersectionExampleScenario.node[624].veinsmobility  speed  ETV
18120	22919362 11676 190420 205805 1710.25 1800 360 0.973 11.00486315618 711.3328065137 2846.5174521441
18119	22931038 11843 190420 205805 1710.25 1800 360 -18.974472045898 4 34.437086105347 883.05265548511
18118	22942881 11718 190379 205805 1710 1800 361 0 14.75 1950.2331070788 23682.920954533
18117	22954599 13356 190338 205805 1709.75 1800 362 325.01007080078 808.82032012939 194400.33641815 107876457.13534
18116	22967955 13393 190338 205805 1709.75 1800 362 483.14999389648 483.14999389648 174900.29779053 84503077.809987
18141	22981348 9685 192886 205805 1727 1800 293 0.973 11.648172402475 647.77621983099 2927.2166402968
18140	22991033 10322 192886 205805 1727 1800 293 -3.8910591602325 2.5 39.699674606323 426.4827472514
18139	23001355 10121 192853 205805 1726.75 1800 294 0 15.64999961853 1809.6331963008 22451.662256822
18138	23011476 10892 192820 205805 1726.5 1800 295 483.13433837891 785.82187652588 162013.47916412 90932510.999924
18137	23022368 10911 192820 205805 1726.5 1800 295 483.14999389648 633.65846252441 145613.57627869 72149350.971746
18148	23033279 9016 193186 205805 1729.25 1800 284 0.973 11.200708441096 481.50229504293 1741.4634038291
18147	23042295 9284 193186 205805 1729.25 1800 284 -8.0043277740479 2.5 -22.60000038147 447.0494354179
18146	23051579 9356 193152 205805 1729 1800 285 0 15.380563735962 1172.588325467 13596.756932113
18145	23060935 10538 193117 205805 1728.75 1800 286 177.97814941406 471.60000610352 117633.36425781 50296208.473224
18144	23071473 10581 193117 205805 1728.75 1800 286 486.85000610352 486.85000610352 139239.10174561 67788557.534696
18176	23082054 8892 194251 205805 1736.75 1800 254 0.973 11.36141391502 629.89005824116 2879.4310049958
18175	23090946 8670 194251 205805 1736.75 1800 254 -4.5 2.5 38.171613693237 422.65405383117
18174	23099616 8977 194212 205805 1736.5 1800 255 0 15.25 2249.1991749061 31022.601495919
18173	23108593 9463 194173 205805 1736.25 1800 256 240.08435058594 483.14999389648 115679.77392578 53314379.690861
18172	23118056 9451 194173 205805 1736.25 1800 256 164.66687011719 483.22888183594 106374.75976562 46572101.111853
18183	23127507 8141 194802 205805 1740.25 1800 240 0.973 11.200708441096 574.46130082238 2682.079197429
18182	23135648 8675 194802 205805 1740.25 1800 240 -3.9735591411591 2.5000002384186 35.116056442261 348.35663166494
18181	23144323 8621 194761 205805 1740 1800 241 0 15.02499961853 2106.6048378702 26773.591561961
18180	23152944 8953 194719 205805 1739.75 1800 242 483.14999389648 483.14999389648 116922.29852295 56491007.817726
18179	23161897 8926 194719 205805 1739.75 1800 242 164.77874755859 687.0147857666 104072.48908997 48570098.405537
18190	23170823 7074 195465 205805 1744.5 1800 223 0.973 11.648172402475 402.072449538 1629.3040208102
18189	23177897 7897 195465 205805 1744.5 1800 223 -4.5 2.5 -22.60000038147 314.05030393083
18188	23185794 7795 195426 205805 1744.25 1800 224 0 15.64999961853 1123.6434060568 12781.226912598
18187	23193589 8282 195387 205805 1744 1800 225 184.17810058594 465.20114135742 89968.992004395 37582546.974217
18186	23201871 8323 195387 205805 1744 1800 225 486.84994506836 486.85000610352 109541.2512207 53330158.751098
18197	23210194 6900 195737 205805 1746.25 1800 216 0.973 11.200708441096 396.66627147002 1552.8455041073
18196	23217094 7180 195737 205805 1746.25 1800 216 -8.0536155700684 2.5 -22.60000038147 433.28456755299
18195	23224274 7256 195698 205805 1746 1800 217 0 15.02499961853 1146.2006628495 13503.991552081
18194	23231530 8065 195659 205805 1745.75 1800 218 483.14999389648 483.14999389648 105326.69866943 50888593.819274
18193	23239595 8033 195659 205805 1745.75 1800 218 184.17810058594 471.60000610352 87581.638397217 36856593.603902
18204	23247628 7196 195858 205805 1747 1800 213 0.973 11.200708441096 515.19705536245 2534.9200730189
18203	23254824 7708 195858 205805 1747 1800 213 -3.9145503044128 2.5 35.796545028687 327.41198789872
18202	23262532 7711 195817 205805 1746.75 1800 214 0 15.02499961853 1681.5412905384 20795.577384476
18201	23270243 7923 195776 205805 1746.5 1800 215 370.21481323242 785.82187652588 119684.00437164 68821581.713585
18200	23278166 7954 195776 205805 1746.5 1800 215 483.14999389648 483.14999389648 103877.24868774 50188292.069467
18211	23286120 6907 196273 205805 1749.5 1800 203 0.973 11.200708441096 398.19865907525 1567.3194840179
18210	23293027 7460 196273 205805 1749.5 1800 203 -4.5 2.5 -22.444410175085 383.54072669398
18209	23300487 7499 196229 205805 1749.25 1800 204 0 15.661108970642 1169.0636306601 14586.280232222
18208	23307986 7583 196186 205805 1749 1800 205 483.14999389648 483.14999389648 99045.748748779 47853952.903445
18207	23315569 7540 196186 205805 1749 1800 205 172.9296875 465.17913818359 80342.346679688 33173682.372181
18218	23323109 6494 196316 205805 1749.75 1800 202 0.973 11.648172402475 508.01779837485 2563.7988376951
18217	23329603 5775 196316 205805 1749.75 1800 202 -45.251140594482 4 35.464910507202 2340.8507393338
18216	23335378 6130 196273 205805 1749.5 1800 203 0 15.64999961853 1389.6898097992 19131.655771842
18215	23341508 7548 196229 205805 1749.25 1800 204 486.85000610352 486.85000610352 99317.401245117 48352677.40237
18214	23349056 7529 196229 205805 1749.25 1800 204 442.00375366211 785.82187652588 113645.81102753 65231875.08313
18225	23356585 6335 196979 205805 1753.75 1800 186 0.973 11.200708441096 350.19491655345 1415.2766229026
18224	23362920 6874 196979 205805 1753.75 1800 186 -4.5 2.5 -18.670481920242 277.75300843517
18223	23369794 6888 196936 205805 1753.5 1800 187 0 15.02499961853 1130.4748741873 13658.226422259
18222	23376682 6956 196893 205805 1753.25 1800 188 483.14999389648 483.14999389648 90832.198852539 43885576.321208
18221	23383638 6914 196893 205805 1753.25 1800 188 174.19293212891 456.36059570312 71369.46862793 28572264.57461
18232	23390552 5978 197069 205805 1754.25 1800 184 0.973 11.200708441096 337.02524690604 1373.8367095175
18231	23396530 6817 197069 205805 1754.25 1800 184 -4.5 2.5 -22.104566216469 219.61056574148
18230	23403347 6813 197024 205805 1754 1800 185 0 15.02499961853 1094.8919495884 12053.688822553
18229	23410160 6846 196979 205805 1753.75 1800 186 184.17810058594 458.41516113281 71651.734924316 29013377.225972
18228	23417006 6881 196979 205805 1753.75 1800 186 486.85000610352 486.85000610352 90554.101135254 44086264.690397
18239	23423887 5808 197505 205805 1756.75 1800 174 0.973 11.648172402475 402.57093850986 1838.8631352472
18238	23429695 6477 197505 205805 1756.75 1800 174 -3.8661122322083 2.5 19.237085342407 274.86732533836
18237	23436172 6442 197461 205805 1756.5 1800 175 0 15.64999961853 1290.7083628234 15367.538836578
18236	23442614 6512 197416 205805 1756.25 1800 176 486.85000610352 486.85000610352 85685.601074219 41716035.405967
18235	23449126 6500 197416 205805 1756.25 1800 176 466.21173095703 785.82187652588 101376.49227142 59988968.915453
18246	23455626 5487 197852 205805 1758.75 1800 166 0.973 11.200708441096 322.58642849643 1359.4040652609
18245	23461113 6058 197852 205805 1758.75 1800 166 -4.5 2.5 -22.014323472977 300.16976303038
18244	23467171 6149 197807 205805 1758.5 1800 167 0 15.314749717712 1065.1828949414 12809.044995035
18243	23473320 6184 197763 205805 1758.25 1800 168 184.17810058594 450.44006347656 63504.858123779 25274001.183522
18242	23479504 6216 197763 205805 1758.25 1800 168 486.85000610352 486.85003662109 81790.801086426 39819852.037853
18253	23485720 5445 197897 205805 1759 1800 165 0.973 11.200708441096 377.22209125172 1661.3939478421
18252	23491165 5921 197897 205805 1759 1800 165 -4.5 2.5000000596046 13.39999961853 342.63318137783
18251	23497086 6022 197852 205805 1758.75 1800 166 0 15.02499961853 1281.7531323582 14860.757692618
18250	23503108 6178 197807 205805 1758.5 1800 167 482.25338745117 486.85000610352 81292.722564697 39571931.840056
18249	23509286 6158 197807 205805 1758.5 1800 167 486.13455200195 802.70781707764 99623.48210907 61012018.163938
18260	23515444 4931 198518 205805 1762.5 1800 151 0.973 11.200708441096 343.25332061987 1567.6700194472
18259	23520375 5432 198518 205805 1762.5 1800 151 -4.5 2.5000009536743 10.811269760132 347.40672624858
18258	23525807 5542 198473 205805 1762.25 1800 152 0 15.02499961853 1197.9058806039 14103.282737027
18257	23531349 5659 198428 205805 1762 1800 153 486.85000610352 486.85000610352 74488.050933838 36264508.051778
18256	23537008 5638 198428 205805 1762 1800 153 507.28857421875 803.90860748291 93032.7838974 57991333.644831
18267	23542646 4762 198612 205805 1763 1800 149 0.973 11.648172402475 307.3926372851 1446.1802039798
18266	23547408 5440 198612 205805 1763 1800 149 -4.5 2.5 -18.267023086548 231.94210804263
18265	23552848 5520 198565 205805 1762.75 1800 150 0 15.64999961853 1044.9376585148 12136.300940561
18264	23558368 5586 198518 205805 1762.5 1800 151 483.14999389648 483.14999389648 72955.649078369 35248521.406928
18263	23563954 5547 198518 205805 1762.5 1800 151 184.17810058594 445.31481933594 55192.865570068 21255003.128395
18274	23569501 4774 198897 205805 1764.5 1800 143 0.973 11.810082123732 463.03294112449 2883.3063564614
18273	23574275 4797 198897 205805 1764.5 1800 143 -2.7499217987061 2.5000019073486 38.959356307983 347.598101757
18272	23579072 4985 198849 205805 1764.25 1800 144 3.2504029273987 15.875 1491.0521333218 17996.430980276
18271	23584057 5351 198800 205805 1764 1800 145 486.85000610352 785.82187652588 85898.316139221 52282382.49315
18270	23589408 5360 198800 205805 1764 1800 145 410.52008056641 483.14999389648 69228.937957764 33085827.729997
18281	23594768 3277 200680 205805 1774 1800 105 0.96333723109819 12.099024792222 260.65628833521 1506.5383829747
18280	23598045 3788 200680 205805 1774 1800 105 -2.1484031677246 2.5 -16.987069606781 179.26837562432
18279	23601833 3904 200631 205805 1773.75 1800 106 1.4032326936722 16.27499961853 1025.8196035624 12733.969591105
18278	23605737 3924 200582 205805 1773.5 1800 107 184.17810058594 440.34677124023 36290.024902344 13110159.888833
18277	23609661 3958 200582 205805 1773.5 1800 107 486.85000610352 486.85003662109 52092.950683594 25361453.373115
18288	23613619 3297 200680 205805 1774 1800 105 0.973 11.648172402475 255.05113274387 1397.3579347608
18287	23616916 3758 200680 205805 1774 1800 105 -2.7637977600098 2.5 -17.897023200989 188.97572441695
18286	23620674 3908 200631 205805 1773.75 1800 106 0.90432035923004 15.64999961853 1016.4471467733 12108.460953723
18285	23624582 3958 200582 205805 1773.5 1800 107 483.14999389648 483.14999389648 51697.049346924 24977429.076432
18284	23628540 3933 200582 205805 1773.5 1800 107 184.17810058594 438.04013061523 35935.821685791 12841748.313557
18295	23632473 3182 201067 205805 1776 1800 97 0.973 11.648172402475 292.79024325772 1815.3322164799
18294	23635655 3342 201067 205805 1776 1800 97 -8.5790176391602 2.5 -22.60000038147 365.78917081481
18293	23638997 3463 201016 205805 1775.75 1800 98 0 15.684678077698 1146.8042955399 16013.770481903
18292	23642460 3659 200965 205805 1775.5 1800 99 498.39999389648 785.82187652588 62218.293617249 40051593.40468
18291	23646119 3662 200965 205805 1775.5 1800 99 483.14999389648 483.14999389648 47831.849395752 23109957.743615
18302	23649781 3209 201067 205805 1776 1800 97 0.973 12.099024792222 262.57871137918 1526.9284066482
18301	23652990 3361 201067 205805 1776 1800 97 -4.5 2.5 -11.442202568054 249.30615622737
18300	23656351 3608 201016 205805 1775.75 1800 98 2.2009749412537 16.27499961853 1064.3595507145 13950.02297083
18299	23659959 3618 200965 205805 1775.5 1800 99 166.078125 431.56454467773 31487.451538086 10820194.796441
18298	23663577 3662 200965 205805 1775.5 1800 99 486.85000610352 486.85000610352 48198.150604248 23465269.915856
18309	23667239 2825 201615 205805 1778.75 1800 86 0.973 10.756497587458 222.67817172338 1136.4713018976
18308	23670064 3156 201615 205805 1778.75 1800 86 -2.8081569671631 2.5 -2.1429252624512 151.21622948973
18307	23673220 3200 201564 205805 1778.5 1800 87 5.1142687797546 14.39999961853 1012.8352708817 12549.214894688
18306	23676420 3246 201513 205805 1778.25 1800 88 160.90466308594 412.7243347168 25644.635681152 8056535.6520694
18305	23679666 3256 201513 205805 1778.25 1800 88 486.85000610352 486.85000610352 42842.800537109 20858017.702983
18316	23682922 2789 201867 205805 1780 1800 81 0.973 11.200708441096 240.32278969268 1295.3458961051
18315	23685711 3020 201867 205805 1780 1800 81 -3.8872184753418 2.5 1.8144569396973 180.07547583221
18314	23688731 3017 201816 205805 1779.75 1800 82 5.6500000953674 15.197822570801 1087.4812736511 15049.884128593
18313	23691748 3054 201765 205805 1779.5 1800 83 522.09466552734 792.02188110352 54877.72203064 36896269.500492
18312	23694802 3070 201765 205805 1779.5 1800 83 483.14999389648 483.14999389648 40101.449493408 19375015.07798
18323	23697872 2167 202939 205805 1785.5 1800 59 0.973 11.648172402475 221.93039972839 1371.2315815896
18322	23700039 2153 202939 205805 1785.5 1800 59 -0.41465759277344 2.5 38.341367721558 100.39300187913
18321	23702192 2206 202890 205805 1785.25 1800 60 5.6500000953674 15.64999961853 837.41359329224 12106.653459206
18320	23704398 2255 202841 205805 1785 1800 61 486.85000610352 486.85000610352 29697.850372314 14458398.635023
18319	23706653 2252 202841 205805 1785 1800 61 581.58358764648 785.82187652588 42305.93825531 29588642.675771
18330	23708905 1900 203139 205805 1786.5 1800 55 0.973 11.648172402475 199.44010834491 1309.0585134882
18329	23710805 1959 203139 205805 1786.5 1800 55 -1.7285575866699 2.5 22.093084335327 123.41283743724
18328	23712764 2059 203088 205805 1786.25 1800 56 5.6500000953674 15.64999961853 752.63572788239 10521.877116086
18327	23714823 2107 203037 205805 1786 1800 57 483.14999389648 483.14999389648 27539.5496521 13305733.246324
18326	23716930 2087 203037 205805 1786 1800 57 184.17810058594 368.7014465332 15320.513793945 4314402.4286129
18337	23719017 1871 203344 205805 1787.5 1800 51 0.973 11.648172402475 205.17344424498 1335.5833877504
18336	23720888 1842 203344 205805 1787.5 1800 51 -0.37222290039062 2.5 38.51117515564 100.31667383388
18335	23722730 1908 203291 205805 1787.25 1800 52 5.6500000953674 15.64999961853 716.88886165619 10291.22248385
18334	23724638 1959 203238 205805 1787 1800 53 486.85000610352 486.85000610352 25803.050323486 12562215.207479
18333	23726597 1954 203238 205805 1787 1800 53 629.81079101562 803.92188262939 38500.05670166 28125320.357412
18344	23728551 1760 203344 205805 1787.5 1800 51 0.973 10.756497587458 196.39368786596 1199.1473465681
18343	23730311 1761 203344 205805 1787.5 1800 51 -1.4596481323242 2.5 29.835836410522 105.13565328243
18342	23732072 1912 203291 205805 1787.25 1800 52 5.6500000953674 15.331922531128 684.21354579926 9339.0317005829
18341	23733984 1941 203238 205805 1787 1800 53 184.17810058594 350.95031738281 13775.883300781 3728389.6009112
18340	23735925 1959 203238 205805 1787 1800 53 486.85000610352 486.85000610352 25803.050323486 12562215.207479
18351	23737884 1548 203822 205805 1789.75 1800 42 1.9337556822354 11.648172402475 190.61551721984 1311.1740115134
18350	23739432 1472 203822 205805 1789.75 1800 42 -0.075153350830078 2.5 39.699556350708 100.01290034845
18349	23740904 1577 203769 205805 1789.5 1800 43 5.6500000953674 15.64999961853 586.22133159637 8401.5554518111
18348	23742481 1627 203715 205805 1789.25 1800 44 644.48443603516 785.82187652588 31879.372245789 23185197.8762
18347	23744108 1628 203715 205805 1789.25 1800 44 483.14999389648 483.14999389648 21258.599731445 10271092.330496
18358	23745736 256 205527 205805 1798.5 1800 7 5.2162187258585 7.726741696285 45.269477411621 297.66192607747
18357	23745992 186 205527 205805 1798.5 1800 7 2.4999980926514 2.5 17.499998092651 43.74999046326
18356	23746178 295 205480 205805 1798.25 1800 8 5.6500000953674 10.02499961853 62.699998855591 507.81747729302
18355	23746473 331 205433 205805 1798 1800 9 486.85000610352 486.85000610352 4381.6500549316 2133206.3559869
18354	23746804 331 205433 205805 1798 1800 9 773.20001220703 785.82187652588 7026.2844314575 5485575.2121343
18363	23747135 35 205805 205805 1800 1800 1 5.6500000953674 5.6500000953674 5.6500000953674 31.922501077652
18362	23747170 73 205757 205805 1799.75 1800 2 483.14999389648 483.14999389648 966.29998779297 466867.83320435
18361	23747243 73 205757 205805 1799.75 1800 2 184.17810058594 184.17810058594 368.35620117188 67843.145470887
13989	23747316 638 0 205804 0 1800 31 0 31 596 12486
13990	23747954 653 0 205804 0 1800 31 0 231 3343 506307
