file 25086348 1591399433                                        
version 2
run nodebug-34-20200605-19:19:46-18076
attr configname nodebug
attr datetime 20200605-19:19:46
attr experiment nodebug
attr inifile omnetpp.ini
attr iterationvars ""
attr iterationvars2 $repetition=34
attr measurement ""
attr network "\"org.car2x.veins.modules.application.ExtTraCIScenarioManagerLaunchd.IntersectionExampleScenario\""
attr processid 18076
attr repetition 34
attr replication #34
attr resultdir results
attr runnumber 34
attr seedset 34
param **.coreDebug false
param **.debug false
param *.**.nic.mac1609_4.bitrate 18Mbps
param *.**.nic.mac1609_4.txPower 20mW
param *.**.nic.mac1609_4.useServiceChannel false
param *.**.nic.phy80211p.analogueModels "xmldoc(\"config.xml\")"
param *.**.nic.phy80211p.decider "xmldoc(\"config.xml\")"
param *.**.nic.phy80211p.sensitivity -89dBm
param *.**.nic.phy80211p.thermalNoise -110dBm
param *.**.nic.phy80211p.usePropagationDelay true
param *.**.nic.phy80211p.useThermalNoise true
param *.annotations.draw false
param *.connectionManager.alpha 2.0
param *.connectionManager.carrierFrequency "5.890e9 Hz"
param *.connectionManager.pMax 20mW
param *.connectionManager.sat -89dBm
param *.connectionManager.sendDirect true
param *.manager.autoShutdown true
param *.manager.host "\"localhost\""
param *.manager.launchConfig "xmldoc(\"paramics.launchd.xml\")"
param *.manager.margin 25
param *.manager.moduleDisplayString "\"\""
param *.manager.moduleName "\"node\""
param *.manager.moduleType "\"org.car2x.veins.nodes.Car\""
param *.manager.port 9999
param *.manager.updateInterval 250ms
param *.node[*0].veinsmobility.accidentCount 0
param *.node[*0].veinsmobility.accidentDuration 30s
param *.node[*0].veinsmobility.accidentStart 75s
param *.node[*].appl.LiderSelectZoneRadio 55.0
param *.node[*].appl.ShareDataZoneRadio 110.0
param *.node[*].appl.TiempoSemaforo 30.0
param *.node[*].appl.beaconInterval 1s
param *.node[*].appl.beaconPriority 3
param *.node[*].appl.dataOnSch false
param *.node[*].appl.dataPriority 2
param *.node[*].appl.debug false
param *.node[*].appl.headerLength "256 bit"
param *.node[*].appl.maxOffset 0.005s
param *.node[*].appl.sendBeacons false
param *.node[*].appl.sendData true
param *.node[*].applType "\"Dummy\""
param *.node[*].mobilityType "\"TraCIMobility\""
param *.node[*].mobilityType.debug true
param *.node[*].veinsmobility.x 0
param *.node[*].veinsmobility.y 0
param *.node[*].veinsmobility.z 1.895
param *.node[*].veinsmobilityType "\"org.car2x.veins.modules.mobility.traci.TraCIMobility\""
param *.node[*].veinsmobilityType.debug true
param *.playgroundSizeX 8500m
param *.playgroundSizeY 8500m
param *.playgroundSizeZ 50m
param *.world.use2D false
param *.world.useTorus false

vector 54745  IntersectionExampleScenario.manager  vehiclesinsim  ETV
attr type  int
vector 54746  IntersectionExampleScenario.manager  realtime  ETV
attr type  int
attr unit  s
vector 54749  IntersectionExampleScenario.node[0].veinsmobility  posx  ETV
vector 54750  IntersectionExampleScenario.node[0].veinsmobility  posy  ETV
vector 54756  IntersectionExampleScenario.node[1].veinsmobility  posx  ETV
vector 54757  IntersectionExampleScenario.node[1].veinsmobility  posy  ETV
vector 54751  IntersectionExampleScenario.node[0].veinsmobility  speed  ETV
vector 54752  IntersectionExampleScenario.node[0].veinsmobility  acceleration  ETV
vector 54753  IntersectionExampleScenario.node[0].veinsmobility  co2emission  ETV
vector 54758  IntersectionExampleScenario.node[1].veinsmobility  speed  ETV
vector 54759  IntersectionExampleScenario.node[1].veinsmobility  acceleration  ETV
vector 54760  IntersectionExampleScenario.node[1].veinsmobility  co2emission  ETV
vector 54763  IntersectionExampleScenario.node[2].veinsmobility  posx  ETV
vector 54764  IntersectionExampleScenario.node[2].veinsmobility  posy  ETV
vector 54765  IntersectionExampleScenario.node[2].veinsmobility  speed  ETV
vector 54770  IntersectionExampleScenario.node[3].veinsmobility  posx  ETV
vector 54771  IntersectionExampleScenario.node[3].veinsmobility  posy  ETV
vector 54766  IntersectionExampleScenario.node[2].veinsmobility  acceleration  ETV
vector 54767  IntersectionExampleScenario.node[2].veinsmobility  co2emission  ETV
vector 54772  IntersectionExampleScenario.node[3].veinsmobility  speed  ETV
vector 54773  IntersectionExampleScenario.node[3].veinsmobility  acceleration  ETV
vector 54774  IntersectionExampleScenario.node[3].veinsmobility  co2emission  ETV
vector 54777  IntersectionExampleScenario.node[4].veinsmobility  posx  ETV
vector 54778  IntersectionExampleScenario.node[4].veinsmobility  posy  ETV
vector 54779  IntersectionExampleScenario.node[4].veinsmobility  speed  ETV
vector 54780  IntersectionExampleScenario.node[4].veinsmobility  acceleration  ETV
vector 54781  IntersectionExampleScenario.node[4].veinsmobility  co2emission  ETV
vector 54784  IntersectionExampleScenario.node[5].veinsmobility  posx  ETV
vector 54785  IntersectionExampleScenario.node[5].veinsmobility  posy  ETV
vector 54786  IntersectionExampleScenario.node[5].veinsmobility  speed  ETV
vector 54787  IntersectionExampleScenario.node[5].veinsmobility  acceleration  ETV
vector 54788  IntersectionExampleScenario.node[5].veinsmobility  co2emission  ETV
vector 54791  IntersectionExampleScenario.node[6].veinsmobility  posx  ETV
vector 54792  IntersectionExampleScenario.node[6].veinsmobility  posy  ETV
vector 54793  IntersectionExampleScenario.node[6].veinsmobility  speed  ETV
vector 54794  IntersectionExampleScenario.node[6].veinsmobility  acceleration  ETV
vector 54795  IntersectionExampleScenario.node[6].veinsmobility  co2emission  ETV
vector 54798  IntersectionExampleScenario.node[7].veinsmobility  posx  ETV
vector 54799  IntersectionExampleScenario.node[7].veinsmobility  posy  ETV
vector 54800  IntersectionExampleScenario.node[7].veinsmobility  speed  ETV
vector 54805  IntersectionExampleScenario.node[8].veinsmobility  posx  ETV
vector 54806  IntersectionExampleScenario.node[8].veinsmobility  posy  ETV
vector 54801  IntersectionExampleScenario.node[7].veinsmobility  acceleration  ETV
vector 54802  IntersectionExampleScenario.node[7].veinsmobility  co2emission  ETV
vector 54807  IntersectionExampleScenario.node[8].veinsmobility  speed  ETV
vector 54812  IntersectionExampleScenario.node[9].veinsmobility  posx  ETV
vector 54813  IntersectionExampleScenario.node[9].veinsmobility  posy  ETV
vector 54808  IntersectionExampleScenario.node[8].veinsmobility  acceleration  ETV
vector 54809  IntersectionExampleScenario.node[8].veinsmobility  co2emission  ETV
vector 54814  IntersectionExampleScenario.node[9].veinsmobility  speed  ETV
vector 54815  IntersectionExampleScenario.node[9].veinsmobility  acceleration  ETV
vector 54816  IntersectionExampleScenario.node[9].veinsmobility  co2emission  ETV
vector 54819  IntersectionExampleScenario.node[10].veinsmobility  posx  ETV
vector 54820  IntersectionExampleScenario.node[10].veinsmobility  posy  ETV
vector 54821  IntersectionExampleScenario.node[10].veinsmobility  speed  ETV
vector 54822  IntersectionExampleScenario.node[10].veinsmobility  acceleration  ETV
vector 54823  IntersectionExampleScenario.node[10].veinsmobility  co2emission  ETV
vector 54826  IntersectionExampleScenario.node[11].veinsmobility  posx  ETV
vector 54827  IntersectionExampleScenario.node[11].veinsmobility  posy  ETV
vector 54828  IntersectionExampleScenario.node[11].veinsmobility  speed  ETV
vector 54829  IntersectionExampleScenario.node[11].veinsmobility  acceleration  ETV
vector 54830  IntersectionExampleScenario.node[11].veinsmobility  co2emission  ETV
vector 54833  IntersectionExampleScenario.node[12].veinsmobility  posx  ETV
vector 54834  IntersectionExampleScenario.node[12].veinsmobility  posy  ETV
vector 54835  IntersectionExampleScenario.node[12].veinsmobility  speed  ETV
vector 54836  IntersectionExampleScenario.node[12].veinsmobility  acceleration  ETV
vector 54837  IntersectionExampleScenario.node[12].veinsmobility  co2emission  ETV
vector 54840  IntersectionExampleScenario.node[13].veinsmobility  posx  ETV
vector 54841  IntersectionExampleScenario.node[13].veinsmobility  posy  ETV
vector 54842  IntersectionExampleScenario.node[13].veinsmobility  speed  ETV
vector 54843  IntersectionExampleScenario.node[13].veinsmobility  acceleration  ETV
vector 54844  IntersectionExampleScenario.node[13].veinsmobility  co2emission  ETV
vector 54847  IntersectionExampleScenario.node[14].veinsmobility  posx  ETV
vector 54848  IntersectionExampleScenario.node[14].veinsmobility  posy  ETV
vector 54849  IntersectionExampleScenario.node[14].veinsmobility  speed  ETV
vector 54850  IntersectionExampleScenario.node[14].veinsmobility  acceleration  ETV
vector 54851  IntersectionExampleScenario.node[14].veinsmobility  co2emission  ETV
vector 54854  IntersectionExampleScenario.node[15].veinsmobility  posx  ETV
vector 54855  IntersectionExampleScenario.node[15].veinsmobility  posy  ETV
vector 54856  IntersectionExampleScenario.node[15].veinsmobility  speed  ETV
vector 54861  IntersectionExampleScenario.node[16].veinsmobility  posx  ETV
vector 54862  IntersectionExampleScenario.node[16].veinsmobility  posy  ETV
vector 54857  IntersectionExampleScenario.node[15].veinsmobility  acceleration  ETV
vector 54858  IntersectionExampleScenario.node[15].veinsmobility  co2emission  ETV
vector 54863  IntersectionExampleScenario.node[16].veinsmobility  speed  ETV
vector 54864  IntersectionExampleScenario.node[16].veinsmobility  acceleration  ETV
vector 54865  IntersectionExampleScenario.node[16].veinsmobility  co2emission  ETV
vector 54868  IntersectionExampleScenario.node[17].veinsmobility  posx  ETV
vector 54869  IntersectionExampleScenario.node[17].veinsmobility  posy  ETV
vector 54875  IntersectionExampleScenario.node[18].veinsmobility  posx  ETV
vector 54876  IntersectionExampleScenario.node[18].veinsmobility  posy  ETV
vector 54870  IntersectionExampleScenario.node[17].veinsmobility  speed  ETV
vector 54877  IntersectionExampleScenario.node[18].veinsmobility  speed  ETV
vector 54871  IntersectionExampleScenario.node[17].veinsmobility  acceleration  ETV
vector 54872  IntersectionExampleScenario.node[17].veinsmobility  co2emission  ETV
vector 54878  IntersectionExampleScenario.node[18].veinsmobility  acceleration  ETV
vector 54879  IntersectionExampleScenario.node[18].veinsmobility  co2emission  ETV
vector 54882  IntersectionExampleScenario.node[19].veinsmobility  posx  ETV
vector 54883  IntersectionExampleScenario.node[19].veinsmobility  posy  ETV
vector 54884  IntersectionExampleScenario.node[19].veinsmobility  speed  ETV
vector 54885  IntersectionExampleScenario.node[19].veinsmobility  acceleration  ETV
vector 54886  IntersectionExampleScenario.node[19].veinsmobility  co2emission  ETV
vector 54889  IntersectionExampleScenario.node[20].veinsmobility  posx  ETV
vector 54890  IntersectionExampleScenario.node[20].veinsmobility  posy  ETV
54760	11060 4938 42 3502 7.75 46.75 157 0.973 11.810082123732 517.90373363261 2909.6983444426
54759	15998 4439 42 3502 7.75 46.75 157 -3.4855461120605 2.5 39.869146347046 293.68389170006
54758	20437 4805 37 3502 7.5 46.75 158 5.6500000953674 15.875 2178.8975801468 31535.456910742
54757	25242 5156 32 3502 7.25 46.75 159 486.77386474609 785.82187652588 91051.781669617 53865339.549575
54756	30398 5156 32 3502 7.25 46.75 159 238.34899902344 483.14999389648 68911.306854248 30757759.767194
vector 54896  IntersectionExampleScenario.node[21].veinsmobility  posx  ETV
vector 54897  IntersectionExampleScenario.node[21].veinsmobility  posy  ETV
vector 54891  IntersectionExampleScenario.node[20].veinsmobility  speed  ETV
vector 54892  IntersectionExampleScenario.node[20].veinsmobility  acceleration  ETV
vector 54893  IntersectionExampleScenario.node[20].veinsmobility  co2emission  ETV
vector 54898  IntersectionExampleScenario.node[21].veinsmobility  speed  ETV
vector 54899  IntersectionExampleScenario.node[21].veinsmobility  acceleration  ETV
vector 54900  IntersectionExampleScenario.node[21].veinsmobility  co2emission  ETV
vector 54903  IntersectionExampleScenario.node[22].veinsmobility  posx  ETV
vector 54904  IntersectionExampleScenario.node[22].veinsmobility  posy  ETV
54767	36356 5240 71 3995 9 50.5 167 0.973 11.648172402475 514.19275134277 2749.6886150868
54766	41596 4806 71 3995 9 50.5 167 -4.5 2.5 38.171613693237 278.57402469781
54765	46402 5155 64 3995 8.75 50.5 168 5.6500000953674 15.64999961853 2269.9341540337 32031.206806916
54764	51557 5501 57 3995 8.5 50.5 169 486.84875488281 807.09531402588 98059.32850647 58979463.193894
54763	57058 5501 57 3995 8.5 50.5 169 236.85034179688 483.14999389648 73439.185638428 32857711.451628
vector 54905  IntersectionExampleScenario.node[22].veinsmobility  speed  ETV
vector 54906  IntersectionExampleScenario.node[22].veinsmobility  acceleration  ETV
vector 54907  IntersectionExampleScenario.node[22].veinsmobility  co2emission  ETV
vector 54910  IntersectionExampleScenario.node[23].veinsmobility  posx  ETV
vector 54911  IntersectionExampleScenario.node[23].veinsmobility  posy  ETV
vector 54912  IntersectionExampleScenario.node[23].veinsmobility  speed  ETV
vector 54913  IntersectionExampleScenario.node[23].veinsmobility  acceleration  ETV
vector 54914  IntersectionExampleScenario.node[23].veinsmobility  co2emission  ETV
54753	63207 5567 37 4281 7.5 52.5 181 0.973 11.36141391502 540.32098256408 2758.2137577943
54752	68774 5093 37 4281 7.5 52.5 181 -8.4870567321777 4 37.15309715271 476.36065124764
54751	73867 5435 32 4281 7.25 52.5 182 0 15.25 2176.7448656559 30094.704683899
54750	79302 5888 29 4281 7 52.5 183 486.85000610352 733.15849304199 97430.889556885 52858996.998
54749	85190 5939 29 4281 7 52.5 183 486.63604736328 785.82187652588 103360.01015472 60230044.674061
vector 54917  IntersectionExampleScenario.node[24].veinsmobility  posx  ETV
vector 54918  IntersectionExampleScenario.node[24].veinsmobility  posy  ETV
54788	91283 5231 184 4424 11.75 53.5 168 0.973 11.54047740176 512.69962122441 2696.027100542
54787	96514 4983 184 4424 11.75 53.5 168 -4.2291717529297 2.5 37.15309715271 296.50827304071
54786	101497 5292 171 4424 11.5 53.5 169 4.89666223526 15.5 2238.656223774 31034.537979793
54785	106789 5564 158 4424 11.25 53.5 170 486.85000610352 486.85000610352 82764.501037598 40293897.835309
54784	112353 5515 158 4424 11.25 53.5 170 235.63244628906 790.18281555176 88820.309257507 50731115.119581
vector 54919  IntersectionExampleScenario.node[24].veinsmobility  speed  ETV
vector 54920  IntersectionExampleScenario.node[24].veinsmobility  acceleration  ETV
vector 54921  IntersectionExampleScenario.node[24].veinsmobility  co2emission  ETV
54795	118115 5408 318 4894 14.25 56.75 171 0.973 11.200708441096 523.62036778747 2730.8709408975
54794	123523 5083 318 4894 14.25 56.75 171 -4.5 2.5 36.474081039429 285.8775258752
54793	128606 5423 303 4894 14 56.75 172 5.6500000953674 15.02499961853 2289.7393856049 31360.045200259
54792	134029 5673 288 4894 13.75 56.75 173 486.85000610352 486.85000610352 84225.051055908 41004966.620638
54791	139702 5652 288 4894 13.75 56.75 173 235.869140625 803.59610748291 91729.048217773 53311264.289461
54816	145354 5180 567 5139 18 58.5 163 0.973 11.200708441096 490.45939079032 2370.5039465689
54815	150534 4920 567 5139 18 58.5 163 -4.5 2.5 38.511121749878 195.51028206791
54814	155454 5166 546 5139 17.75 58.5 164 5.6500000953674 15.310104370117 2284.1251106262 32475.554241652
54813	160620 5423 525 5139 17.5 58.5 165 486.85000610352 486.85000610352 80330.25100708 39108783.193094
54812	166043 5407 525 5139 17.5 58.5 165 236.98229980469 802.66994476318 87588.065422058 51013582.739199
vector 54924  IntersectionExampleScenario.node[25].veinsmobility  posx  ETV
vector 54925  IntersectionExampleScenario.node[25].veinsmobility  posy  ETV
vector 54926  IntersectionExampleScenario.node[25].veinsmobility  speed  ETV
vector 54927  IntersectionExampleScenario.node[25].veinsmobility  acceleration  ETV
vector 54928  IntersectionExampleScenario.node[25].veinsmobility  co2emission  ETV
vector 54931  IntersectionExampleScenario.node[26].veinsmobility  posx  ETV
vector 54932  IntersectionExampleScenario.node[26].veinsmobility  posy  ETV
vector 54933  IntersectionExampleScenario.node[26].veinsmobility  speed  ETV
vector 54934  IntersectionExampleScenario.node[26].veinsmobility  acceleration  ETV
vector 54935  IntersectionExampleScenario.node[26].veinsmobility  co2emission  ETV
vector 54938  IntersectionExampleScenario.node[27].veinsmobility  posx  ETV
vector 54939  IntersectionExampleScenario.node[27].veinsmobility  posy  ETV
vector 54940  IntersectionExampleScenario.node[27].veinsmobility  speed  ETV
vector 54941  IntersectionExampleScenario.node[27].veinsmobility  acceleration  ETV
vector 54942  IntersectionExampleScenario.node[27].veinsmobility  co2emission  ETV
vector 54945  IntersectionExampleScenario.node[28].veinsmobility  posx  ETV
vector 54946  IntersectionExampleScenario.node[28].veinsmobility  posy  ETV
vector 54947  IntersectionExampleScenario.node[28].veinsmobility  speed  ETV
vector 54948  IntersectionExampleScenario.node[28].veinsmobility  acceleration  ETV
vector 54949  IntersectionExampleScenario.node[28].veinsmobility  co2emission  ETV
vector 54952  IntersectionExampleScenario.node[29].veinsmobility  posx  ETV
vector 54953  IntersectionExampleScenario.node[29].veinsmobility  posy  ETV
vector 54954  IntersectionExampleScenario.node[29].veinsmobility  speed  ETV
vector 54955  IntersectionExampleScenario.node[29].veinsmobility  acceleration  ETV
vector 54956  IntersectionExampleScenario.node[29].veinsmobility  co2emission  ETV
54774	173455 6891 89 6670 9.5 69 239 0.97223939240464 11.648172402475 609.85162567383 2976.2952897027
54773	180346 6199 89 6670 9.5 69 239 -7.1630792617798 4 38.680875778198 471.71272919869
54772	186545 6546 80 6670 9.25 69 240 0 15.64999961853 2189.1655395031 31036.837682078
54771	193091 7876 71 6670 9 69 241 483.14999389648 734.76512145996 124904.34028625 65857289.727469
54770	200967 7859 71 6670 9 69 241 184.17810058594 486.85000610352 101935.84039307 45174470.541328
vector 54959  IntersectionExampleScenario.node[30].veinsmobility  posx  ETV
vector 54960  IntersectionExampleScenario.node[30].veinsmobility  posy  ETV
vector 54961  IntersectionExampleScenario.node[30].veinsmobility  speed  ETV
vector 54962  IntersectionExampleScenario.node[30].veinsmobility  acceleration  ETV
vector 54963  IntersectionExampleScenario.node[30].veinsmobility  co2emission  ETV
54823	209227 6272 676 7030 19.25 71.5 210 0.973 11.648172402475 567.74829369569 2892.9584063899
54822	215499 6533 676 7030 19.25 71.5 210 -3.9498529434204 2.5 38.511121749878 334.78945129304
54821	222032 6673 653 7030 19 71.5 211 0 15.64999961853 2202.2763518393 29267.24065129
54820	228705 6974 630 7030 18.75 71.5 212 483.14999389648 731.83502197266 110725.34446716 58880660.567272
54819	235679 6953 630 7030 18.75 71.5 212 184.17810058594 487.05133056641 87274.686035156 37833180.470108
vector 54966  IntersectionExampleScenario.node[31].veinsmobility  posx  ETV
vector 54967  IntersectionExampleScenario.node[31].veinsmobility  posy  ETV
vector 54968  IntersectionExampleScenario.node[31].veinsmobility  speed  ETV
vector 54969  IntersectionExampleScenario.node[31].veinsmobility  acceleration  ETV
vector 54970  IntersectionExampleScenario.node[31].veinsmobility  co2emission  ETV
vector 54973  IntersectionExampleScenario.node[32].veinsmobility  posx  ETV
vector 54974  IntersectionExampleScenario.node[32].veinsmobility  posy  ETV
vector 54975  IntersectionExampleScenario.node[32].veinsmobility  speed  ETV
vector 54976  IntersectionExampleScenario.node[32].veinsmobility  acceleration  ETV
vector 54977  IntersectionExampleScenario.node[32].veinsmobility  co2emission  ETV
vector 54980  IntersectionExampleScenario.node[33].veinsmobility  posx  ETV
vector 54981  IntersectionExampleScenario.node[33].veinsmobility  posy  ETV
vector 54982  IntersectionExampleScenario.node[33].veinsmobility  speed  ETV
vector 54983  IntersectionExampleScenario.node[33].veinsmobility  acceleration  ETV
vector 54984  IntersectionExampleScenario.node[33].veinsmobility  co2emission  ETV
54781	243835 7636 147 7921 11 77.5 267 0.973 11.450879080643 663.24124026254 3179.307425628
54780	251471 6874 147 7921 11 77.5 267 -7.4291167259216 4 36.98334312439 580.62065160747
54779	258345 7244 136 7921 10.75 77.5 268 0 15.375 2314.0542067289 32122.371664818
54778	265589 8812 125 7921 10.5 77.5 269 483.14999389648 814.55860137939 148544.12404633 84735774.568076
54777	274401 8819 125 7921 10.5 77.5 269 483.14999389648 732.12057495117 138479.23736572 72432020.439084
54809	283220 7401 525 8026 17.5 78.25 244 0.973 11.54047740176 608.80363424029 2868.9677028083
54808	290621 7156 525 8026 17.5 78.25 244 -4.5 2.5 38.341367721558 446.40111342833
54807	297777 7360 506 8026 17.25 78.25 245 0 15.5 2117.497412256 29438.601137772
54806	305137 8070 487 8026 17 78.25 246 237.54840087891 762.38887023926 125128.36210632 67282429.594168
54805	313207 8093 487 8026 17 78.25 246 483.14999389648 483.14999389648 118854.89849854 57424743.484134
54802	321300 7959 487 8449 17 81.5 259 0.973 11.450879080643 628.98931056962 2831.1167779442
54801	329259 8215 487 8449 17 81.5 259 -4.1830825805664 2.5000019073486 36.98334312439 395.02956047416
54800	337474 8242 470 8449 16.75 81.5 260 0 15.375 2234.5082079545 29386.705797328
54799	345716 8573 453 8449 16.5 81.5 261 483.1247253418 791.46836853027 144808.77793121 82592387.389077
54798	354289 8586 453 8449 16.5 81.5 261 483.14999389648 734.96612548828 134808.7273407 70801537.495087
vector 54987  IntersectionExampleScenario.node[34].veinsmobility  posx  ETV
vector 54988  IntersectionExampleScenario.node[34].veinsmobility  posy  ETV
vector 54989  IntersectionExampleScenario.node[34].veinsmobility  speed  ETV
vector 54994  IntersectionExampleScenario.node[35].veinsmobility  posx  ETV
vector 54995  IntersectionExampleScenario.node[35].veinsmobility  posy  ETV
vector 54990  IntersectionExampleScenario.node[34].veinsmobility  acceleration  ETV
vector 54991  IntersectionExampleScenario.node[34].veinsmobility  co2emission  ETV
vector 54996  IntersectionExampleScenario.node[35].veinsmobility  speed  ETV
vector 54997  IntersectionExampleScenario.node[35].veinsmobility  acceleration  ETV
vector 54998  IntersectionExampleScenario.node[35].veinsmobility  co2emission  ETV
vector 55001  IntersectionExampleScenario.node[36].veinsmobility  posx  ETV
vector 55002  IntersectionExampleScenario.node[36].veinsmobility  posy  ETV
vector 55003  IntersectionExampleScenario.node[36].veinsmobility  speed  ETV
vector 55004  IntersectionExampleScenario.node[36].veinsmobility  acceleration  ETV
vector 55005  IntersectionExampleScenario.node[36].veinsmobility  co2emission  ETV
54830	364078 7055 1186 8907 24.75 85 242 0.973 11.200708441096 591.02862726492 2741.7442413651
54829	371133 6518 1186 8907 24.75 85 242 -7.5005760192871 4 35.795072555542 467.12785994431
54828	377651 6728 1161 8907 24.5 85 243 0 15.02499961853 2186.3275249004 29720.207363736
54827	384379 7992 1136 8907 24.25 85 244 486.85000610352 735.56745910645 127480.87945557 67732435.807524
54826	392371 8038 1136 8907 24.25 85 244 486.63604736328 785.82187652588 133888.64469147 75533780.062591
54837	400409 7219 1540 9072 28.25 86.25 233 0.973 11.093806525473 574.10253566792 2572.0637569961
54836	407628 7197 1540 9072 28.25 86.25 233 -3.9599876403809 2.5000002384186 34.606801986694 358.96310676832
54835	414825 7557 1513 9072 28 86.25 234 0 14.875 2255.0307682436 29728.944686504
54834	422382 7755 1486 9072 27.75 86.25 235 486.85000610352 486.85000610352 114409.75143433 55700388.184103
54833	430137 7735 1486 9072 27.75 86.25 235 236.03186035156 795.46562957764 122107.03847504 68043917.668565
vector 55008  IntersectionExampleScenario.node[37].veinsmobility  posx  ETV
vector 55009  IntersectionExampleScenario.node[37].veinsmobility  posy  ETV
vector 55010  IntersectionExampleScenario.node[37].veinsmobility  speed  ETV
vector 55011  IntersectionExampleScenario.node[37].veinsmobility  acceleration  ETV
vector 55012  IntersectionExampleScenario.node[37].veinsmobility  co2emission  ETV
54872	438273 5606 2842 9210 41 87.25 186 0.973 12.099024792222 567.11538958007 3038.0850718316
54871	443879 5834 2842 9210 41 87.25 186 -2.2489585876465 2.5000009536743 41.227170944214 321.54577458232
54870	449713 5857 2813 9210 40.75 87.25 187 2.6059873104095 16.27499961853 2180.9536268711 29400.583944916
54869	455570 6197 2784 9210 40.5 87.25 188 486.85000610352 732.00970458984 99353.284210205 53447661.210177
54868	461767 6190 2784 9210 40.5 87.25 188 486.83779907227 785.82187652588 106433.7723465 62016148.487853
vector 55015  IntersectionExampleScenario.node[38].veinsmobility  posx  ETV
vector 55016  IntersectionExampleScenario.node[38].veinsmobility  posy  ETV
vector 55017  IntersectionExampleScenario.node[38].veinsmobility  speed  ETV
vector 55022  IntersectionExampleScenario.node[39].veinsmobility  posx  ETV
vector 55023  IntersectionExampleScenario.node[39].veinsmobility  posy  ETV
vector 55029  IntersectionExampleScenario.node[40].veinsmobility  posx  ETV
vector 55030  IntersectionExampleScenario.node[40].veinsmobility  posy  ETV
vector 55018  IntersectionExampleScenario.node[38].veinsmobility  acceleration  ETV
vector 55019  IntersectionExampleScenario.node[38].veinsmobility  co2emission  ETV
54886	468666 5809 3183 9646 44 90.5 187 0.973 11.200708441096 534.62859042289 2726.8534295295
54885	474475 5792 3183 9646 44 90.5 187 -4.5 2.5 36.98334312439 314.23733155871
54884	480267 5888 3154 9646 43.75 90.5 188 5.0627903938293 15.218029975891 2234.9262151718 29075.174200542
54883	486155 6225 3125 9646 43.5 90.5 189 486.85000610352 733.54547119141 100405.43492126 54343525.914456
54882	492380 6216 3125 9646 43.5 90.5 189 486.85000610352 798.59687805176 108370.73158264 64132366.983112
vector 55024  IntersectionExampleScenario.node[39].veinsmobility  speed  ETV
vector 55031  IntersectionExampleScenario.node[40].veinsmobility  speed  ETV
vector 55025  IntersectionExampleScenario.node[39].veinsmobility  acceleration  ETV
vector 55026  IntersectionExampleScenario.node[39].veinsmobility  co2emission  ETV
vector 55032  IntersectionExampleScenario.node[40].veinsmobility  acceleration  ETV
vector 55033  IntersectionExampleScenario.node[40].veinsmobility  co2emission  ETV
vector 55036  IntersectionExampleScenario.node[41].veinsmobility  posx  ETV
vector 55037  IntersectionExampleScenario.node[41].veinsmobility  posy  ETV
vector 55038  IntersectionExampleScenario.node[41].veinsmobility  speed  ETV
vector 55039  IntersectionExampleScenario.node[41].veinsmobility  acceleration  ETV
vector 55040  IntersectionExampleScenario.node[41].veinsmobility  co2emission  ETV
54893	499491 5636 3566 9927 47.25 92.25 181 0.973 11.200708441096 520.94130024205 2668.8749243051
54892	505127 5510 3566 9927 47.25 92.25 181 -3.9453735351562 2.5 35.964826583862 268.86192577973
54891	510637 5725 3533 9927 47 92.25 182 5.6500000953674 15.02499961853 2283.2025547028 29979.405936604
54890	516362 6033 3502 9927 46.75 92.25 183 235.36651611328 486.85000610352 80260.932678223 36256219.217474
54889	522395 6028 3502 9927 46.75 92.25 183 483.11901855469 803.45782470703 105445.074646 62871224.509072
54844	528423 6895 2063 9968 33.25 92.5 238 0.973 12.099024792222 632.96287021105 3214.1629022816
54843	535318 6398 2063 9968 33.25 92.5 238 -9.2126979827881 4 41.396924972534 519.79770955098
54842	541716 6557 2036 9968 33 92.5 239 0 16.27499961853 2206.4508721828 32506.875108732
54841	548273 7887 2009 9968 32.75 92.5 240 184.17810058594 731.36383056641 109394.9516449 53860577.824299
54840	556160 7920 2009 9968 32.75 92.5 240 486.85000610352 486.85000610352 116844.00146484 56885502.826318
vector 55043  IntersectionExampleScenario.node[42].veinsmobility  posx  ETV
vector 55044  IntersectionExampleScenario.node[42].veinsmobility  posy  ETV
vector 55045  IntersectionExampleScenario.node[42].veinsmobility  speed  ETV
vector 55046  IntersectionExampleScenario.node[42].veinsmobility  acceleration  ETV
vector 55047  IntersectionExampleScenario.node[42].veinsmobility  co2emission  ETV
54879	564481 6587 2842 10409 41 95.25 218 0.973 11.36141391502 557.23748234536 2727.0378894843
54878	571068 6861 2842 10409 41 95.25 218 -3.9685935974121 2.5000004768372 37.32285118103 336.09783440376
54877	577929 6935 2813 10409 40.75 95.25 219 0 15.25 2063.1856643539 26871.708243643
54876	584864 7228 2784 10409 40.5 95.25 220 216.078125 483.29873657227 93296.996307373 40998593.518795
54875	592092 7263 2784 10409 40.5 95.25 220 486.85000610352 734.9535369873 115550.05273438 61758043.764393
54858	599355 6944 2623 10565 39 96.25 230 0.973 11.990504229548 640.35401508099 3197.7069183248
54857	606299 7225 2623 10565 39 96.25 230 -4.5 2.5 39.869146347046 550.28908873584
54856	613524 7424 2598 10565 38.75 96.25 231 0 16.125 2222.8210858591 29189.855350854
54855	620948 7638 2573 10565 38.5 96.25 232 184.17810058594 735.28440856934 102208.69618225 49527171.964898
54854	628586 7671 2573 10565 38.5 96.25 232 486.85000610352 486.85000610352 112949.20141602 54989319.398774
vector 55050  IntersectionExampleScenario.node[43].veinsmobility  posx  ETV
vector 55051  IntersectionExampleScenario.node[43].veinsmobility  posy  ETV
vector 55052  IntersectionExampleScenario.node[43].veinsmobility  speed  ETV
vector 55053  IntersectionExampleScenario.node[43].veinsmobility  acceleration  ETV
vector 55054  IntersectionExampleScenario.node[43].veinsmobility  co2emission  ETV
54865	636658 7171 2677 11028 39.5 99.25 240 0.973 11.450879080643 609.22129360343 2788.3624808178
54864	643829 7621 2677 11028 39.5 99.25 240 -4.5 2.5000019073486 37.492597579956 424.45484889144
54863	651450 7677 2650 11028 39.25 99.25 241 0 15.375 2300.3258563876 28589.587216496
54862	659127 7990 2623 11028 39 99.25 242 160.43438720703 486.87838745117 96015.371246338 40616000.370652
54861	667117 7997 2623 11028 39 99.25 242 237.34912109375 486.85000610352 109335.33618164 50511123.127956
54851	675114 7490 2481 11407 37.5 101.75 258 0.973 11.36141391502 613.75040621315 2823.2251953051
54850	682604 6670 2481 11407 37.5 101.75 258 -18.454189300537 4 36.474081039429 748.10636786858
54849	689274 7003 2457 11407 37.25 101.75 259 0 15.25 2182.3921070099 30159.519143461
54848	696277 8557 2432 11407 37 101.75 260 235.26263427734 483.14999389648 117087.72772217 53856352.467603
54847	704834 8604 2432 11407 37 101.75 260 184.17810058594 483.36395263672 110423.6963501 48997349.02401
vector 55057  IntersectionExampleScenario.node[44].veinsmobility  posx  ETV
vector 55058  IntersectionExampleScenario.node[44].veinsmobility  posy  ETV
vector 55059  IntersectionExampleScenario.node[44].veinsmobility  speed  ETV
vector 55060  IntersectionExampleScenario.node[44].veinsmobility  acceleration  ETV
vector 55061  IntersectionExampleScenario.node[44].veinsmobility  co2emission  ETV
54935	713839 5347 5655 11739 62 104 169 0.973 11.200708441096 513.68895978001 2770.5212012337
54934	719186 5167 5655 11739 62 104 169 -2.5443649291992 2.5000019073486 35.795072555542 264.20477480525
54933	724353 5454 5618 11739 61.75 104 170 5.6500000953674 15.02499961853 2212.258808136 29793.101801752
54932	729807 5705 5581 11739 61.5 104 171 483.14999389648 483.14999389648 82618.648956299 39917199.738971
54931	735512 5676 5581 11739 61.5 104 171 184.17810058594 732.05479431152 76551.579330444 38518521.724237
vector 55064  IntersectionExampleScenario.node[45].veinsmobility  posx  ETV
vector 55065  IntersectionExampleScenario.node[45].veinsmobility  posy  ETV
vector 55066  IntersectionExampleScenario.node[45].veinsmobility  speed  ETV
vector 55067  IntersectionExampleScenario.node[45].veinsmobility  acceleration  ETV
vector 55068  IntersectionExampleScenario.node[45].veinsmobility  co2emission  ETV
vector 55071  IntersectionExampleScenario.node[46].veinsmobility  posx  ETV
vector 55072  IntersectionExampleScenario.node[46].veinsmobility  posy  ETV
vector 55073  IntersectionExampleScenario.node[46].veinsmobility  speed  ETV
vector 55074  IntersectionExampleScenario.node[46].veinsmobility  acceleration  ETV
vector 55075  IntersectionExampleScenario.node[46].veinsmobility  co2emission  ETV
54928	741990 6321 5248 12590 59.25 110 204 0.973 11.200708441096 556.90385990331 2675.6735840994
54927	748311 5723 5248 12590 59.25 110 204 -7.5428676605225 4 35.964826583862 464.89642763928
54926	754034 6148 5211 12590 59 110 205 0 15.02499961853 2209.8560891151 30237.050045116
54925	760182 6901 5174 12590 58.75 110 206 483.14999389648 785.82187652588 114680.84838104 65832106.724377
54924	767083 6899 5174 12590 58.75 110 206 483.14999389648 735.53648376465 108422.57307434 58178334.39675
vector 55078  IntersectionExampleScenario.node[47].veinsmobility  posx  ETV
vector 55079  IntersectionExampleScenario.node[47].veinsmobility  posy  ETV
vector 55080  IntersectionExampleScenario.node[47].veinsmobility  speed  ETV
54949	774214 5610 6268 12697 66.25 110.75 179 0.973 11.54047740176 526.02961604504 2744.9035052182
54948	779824 5562 6268 12697 66.25 110.75 179 -2.4022979736328 2.5 37.492597579956 283.85661399555
54947	785386 5865 6231 12697 66 110.75 180 3.0816788673401 15.5 2220.8473939896 30022.765007385
54946	791251 6074 6194 12697 65.75 110.75 181 235.70257568359 785.82187652588 94361.280403137 53406901.574677
54945	797325 6091 6194 12697 65.75 110.75 181 483.14999389648 483.14999389648 87450.148895264 42251538.904993
vector 55085  IntersectionExampleScenario.node[48].veinsmobility  posx  ETV
vector 55086  IntersectionExampleScenario.node[48].veinsmobility  posy  ETV
vector 55081  IntersectionExampleScenario.node[47].veinsmobility  acceleration  ETV
vector 55082  IntersectionExampleScenario.node[47].veinsmobility  co2emission  ETV
vector 55087  IntersectionExampleScenario.node[48].veinsmobility  speed  ETV
vector 55088  IntersectionExampleScenario.node[48].veinsmobility  acceleration  ETV
vector 55089  IntersectionExampleScenario.node[48].veinsmobility  co2emission  ETV
vector 55092  IntersectionExampleScenario.node[49].veinsmobility  posx  ETV
vector 55093  IntersectionExampleScenario.node[49].veinsmobility  posy  ETV
vector 55094  IntersectionExampleScenario.node[49].veinsmobility  speed  ETV
vector 55095  IntersectionExampleScenario.node[49].veinsmobility  acceleration  ETV
vector 55096  IntersectionExampleScenario.node[49].veinsmobility  co2emission  ETV
54956	804387 5856 6633 13233 68.75 114.25 183 0.973 11.36141391502 580.5703786986 3203.5410636094
54955	810243 5669 6633 13233 68.75 114.25 183 -4.5 2.5000019073486 37.15309715271 433.0574720939
54954	815912 5894 6596 13233 68.5 114.25 184 4.5744490623474 15.25 2245.2289514542 29758.339323157
54953	821806 6230 6559 13233 68.25 114.25 185 486.85000610352 801.41563415527 106536.62615204 63371651.981565
54952	828036 6242 6559 13233 68.25 114.25 185 236.48388671875 483.14999389648 81019.57232666 36475652.823554
vector 55099  IntersectionExampleScenario.node[50].veinsmobility  posx  ETV
vector 55100  IntersectionExampleScenario.node[50].veinsmobility  posy  ETV
vector 55101  IntersectionExampleScenario.node[50].veinsmobility  speed  ETV
vector 55106  IntersectionExampleScenario.node[51].veinsmobility  posx  ETV
vector 55107  IntersectionExampleScenario.node[51].veinsmobility  posy  ETV
vector 55102  IntersectionExampleScenario.node[50].veinsmobility  acceleration  ETV
vector 55103  IntersectionExampleScenario.node[50].veinsmobility  co2emission  ETV
vector 55108  IntersectionExampleScenario.node[51].veinsmobility  speed  ETV
vector 55109  IntersectionExampleScenario.node[51].veinsmobility  acceleration  ETV
vector 55110  IntersectionExampleScenario.node[51].veinsmobility  co2emission  ETV
54900	835080 8014 3599 13430 47.5 115.5 273 0.973 11.450879080643 695.69565023312 3279.2152543701
54899	843094 7577 3599 13430 47.5 115.5 273 -7.9232277870178 4 42.245687484741 590.45786445315
54898	850671 7754 3566 13430 47.25 115.5 274 0 16.241504669189 2349.1089934111 32416.60107563
54897	858425 9229 3533 13430 47 115.5 275 486.85000610352 486.85000610352 133883.75167847 65181305.321823
54896	867654 9213 3533 13430 47 115.5 275 236.46563720703 819.05078887939 145404.13470459 81937020.775866
vector 55113  IntersectionExampleScenario.node[52].veinsmobility  posx  ETV
vector 55114  IntersectionExampleScenario.node[52].veinsmobility  posy  ETV
vector 55120  IntersectionExampleScenario.node[53].veinsmobility  posx  ETV
vector 55121  IntersectionExampleScenario.node[53].veinsmobility  posy  ETV
vector 55115  IntersectionExampleScenario.node[52].veinsmobility  speed  ETV
vector 55116  IntersectionExampleScenario.node[52].veinsmobility  acceleration  ETV
vector 55117  IntersectionExampleScenario.node[52].veinsmobility  co2emission  ETV
vector 55122  IntersectionExampleScenario.node[53].veinsmobility  speed  ETV
vector 55123  IntersectionExampleScenario.node[53].veinsmobility  acceleration  ETV
vector 55124  IntersectionExampleScenario.node[53].veinsmobility  co2emission  ETV
54914	877669 7811 4244 13875 52.25 118.25 265 0.973 11.200708441096 615.67077707763 2821.2242321877
54913	885480 7982 4244 13875 52.25 118.25 265 -4.5 2.5 37.492597579956 417.93183965975
54912	893462 8031 4207 13875 52 118.25 266 0 15.287611961365 2292.743972471 30882.46778178
54911	901493 8988 4170 13875 51.75 118.25 267 486.85000610352 486.85000610352 129988.95162964 63285121.894279
54910	910481 8950 4170 13875 51.75 118.25 267 238.59375 807.36524200439 139777.32527161 77886333.745428
54942	919431 7048 5942 14273 64 120.75 228 0.973 11.810082123732 597.79854332354 3075.5147194747
54941	926479 7320 5942 14273 64 120.75 228 -3.9356381893158 2.5 39.699392318726 351.47564407462
54940	933799 7403 5905 14273 63.75 120.75 229 0 15.875 2189.9153595548 29113.81419653
54939	941202 7771 5868 14273 63.5 120.75 230 486.85000610352 734.43711853027 120077.89297485 63736602.871105
54938	948973 7766 5868 14273 63.5 120.75 230 486.78811645508 785.82187652588 128032.13819122 73146957.744922
vector 55127  IntersectionExampleScenario.node[54].veinsmobility  posx  ETV
vector 55128  IntersectionExampleScenario.node[54].veinsmobility  posy  ETV
vector 55129  IntersectionExampleScenario.node[54].veinsmobility  speed  ETV
vector 55130  IntersectionExampleScenario.node[54].veinsmobility  acceleration  ETV
vector 55131  IntersectionExampleScenario.node[54].veinsmobility  co2emission  ETV
54970	957140 6137 7209 14502 72.75 122.25 199 0.973 12.099024792222 580.60492760596 3199.083638786
54969	963277 6116 7209 14502 72.75 122.25 199 -2.9390335083008 2.5000009536743 41.566686630249 338.62630480911
54968	969393 6452 7172 14502 72.5 122.25 200 2.0919125080109 16.27499961853 2180.7461919785 28779.928906463
54967	975845 6834 7135 14502 72.25 122.25 201 486.85000610352 732.11074829102 105601.06588745 56441226.896928
54966	982679 6828 7135 14502 72.25 122.25 201 486.74087524414 785.82187652588 113640.56407928 66019879.704372
54907	989507 8376 4065 14892 51 124.75 296 0.96333723109819 12.099024792222 702.86617122071 3604.5406729465
54906	997883 8174 4065 14892 51 124.75 296 -7.3628239631653 4 40.208654403687 608.0896853328
54905	1006057 8503 4030 14892 50.75 124.75 297 0 16.27499961853 2208.4594582915 28890.321514027
54904	1014560 10024 3995 14892 50.5 124.75 298 184.17810058594 732.22775268555 134765.75688171 65085739.17221
54903	1024584 10064 3995 14892 50.5 124.75 298 486.85000610352 486.85000610352 145081.30181885 70632832.676012
54921	1034648 8659 4498 15193 54 126.75 292 0.973 12.099024792222 691.39230578558 3381.8466374794
54920	1043307 8620 4498 15193 54 126.75 292 -4.5 2.5 40.038900375366 547.17158334431
54919	1051927 8834 4461 15193 53.75 126.75 293 0 16.27499961853 2262.5053309761 30198.005438857
54918	1060761 9908 4424 15193 53.5 126.75 294 171.40313720703 732.00180053711 131566.47547913 63256483.116408
54917	1070669 9948 4424 15193 53.5 126.75 294 486.85000610352 486.85000610352 143133.90179443 69684740.96224
vector 55134  IntersectionExampleScenario.node[55].veinsmobility  posx  ETV
vector 55135  IntersectionExampleScenario.node[55].veinsmobility  posy  ETV
vector 55136  IntersectionExampleScenario.node[55].veinsmobility  speed  ETV
vector 55137  IntersectionExampleScenario.node[55].veinsmobility  acceleration  ETV
vector 55138  IntersectionExampleScenario.node[55].veinsmobility  co2emission  ETV
54963	1081018 7436 6922 15693 70.75 130.25 239 0.973 11.648172402475 596.7628055941 2930.0447774416
54962	1088454 7611 6922 15693 70.75 130.25 239 -3.7566401958466 2.5 38.341367721558 340.95011058327
54961	1096065 7856 6885 15693 70.5 130.25 240 0 15.64999961853 2186.5909912307 28561.320550555
54960	1103921 8192 6848 15693 70.25 130.25 241 184.17810058594 483.15130615234 100004.27246094 43406121.643203
54959	1112113 8223 6848 15693 70.25 130.25 241 486.85000610352 733.66728210449 125556.96888733 66480857.906322
54977	1120336 7347 7360 15903 73.75 131.75 233 0.973 11.648172402475 633.15312346197 3120.3662105235
54976	1127683 7595 7360 15903 73.75 131.75 233 -4.5 2.5 42.585195541382 422.36366604869
54975	1135278 7679 7322 15903 73.5 131.75 234 0 16.34462928772 2238.9925627522 30319.103753031
54974	1142957 8003 7283 15903 73.25 131.75 235 171.40313720703 483.14999389648 95803.168182373 41082416.225499
54973	1150960 8029 7283 15903 73.25 131.75 235 486.85000610352 733.63589477539 122169.18510437 64521292.222795
54984	1158989 7087 7549 16073 75 133 233 0.973 11.810082123732 611.76849147058 3087.1031780216
54983	1166076 6474 7549 16073 75 133 233 -7.2641463279724 4 39.699392318726 483.29100888435
54982	1172550 6742 7510 16073 74.75 133 234 0 15.875 2180.8751922846 31208.170008883
54981	1179292 7983 7471 16073 74.5 133 235 236.12365722656 483.14999389648 105477.38769531 48388786.810854
54980	1187275 8021 7471 16073 74.5 133 235 184.17810058594 483.36395263672 98973.667358398 43690751.303651
vector 55141  IntersectionExampleScenario.node[56].veinsmobility  posx  ETV
vector 55142  IntersectionExampleScenario.node[56].veinsmobility  posy  ETV
55012	1195450 6156 9175 16353 87 135.25 194 0.973 11.810082123732 558.48408629118 2976.4456822503
55011	1201606 6378 9175 16353 87 135.25 194 -2.1482048034668 2.5 39.869146347046 301.48369253144
55010	1207984 6473 9140 16353 86.75 135.25 195 1.6033443212509 15.875 2178.0920943022 29190.996099
55009	1214457 6747 9105 16353 86.5 135.25 196 238.50152587891 483.14999389648 86798.897705078 39403072.287325
55008	1221204 6757 9105 16353 86.5 135.25 196 184.17810058594 483.14999389648 79717.611114502 34234443.800839
vector 55143  IntersectionExampleScenario.node[56].veinsmobility  speed  ETV
vector 55144  IntersectionExampleScenario.node[56].veinsmobility  acceleration  ETV
vector 55145  IntersectionExampleScenario.node[56].veinsmobility  co2emission  ETV
55040	1228208 5844 9845 16485 91.75 136.25 179 0.973 12.353032912318 578.40696114657 3338.081567923
55039	1234052 5753 9845 16485 91.75 136.25 179 -4.5 2.5000019073486 42.924703598022 364.88531613553
55038	1239805 5953 9804 16485 91.5 136.25 180 4.1779866218567 16.625 2215.7585573196 30971.230512795
55037	1245758 6289 9763 16485 91.25 136.25 181 483.14999389648 734.82427978516 95407.620330811 51272213.263563
55036	1252047 6264 9763 16485 91.25 136.25 181 184.17810058594 486.86480712891 72832.682739258 31064827.40843
vector 55148  IntersectionExampleScenario.node[57].veinsmobility  posx  ETV
vector 55149  IntersectionExampleScenario.node[57].veinsmobility  posy  ETV
vector 55150  IntersectionExampleScenario.node[57].veinsmobility  speed  ETV
vector 55151  IntersectionExampleScenario.node[57].veinsmobility  acceleration  ETV
vector 55152  IntersectionExampleScenario.node[57].veinsmobility  co2emission  ETV
54991	1258712 7092 8608 17068 82.75 140.5 232 0.973 12.099024792222 625.52764310478 3285.8801170884
54990	1265804 6488 8608 17068 82.75 140.5 232 -6.9978852272034 4 41.227170944214 492.65880119239
54989	1272292 6782 8575 17068 82.5 140.5 233 0 16.27499961853 2205.6507912874 32465.664712985
54988	1279074 8063 8542 17068 82.25 140.5 234 238.59759521484 785.82187652588 120417.94641876 65969892.261432
54987	1287137 8078 8542 17068 82.25 140.5 234 483.14999389648 483.14999389648 113057.09857178 54623536.484908
54998	1295215 7403 8675 17366 83.25 142.75 239 0.973 11.901422563139 629.26987223545 3181.2709799793
54997	1302618 6917 8675 17366 83.25 142.75 239 -4.5 2.5 40.038900375366 489.51510624083
54996	1309535 7294 8642 17366 83 142.75 240 0 16.119522094727 2306.8010140732 33165.317694934
54995	1316829 8312 8608 17366 82.75 142.75 241 237.93084716797 809.56562805176 126500.50167084 71041018.865786
54994	1325141 8327 8608 17366 82.75 142.75 241 483.14999389648 483.14999389648 116439.14852905 56257573.901123
vector 55155  IntersectionExampleScenario.node[58].veinsmobility  posx  ETV
vector 55156  IntersectionExampleScenario.node[58].veinsmobility  posy  ETV
vector 55157  IntersectionExampleScenario.node[58].veinsmobility  speed  ETV
vector 55158  IntersectionExampleScenario.node[58].veinsmobility  acceleration  ETV
vector 55159  IntersectionExampleScenario.node[58].veinsmobility  co2emission  ETV
55019	1333869 7158 9646 17810 90.5 146.25 224 0.973 11.00486315618 553.53007905931 2529.0598082031
55018	1341027 7385 9646 17810 90.5 146.25 224 -3.8826665878296 2.5 34.94630241394 300.99787492902
55017	1348412 7564 9611 17810 90.25 146.25 225 0 14.75 2202.9100429639 27729.994899719
55016	1355976 7828 9576 17810 90 146.25 226 483.14999389648 785.82187652588 126178.27102661 72402393.064185
55015	1363804 7844 9576 17810 90 146.25 226 483.14999389648 732.07476806641 117992.93351746 62722076.747026
vector 55162  IntersectionExampleScenario.node[59].veinsmobility  posx  ETV
vector 55163  IntersectionExampleScenario.node[59].veinsmobility  posy  ETV
vector 55164  IntersectionExampleScenario.node[59].veinsmobility  speed  ETV
vector 55165  IntersectionExampleScenario.node[59].veinsmobility  acceleration  ETV
vector 55166  IntersectionExampleScenario.node[59].veinsmobility  co2emission  ETV
vector 55169  IntersectionExampleScenario.node[60].veinsmobility  posx  ETV
vector 55170  IntersectionExampleScenario.node[60].veinsmobility  posy  ETV
vector 55171  IntersectionExampleScenario.node[60].veinsmobility  speed  ETV
vector 55176  IntersectionExampleScenario.node[61].veinsmobility  posx  ETV
vector 55177  IntersectionExampleScenario.node[61].veinsmobility  posy  ETV
vector 55172  IntersectionExampleScenario.node[60].veinsmobility  acceleration  ETV
vector 55173  IntersectionExampleScenario.node[60].veinsmobility  co2emission  ETV
vector 55183  IntersectionExampleScenario.node[62].veinsmobility  posx  ETV
vector 55184  IntersectionExampleScenario.node[62].veinsmobility  posy  ETV
vector 55178  IntersectionExampleScenario.node[61].veinsmobility  speed  ETV
55026	1372836 7207 9724 18108 91 148.5 231 0.973 11.450879080643 592.36564826173 2851.2559866787
55025	1380043 6551 9724 18108 91 148.5 231 -8.4870567321777 4 37.15309715271 481.82449572734
55024	1386594 6946 9685 18108 90.75 148.5 232 0 15.375 2210.4979660511 30840.215052249
55023	1393540 8108 9646 18108 90.5 148.5 233 486.85000610352 486.85000610352 113436.05142212 55226342.327217
55022	1401648 8092 9646 18108 90.5 148.5 233 236.75714111328 785.82187652588 119753.31624603 65775496.183118
vector 55179  IntersectionExampleScenario.node[61].veinsmobility  acceleration  ETV
vector 55180  IntersectionExampleScenario.node[61].veinsmobility  co2emission  ETV
vector 55185  IntersectionExampleScenario.node[62].veinsmobility  speed  ETV
vector 55186  IntersectionExampleScenario.node[62].veinsmobility  acceleration  ETV
vector 55187  IntersectionExampleScenario.node[62].veinsmobility  co2emission  ETV
55047	1410156 7242 10291 18179 94.5 149 219 0.973 12.26218747632 616.48075130525 3183.9110440405
55046	1417398 7267 10291 18179 94.5 149 219 -4.5 2.5000000149012 41.396924972534 459.86489845962
55045	1424665 7344 10250 18179 94.25 149 220 0 16.5 2217.4354555327 31824.177285662
55044	1432009 7702 10209 18179 94 149 221 486.85000610352 731.5837097168 115309.61830139 61148422.66432
55043	1439711 7691 10209 18179 94 149 221 486.85000610352 795.46562957764 123178.43785095 70734428.861016
vector 55190  IntersectionExampleScenario.node[63].veinsmobility  posx  ETV
vector 55191  IntersectionExampleScenario.node[63].veinsmobility  posy  ETV
vector 55192  IntersectionExampleScenario.node[63].veinsmobility  speed  ETV
vector 55193  IntersectionExampleScenario.node[63].veinsmobility  acceleration  ETV
vector 55194  IntersectionExampleScenario.node[63].veinsmobility  co2emission  ETV
vector 55197  IntersectionExampleScenario.node[64].veinsmobility  posx  ETV
vector 55198  IntersectionExampleScenario.node[64].veinsmobility  posy  ETV
vector 55204  IntersectionExampleScenario.node[65].veinsmobility  posx  ETV
vector 55205  IntersectionExampleScenario.node[65].veinsmobility  posy  ETV
vector 55199  IntersectionExampleScenario.node[64].veinsmobility  speed  ETV
vector 55206  IntersectionExampleScenario.node[65].veinsmobility  speed  ETV
vector 55211  IntersectionExampleScenario.node[66].veinsmobility  posx  ETV
vector 55212  IntersectionExampleScenario.node[66].veinsmobility  posy  ETV
vector 55200  IntersectionExampleScenario.node[64].veinsmobility  acceleration  ETV
vector 55201  IntersectionExampleScenario.node[64].veinsmobility  co2emission  ETV
vector 55207  IntersectionExampleScenario.node[65].veinsmobility  acceleration  ETV
vector 55208  IntersectionExampleScenario.node[65].veinsmobility  co2emission  ETV
vector 55213  IntersectionExampleScenario.node[66].veinsmobility  speed  ETV
vector 55214  IntersectionExampleScenario.node[66].veinsmobility  acceleration  ETV
vector 55215  IntersectionExampleScenario.node[66].veinsmobility  co2emission  ETV
55005	1449006 8579 8907 19357 85 157.5 291 0.973 11.36141391502 651.65814374908 2935.6695674459
55004	1457585 8592 8907 19357 85 157.5 291 -7.8681688308716 4 37.15309715271 479.34038314826
55003	1466177 8627 8874 19357 84.75 157.5 292 0 15.25 2178.1146860123 27447.372298406
55002	1474804 10135 8840 19357 84.5 157.5 293 184.17810058594 483.36395263672 124400.84844971 54915553.420445
55001	1484939 10098 8840 19357 84.5 157.5 293 486.85000610352 733.15849304199 150984.39028931 78931519.191162
vector 55218  IntersectionExampleScenario.node[67].veinsmobility  posx  ETV
vector 55219  IntersectionExampleScenario.node[67].veinsmobility  posy  ETV
vector 55220  IntersectionExampleScenario.node[67].veinsmobility  speed  ETV
vector 55221  IntersectionExampleScenario.node[67].veinsmobility  acceleration  ETV
vector 55222  IntersectionExampleScenario.node[67].veinsmobility  co2emission  ETV
55033	1495438 8180 9724 19609 91 159.25 274 0.973 11.36141391502 653.47826681234 3023.943065987
55032	1503618 7953 9724 19609 91 159.25 274 -4.5 2.5000009536743 41.057416915894 453.78437197129
55031	1511571 8212 9685 19609 90.75 159.25 275 0 15.949295043945 2184.7519933013 29187.615487948
55030	1519783 9579 9646 19609 90.5 159.25 276 184.17810058594 483.14999389648 116685.35336304 51333176.302436
55029	1529362 9607 9646 19609 90.5 159.25 276 486.85000610352 733.01029968262 142232.8129425 74357011.891693
55054	1538969 8031 10911 19854 98.5 161 251 0.973 12.099024792222 658.90287277911 3632.6315694615
55053	1547000 8366 10911 19854 98.5 161 251 -4.5 2.5000009536743 40.038900375366 454.31640082637
55052	1555366 8504 10872 19854 98.25 161 252 0 16.27499961853 2214.3466436667 30331.586217747
55051	1563870 8808 10833 19854 98 161 253 184.17810058594 732.79647827148 113813.5559845 55286988.583651
55050	1572678 8845 10833 19854 98 161 253 486.85000610352 486.85000610352 123173.05154419 59966800.896077
vector 55225  IntersectionExampleScenario.node[68].veinsmobility  posx  ETV
vector 55226  IntersectionExampleScenario.node[68].veinsmobility  posy  ETV
vector 55227  IntersectionExampleScenario.node[68].veinsmobility  speed  ETV
55082	1581755 6823 12734 20290 111 164.25 214 0.973 11.450879080643 566.1851294153 2809.3638178916
55081	1588578 7044 12734 20290 111 164.25 214 -3.8595104217529 2.5000000596046 37.32285118103 342.68664926474
55080	1595622 7214 12697 20290 110.75 164.25 215 0 15.375 2206.2744663283 28533.807125771
55079	1602836 7524 12660 20290 110.5 164.25 216 184.17810058594 486.85998535156 88323.716430664 37996711.923979
55078	1610360 7552 12660 20290 110.5 164.25 216 237.42297363281 486.85000610352 96658.623596191 44333055.961406
vector 55228  IntersectionExampleScenario.node[68].veinsmobility  acceleration  ETV
vector 55229  IntersectionExampleScenario.node[68].veinsmobility  co2emission  ETV
vector 55232  IntersectionExampleScenario.node[69].veinsmobility  posx  ETV
vector 55233  IntersectionExampleScenario.node[69].veinsmobility  posy  ETV
vector 55234  IntersectionExampleScenario.node[69].veinsmobility  speed  ETV
vector 55235  IntersectionExampleScenario.node[69].veinsmobility  acceleration  ETV
vector 55236  IntersectionExampleScenario.node[69].veinsmobility  co2emission  ETV
55068	1618482 7322 12128 20427 106.75 165.25 235 0.973 11.648172402475 612.8561958959 3057.0580459866
55067	1625804 6619 12128 20427 106.75 165.25 235 -7.3350644111633 4 38.341367721558 492.93187547797
55066	1632423 6985 12093 20427 106.5 165.25 236 0 15.64999961853 2176.9854153395 30585.68570012
55065	1639408 8231 12057 20427 106.25 165.25 237 236.95220947266 483.14999389648 106324.8008728 48756206.07078
55064	1647639 8268 12057 20427 106.25 165.25 237 184.17810058594 483.36395263672 99777.496459961 44028035.967104
55075	1655907 7236 12447 20462 109 165.5 227 0.973 11.990504229548 636.76846096425 3244.620360305
55074	1663143 6602 12447 20462 109 165.5 227 -4.5 2.5 42.415441513062 503.96866701197
55073	1669745 7026 12410 20462 108.75 165.5 228 0 16.271642684937 2287.5943196192 33955.345539108
55072	1676771 8015 12373 20462 108.5 165.5 229 483.14999389648 483.14999389648 110641.34860229 53456366.901897
55071	1684786 7989 12373 20462 108.5 165.5 229 167.29217529297 733.93241882324 102437.96961975 50203245.240201
vector 55239  IntersectionExampleScenario.node[70].veinsmobility  posx  ETV
vector 55240  IntersectionExampleScenario.node[70].veinsmobility  posy  ETV
vector 55246  IntersectionExampleScenario.node[71].veinsmobility  posx  ETV
vector 55247  IntersectionExampleScenario.node[71].veinsmobility  posy  ETV
vector 55241  IntersectionExampleScenario.node[70].veinsmobility  speed  ETV
vector 55248  IntersectionExampleScenario.node[71].veinsmobility  speed  ETV
vector 55242  IntersectionExampleScenario.node[70].veinsmobility  acceleration  ETV
vector 55243  IntersectionExampleScenario.node[70].veinsmobility  co2emission  ETV
vector 55249  IntersectionExampleScenario.node[71].veinsmobility  acceleration  ETV
vector 55250  IntersectionExampleScenario.node[71].veinsmobility  co2emission  ETV
vector 55253  IntersectionExampleScenario.node[72].veinsmobility  posx  ETV
vector 55254  IntersectionExampleScenario.node[72].veinsmobility  posy  ETV
vector 55255  IntersectionExampleScenario.node[72].veinsmobility  speed  ETV
vector 55260  IntersectionExampleScenario.node[73].veinsmobility  posx  ETV
vector 55261  IntersectionExampleScenario.node[73].veinsmobility  posy  ETV
vector 55256  IntersectionExampleScenario.node[72].veinsmobility  acceleration  ETV
vector 55257  IntersectionExampleScenario.node[72].veinsmobility  co2emission  ETV
vector 55262  IntersectionExampleScenario.node[73].veinsmobility  speed  ETV
vector 55263  IntersectionExampleScenario.node[73].veinsmobility  acceleration  ETV
vector 55264  IntersectionExampleScenario.node[73].veinsmobility  co2emission  ETV
55089	1694379 7583 12811 21078 111.5 169.5 233 0.973 11.648172402475 611.5448515173 2995.9832354174
55088	1701962 7636 12811 21078 111.5 169.5 233 -3.9678966999054 2.5 39.190130233765 373.50422667211
55087	1709598 7785 12773 21078 111.25 169.5 234 0 15.64999961853 2274.9610846136 30817.636783096
55086	1717383 8222 12734 21078 111 169.5 235 238.18951416016 483.14999389648 105545.16168213 48432279.137742
55085	1725605 8192 12734 21078 111 169.5 235 160.14141845703 483.14999389648 95630.417999268 41236115.414764
vector 55267  IntersectionExampleScenario.node[74].veinsmobility  posx  ETV
vector 55268  IntersectionExampleScenario.node[74].veinsmobility  posy  ETV
vector 55269  IntersectionExampleScenario.node[74].veinsmobility  speed  ETV
vector 55270  IntersectionExampleScenario.node[74].veinsmobility  acceleration  ETV
vector 55271  IntersectionExampleScenario.node[74].veinsmobility  co2emission  ETV
55124	1734198 7006 13711 21386 117.25 171.25 217 0.973 11.90022389248 600.4365171824 3132.4600783454
55123	1741204 7126 13711 21386 117.25 171.25 217 -4.5 2.5000009536743 41.057416915894 418.58029658971
55122	1748330 7326 13670 21386 117 171.25 218 0 16 2141.4026740231 28789.259393247
55121	1755656 7659 13629 21386 116.75 171.25 219 483.14999389648 733.7841796875 113924.2487793 60315633.756183
55120	1763315 7655 13629 21386 116.75 171.25 219 201.68841552734 486.85000610352 91125.472167969 39494031.851939
55061	1770970 8350 11591 21644 103 172.75 280 0.93438186594183 12.26218747632 702.48216052138 3701.2037139115
55060	1779320 7861 11591 21644 103 172.75 280 -30.052806854248 4 41.057416915894 1359.6142039674
55059	1787181 8093 11554 21644 102.75 172.75 281 0 16.5 2182.4239368439 29510.021017935
55058	1795274 9858 11517 21644 102.5 172.75 282 486.63604736328 785.82187652588 153338.33330536 85439617.81872
55057	1805132 9785 11517 21644 102.5 172.75 282 235.44110107422 483.14999389648 128309.37524414 59462848.602825
vector 55274  IntersectionExampleScenario.node[75].veinsmobility  posx  ETV
vector 55275  IntersectionExampleScenario.node[75].veinsmobility  posy  ETV
vector 55276  IntersectionExampleScenario.node[75].veinsmobility  speed  ETV
vector 55277  IntersectionExampleScenario.node[75].veinsmobility  acceleration  ETV
vector 55278  IntersectionExampleScenario.node[75].veinsmobility  co2emission  ETV
55096	1815318 8195 12926 22142 112.25 175.75 255 0.973 11.82233482029 648.30405130566 3438.8913625531
55095	1823513 8495 12926 22142 112.25 175.75 255 -4.5 2.5 38.511121749878 448.50604173953
55094	1832008 8431 12887 22142 112 175.75 256 0 15.892002105713 2188.5087277191 30168.26752482
55093	1840439 8975 12848 22142 111.75 175.75 257 486.85000610352 785.82187652588 140811.50276947 79158032.71477
55092	1849414 8974 12848 22142 111.75 175.75 257 235.38787841797 483.14999389648 115915.94927979 53376597.841881
55131	1858388 7172 14463 22463 122 177.75 224 0.973 11.648172402475 581.50328063753 2913.8539360622
55130	1865560 7381 14463 22463 122 177.75 224 -3.9808850288391 2.5 38.511121749878 330.24511845226
55129	1872941 7607 14424 22463 121.75 177.75 225 0 15.64999961853 2207.0432551056 29071.513320411
55128	1880548 7894 14385 22463 121.5 177.75 226 483.14999389648 785.82187652588 125888.33322906 72032700.893871
55127	1888442 7907 14385 22463 121.5 177.75 226 483.14999389648 732.75140380859 117553.31646729 62225702.812509
vector 55281  IntersectionExampleScenario.node[76].veinsmobility  posx  ETV
vector 55282  IntersectionExampleScenario.node[76].veinsmobility  posy  ETV
vector 55283  IntersectionExampleScenario.node[76].veinsmobility  speed  ETV
vector 55284  IntersectionExampleScenario.node[76].veinsmobility  acceleration  ETV
vector 55285  IntersectionExampleScenario.node[76].veinsmobility  co2emission  ETV
55152	1896750 5658 16753 22855 138.25 180.25 169 0.973 11.648172402475 542.06475251577 2960.5861828146
55151	1902408 5495 16753 22855 138.25 180.25 169 -8.9374952316284 4 38.341367721558 512.03067990123
55150	1907903 5615 16718 22855 138 180.25 170 0 15.64999961853 2198.7856352329 31148.165999312
55149	1913518 5983 16683 22855 137.75 180.25 171 237.29504394531 486.85000610352 74876.402313232 33768813.272805
55148	1919501 5980 16683 22855 137.75 180.25 171 483.14999389648 785.82187652588 96950.070762634 56796915.393769
vector 55288  IntersectionExampleScenario.node[77].veinsmobility  posx  ETV
vector 55289  IntersectionExampleScenario.node[77].veinsmobility  posy  ETV
vector 55295  IntersectionExampleScenario.node[78].veinsmobility  posx  ETV
vector 55296  IntersectionExampleScenario.node[78].veinsmobility  posy  ETV
vector 55290  IntersectionExampleScenario.node[77].veinsmobility  speed  ETV
vector 55297  IntersectionExampleScenario.node[78].veinsmobility  speed  ETV
vector 55291  IntersectionExampleScenario.node[77].veinsmobility  acceleration  ETV
vector 55292  IntersectionExampleScenario.node[77].veinsmobility  co2emission  ETV
vector 55298  IntersectionExampleScenario.node[78].veinsmobility  acceleration  ETV
vector 55299  IntersectionExampleScenario.node[78].veinsmobility  co2emission  ETV
55173	1926283 5259 18073 23768 148.25 186.25 153 0.97223939240464 11.648172402475 471.80125096764 2469.8143218926
55172	1931542 4781 18073 23768 148.25 186.25 153 -3.5467910766602 2.5 38.680875778198 197.15975724438
55171	1936323 5162 18040 23768 148 186.25 154 5.6500000953674 15.64999961853 2210.3583621979 32381.155842395
55170	1941485 5425 18006 23768 147.75 186.25 155 486.85000610352 486.85000610352 75461.750946045 36738553.908664
55169	1946910 5407 18006 23768 147.75 186.25 155 238.41052246094 785.82187652588 80957.144294739 46372668.315127
vector 55302  IntersectionExampleScenario.node[79].veinsmobility  posx  ETV
vector 55303  IntersectionExampleScenario.node[79].veinsmobility  posy  ETV
vector 55304  IntersectionExampleScenario.node[79].veinsmobility  speed  ETV
vector 55305  IntersectionExampleScenario.node[79].veinsmobility  acceleration  ETV
vector 55306  IntersectionExampleScenario.node[79].veinsmobility  co2emission  ETV
vector 55309  IntersectionExampleScenario.node[80].veinsmobility  posx  ETV
vector 55310  IntersectionExampleScenario.node[80].veinsmobility  posy  ETV
vector 55311  IntersectionExampleScenario.node[80].veinsmobility  speed  ETV
vector 55312  IntersectionExampleScenario.node[80].veinsmobility  acceleration  ETV
vector 55313  IntersectionExampleScenario.node[80].veinsmobility  co2emission  ETV
55110	1953119 9119 13430 24389 115.5 190 299 0.973 11.200708441096 670.09665994601 2949.977766909
55109	1962238 8771 13430 24389 115.5 190 299 -6.5600118637085 4 35.455564498901 632.87483213957
55108	1971009 9118 13389 24389 115.25 190 300 0 15.02499961853 2121.3090985417 26309.009210954
55107	1980127 10499 13348 24389 115 190 301 207.33435058594 734.14907836914 138293.51777649 67403154.389819
55106	1990626 10533 13348 24389 115 190 301 486.85000610352 486.85003662109 146541.85186768 71343901.491056
55103	2001159 9625 13348 24470 115 190.5 303 0.973 11.450879080643 698.63384289041 3069.6287954854
55102	2010784 9658 13348 24470 115 190.5 303 -4.5 2.5 38.511121749878 558.70265711649
55101	2020442 9810 13309 24470 114.75 190.5 304 0 15.375 2226.5624419311 27858.553622434
55100	2030252 10653 13270 24470 114.5 190.5 305 177.97814941406 486.86563110352 127652.75039673 55727321.803484
55099	2040905 10661 13270 24470 114.5 190.5 305 237.92034912109 486.85003662109 140175.04022217 65575252.526821
55138	2051566 8428 15552 24966 129.25 193.75 259 0.973 11.200708441096 629.45360519105 2965.7022717231
55137	2059994 8559 15552 24966 129.25 193.75 259 -4.5 2.5 35.625318527222 409.6264829502
55136	2068553 8797 15515 24966 129 193.75 260 0 15.02499961853 2206.9561717501 28240.162237672
55135	2077350 9105 15478 24966 128.75 193.75 261 184.17810058594 487.06500244141 109231.75030518 47738475.109626
55134	2086455 9129 15478 24966 128.75 193.75 261 236.80297851562 486.85000610352 118287.95129395 54778464.567887
55159	2095584 6567 17683 25299 145.25 196 204 0.973 11.200708441096 544.66290739807 2645.4682493152
55158	2102151 6655 17683 25299 145.25 196 204 -4.5 2.5 35.625318527222 340.49147628854
55157	2108806 6968 17650 25299 145 196 205 0.46143341064453 15.02499961853 2225.1613458991 28575.954663404
55156	2115774 7162 17617 25299 144.75 196 206 184.17810058594 735.31735229492 92317.013748169 45712393.164252
55155	2122936 7209 17617 25299 144.75 196 206 486.85000610352 486.85000610352 100291.10125732 48826723.259256
55117	2130145 9653 13670 25407 117 196.75 320 0.973 11.90022389248 735.7933708787 3452.9944391018
55116	2139798 9539 13670 25407 117 196.75 320 -6.7433094978333 4 43.754920959473 650.27342619555
55115	2149337 9762 13629 25407 116.75 196.75 321 0 16 2232.4839828312 29257.466904634
55114	2159099 11271 13589 25407 116.5 196.75 322 483.14999389648 483.14999389648 155574.29803467 75165721.1459
55113	2170370 11241 13589 25407 116.5 196.75 322 177.50030517578 731.70051574707 144059.95965576 68904082.998287
vector 55316  IntersectionExampleScenario.node[81].veinsmobility  posx  ETV
vector 55317  IntersectionExampleScenario.node[81].veinsmobility  posy  ETV
vector 55318  IntersectionExampleScenario.node[81].veinsmobility  speed  ETV
vector 55319  IntersectionExampleScenario.node[81].veinsmobility  acceleration  ETV
vector 55320  IntersectionExampleScenario.node[81].veinsmobility  co2emission  ETV
55229	2182012 5179 20324 26176 164.5 202.75 154 0.93438186594183 12.26218747632 537.03233421299 3376.9043743982
55228	2187191 5047 20324 26176 164.5 202.75 154 -4.4735260009766 2.5 41.057416915894 338.91617346814
55227	2192238 5077 20290 26176 164.25 202.75 155 5.6500000953674 16.5 2174.138335228 32070.494924952
55226	2197315 5454 20255 26176 164 202.75 156 239.15563964844 483.14999389648 67662.140960693 30214816.738519
55225	2202769 5436 20255 26176 164 202.75 156 184.17810058594 483.18392944336 61898.143249512 26261268.858725
vector 55323  IntersectionExampleScenario.node[82].veinsmobility  posx  ETV
vector 55324  IntersectionExampleScenario.node[82].veinsmobility  posy  ETV
vector 55325  IntersectionExampleScenario.node[82].veinsmobility  speed  ETV
vector 55326  IntersectionExampleScenario.node[82].veinsmobility  acceleration  ETV
vector 55327  IntersectionExampleScenario.node[82].veinsmobility  co2emission  ETV
55145	2208606 8355 16419 26460 135.75 205 278 0.973 11.810082123732 688.46205175695 3447.291633665
55144	2216961 7834 16419 26460 135.75 205 278 -13.55004119873 4 39.699392318726 700.3055768942
55143	2224795 8092 16386 26460 135.5 205 279 0 15.875 2181.7959122658 29134.863865518
55142	2232887 9791 16353 26460 135.25 205 280 486.63604736328 785.82187652588 152327.89066315 84946539.158525
55141	2242678 9734 16353 26460 135.25 205 280 236.12365722656 483.14999389648 127219.13742065 58893313.057952
55166	2252412 7658 17907 26615 147 206.25 238 0.973 11.90022389248 612.49185568969 3133.051979836
55165	2260070 8071 17907 26615 147 206.25 238 -3.7239561080933 2.5 39.869146347046 363.57927471572
55164	2268141 8115 17874 26615 146.75 206.25 239 0 16 2206.6604509838 30136.012807288
55163	2276256 8375 17841 26615 146.5 206.25 240 483.13403320312 785.82187652588 132242.56378937 74836566.607545
55162	2284631 8391 17841 26615 146.5 206.25 240 483.14999389648 732.92909240723 124150.67674255 65305857.374803
vector 55330  IntersectionExampleScenario.node[83].veinsmobility  posx  ETV
vector 55331  IntersectionExampleScenario.node[83].veinsmobility  posy  ETV
vector 55332  IntersectionExampleScenario.node[83].veinsmobility  speed  ETV
vector 55337  IntersectionExampleScenario.node[84].veinsmobility  posx  ETV
vector 55338  IntersectionExampleScenario.node[84].veinsmobility  posy  ETV
vector 55333  IntersectionExampleScenario.node[83].veinsmobility  acceleration  ETV
vector 55334  IntersectionExampleScenario.node[83].veinsmobility  co2emission  ETV
vector 55339  IntersectionExampleScenario.node[84].veinsmobility  speed  ETV
vector 55340  IntersectionExampleScenario.node[84].veinsmobility  acceleration  ETV
vector 55341  IntersectionExampleScenario.node[84].veinsmobility  co2emission  ETV
55236	2293824 5815 20427 26987 165.25 209.25 177 0.973 11.36141391502 544.1068982886 2977.902501656
55235	2299639 5737 20427 26987 165.25 209.25 177 -3.0887832641602 2.5000019073486 36.98334312439 335.09326914914
55234	2305376 5924 20392 26987 165 209.25 178 5.1859879493713 15.25 2182.2218198776 28751.965176118
55233	2311300 6253 20357 26987 164.75 209.25 179 486.66162109375 785.82187652588 102043.73978424 59949705.278291
55232	2317553 6264 20357 26987 164.75 209.25 179 237.68829345703 483.14999389648 78184.734558105 35120707.432006
55201	2323817 7144 19105 27350 155.75 212.25 227 0.97223939240464 11.648172402475 600.61976922157 2992.385030937
55200	2330961 6488 19105 27350 155.75 212.25 227 -7.1630640029907 4 38.680875778198 475.21258299252
55199	2337449 6880 19069 27350 155.5 212.25 228 0 15.64999961853 2217.0010960102 31576.666777073
55198	2344329 8016 19032 27350 155.25 212.25 229 486.85000610352 486.85000610352 111488.65139771 54278250.613445
55197	2352345 8004 19032 27350 155.25 212.25 229 235.46472167969 785.82187652588 117675.2249527 64645765.151779
vector 55344  IntersectionExampleScenario.node[85].veinsmobility  posx  ETV
vector 55345  IntersectionExampleScenario.node[85].veinsmobility  posy  ETV
vector 55346  IntersectionExampleScenario.node[85].veinsmobility  speed  ETV
vector 55347  IntersectionExampleScenario.node[85].veinsmobility  acceleration  ETV
vector 55348  IntersectionExampleScenario.node[85].veinsmobility  co2emission  ETV
55222	2360750 7348 19536 27602 158.75 214.5 224 0.973 11.200708441096 570.82320644575 2656.1508746397
55221	2368098 7221 19536 27602 158.75 214.5 224 -3.8458633422852 2.5 35.795072555542 364.9602829605
55220	2375319 7458 19499 27602 158.5 214.5 225 0 15.02499961853 2243.057666393 29733.493731701
55219	2382777 7902 19462 27602 158.25 214.5 226 486.85000610352 735.4047088623 118703.45327759 63449452.479217
55218	2390679 7896 19462 27602 158.25 214.5 226 486.85000610352 798.59687805176 126560.21868134 73058766.387227
55243	2398575 6241 20750 27742 167.5 215.75 194 0.973 11.648172402475 551.52847923594 2901.1499945614
55242	2404816 6239 20750 27742 167.5 215.75 194 -2.198335647583 2.5 38.341367721558 311.43914980999
55241	2411055 6551 20711 27742 167.25 215.75 195 2.1446492671967 15.64999961853 2206.2912364006 28961.371171806
55240	2417606 6847 20672 27742 167 215.75 196 237.47955322266 486.85000610352 87053.925842285 39697844.263549
55239	2424453 6851 20672 27742 167 215.75 196 483.14999389648 785.82187652588 110577.36368561 64225944.864322
vector 55351  IntersectionExampleScenario.node[86].veinsmobility  posx  ETV
vector 55352  IntersectionExampleScenario.node[86].veinsmobility  posy  ETV
vector 55353  IntersectionExampleScenario.node[86].veinsmobility  speed  ETV
vector 55354  IntersectionExampleScenario.node[86].veinsmobility  acceleration  ETV
vector 55355  IntersectionExampleScenario.node[86].veinsmobility  co2emission  ETV
55264	2431705 6710 21035 28151 169.25 219.5 202 0.973 11.200708441096 561.4507762271 2737.6890683021
55263	2438415 6448 21035 28151 169.25 219.5 202 -4.5 2.5 35.455564498901 379.57971579861
55262	2444863 6791 20992 28151 169 219.5 203 3.4799389839172 15.02499961853 2270.8456037045 28658.284989815
55261	2451654 7133 20949 28151 168.75 219.5 204 486.85000610352 735.55174255371 108058.87911987 58310181.38603
55260	2458787 7125 20949 28151 168.75 219.5 204 486.84371948242 805.05782318115 116882.88923645 69124856.777016
vector 55358  IntersectionExampleScenario.node[87].veinsmobility  posx  ETV
vector 55359  IntersectionExampleScenario.node[87].veinsmobility  posy  ETV
vector 55365  IntersectionExampleScenario.node[88].veinsmobility  posx  ETV
vector 55366  IntersectionExampleScenario.node[88].veinsmobility  posy  ETV
vector 55360  IntersectionExampleScenario.node[87].veinsmobility  speed  ETV
vector 55367  IntersectionExampleScenario.node[88].veinsmobility  speed  ETV
55187	2466376 8838 18179 28355 149 221.5 291 0.973 11.36141391502 670.69338961953 3035.6264965489
55186	2475214 8470 18179 28355 149 221.5 291 -6.7180156707764 4 36.98334312439 610.66174093929
55185	2483684 8718 18144 28355 148.75 221.5 292 0 15.25 2123.3732755184 26932.498712304
55184	2492402 10221 18108 28355 148.5 221.5 293 196.984375 483.36395263672 125483.73617554 55602713.480033
55183	2502623 10188 18108 28355 148.5 221.5 293 486.85000610352 732.63011169434 150970.90014648 78913398.577379
vector 55361  IntersectionExampleScenario.node[87].veinsmobility  acceleration  ETV
vector 55362  IntersectionExampleScenario.node[87].veinsmobility  co2emission  ETV
vector 55368  IntersectionExampleScenario.node[88].veinsmobility  acceleration  ETV
vector 55369  IntersectionExampleScenario.node[88].veinsmobility  co2emission  ETV
55180	2513149 9395 18144 28442 148.75 222.25 295 0.973 11.093806525473 698.24478589231 3034.8352441531
55179	2522544 9306 18144 28442 148.75 222.25 295 -4.5 2.5 42.440488815308 508.58226073597
55178	2531850 9515 18108 28442 148.5 222.25 296 0 15.296298980713 2249.9054269958 28755.492821169
55177	2541365 10370 18073 28442 148.25 222.25 297 174.53436279297 732.5973815918 132194.12065125 63450752.832231
55176	2551735 10396 18073 28442 148.25 222.25 297 486.85000610352 486.85000610352 144594.45181274 70395809.747569
55194	2562131 9390 18524 28645 151.5 224 291 0.973 11.90022389248 685.93096840102 3217.9219824871
55193	2571521 9380 18524 28645 151.5 224 291 -4.5 2.5 41.396924972534 435.37420550277
55192	2580901 9894 18489 28645 151.25 224 292 0 16.06166267395 2286.6103767101 29842.570568853
55191	2590795 10218 18454 28645 151 224 293 162.81408691406 486.85000610352 121366.12319946 52624625.942568
55190	2601013 10246 18454 28645 151 224 293 239.13708496094 486.85003662109 134754.7210083 63062697.547066
vector 55372  IntersectionExampleScenario.node[89].veinsmobility  posx  ETV
vector 55373  IntersectionExampleScenario.node[89].veinsmobility  posy  ETV
vector 55374  IntersectionExampleScenario.node[89].veinsmobility  speed  ETV
vector 55375  IntersectionExampleScenario.node[89].veinsmobility  acceleration  ETV
vector 55376  IntersectionExampleScenario.node[89].veinsmobility  co2emission  ETV
55215	2611660 9263 19179 29087 156.25 227.75 287 0.973 11.648172402475 662.8508851785 3084.6528648147
55214	2620923 9422 19179 29087 156.25 227.75 287 -4.2737760543823 2.5000004768372 38.341367721558 483.93197553204
55213	2630345 9736 19142 29087 156 227.75 288 0 15.64999961853 2159.7526566405 27291.914343359
55212	2640081 10089 19105 29087 155.75 227.75 289 191.74774169922 483.28851318359 121048.47344971 52484680.760126
55211	2650170 10108 19105 29087 155.75 227.75 289 486.85000610352 734.29652404785 148971.08969116 77912460.194467
vector 55379  IntersectionExampleScenario.node[90].veinsmobility  posx  ETV
vector 55380  IntersectionExampleScenario.node[90].veinsmobility  posy  ETV
vector 55381  IntersectionExampleScenario.node[90].veinsmobility  speed  ETV
vector 55382  IntersectionExampleScenario.node[90].veinsmobility  acceleration  ETV
vector 55383  IntersectionExampleScenario.node[90].veinsmobility  co2emission  ETV
55257	2660679 7764 20949 29409 168.75 230.5 248 0.973 10.756497587458 578.3834676067 2461.5454576764
55256	2668443 7149 20949 29409 168.75 230.5 248 -7.3302206993103 4 33.248777389526 444.12973027412
55255	2675592 7435 20908 29409 168.5 230.5 249 0 14.39999961853 2194.9719187021 28745.005490003
55254	2683027 8688 20867 29409 168.25 230.5 250 236.44110107422 483.14999389648 111866.51663208 51203961.66634
55253	2691715 8731 20867 29409 168.25 230.5 250 179.81719970703 483.36395263672 104863.82507324 46176470.696208
vector 55386  IntersectionExampleScenario.node[91].veinsmobility  posx  ETV
vector 55387  IntersectionExampleScenario.node[91].veinsmobility  posy  ETV
vector 55388  IntersectionExampleScenario.node[91].veinsmobility  speed  ETV
vector 55389  IntersectionExampleScenario.node[91].veinsmobility  acceleration  ETV
vector 55390  IntersectionExampleScenario.node[91].veinsmobility  co2emission  ETV
55271	2700847 7775 21211 29562 170.25 231.75 247 0.973 10.756497587458 621.67638274624 2692.2009635855
55270	2708622 7568 21211 29562 170.25 231.75 247 -4.5 2.5 38.764059066772 449.49912871284
55269	2716190 7570 21166 29562 170 231.75 248 0 15.357191085815 2267.6562030464 31375.261982966
55268	2723760 8714 21121 29562 169.75 231.75 249 238.33386230469 483.14999389648 112164.87496948 51579921.180647
55267	2732474 8700 21121 29562 169.75 231.75 249 161.70391845703 483.14999389648 102925.8553772 44970413.44235
vector 55393  IntersectionExampleScenario.node[92].veinsmobility  posx  ETV
vector 55394  IntersectionExampleScenario.node[92].veinsmobility  posy  ETV
vector 55395  IntersectionExampleScenario.node[92].veinsmobility  speed  ETV
vector 55396  IntersectionExampleScenario.node[92].veinsmobility  acceleration  ETV
vector 55397  IntersectionExampleScenario.node[92].veinsmobility  co2emission  ETV
55299	2741575 6177 23686 29757 185.75 233.25 191 0.973 11.54047740176 542.86928973906 2784.800333417
55298	2747752 6273 23686 29757 185.75 233.25 191 -3.3272609710693 2.5000009536743 36.98334312439 320.11906013387
55297	2754025 6517 23645 29757 185.5 233.25 192 2.520646572113 15.5 2217.5413811207 29134.933850162
55296	2760542 6756 23604 29757 185.25 233.25 193 483.14999389648 483.14999389648 93247.948822021 45052745.904219
55295	2767298 6711 23604 29757 185.25 233.25 193 184.17810058594 733.53686523438 86418.140838623 42923655.154541
vector 55400  IntersectionExampleScenario.node[93].veinsmobility  posx  ETV
vector 55401  IntersectionExampleScenario.node[93].veinsmobility  posy  ETV
vector 55402  IntersectionExampleScenario.node[93].veinsmobility  speed  ETV
vector 55403  IntersectionExampleScenario.node[93].veinsmobility  acceleration  ETV
vector 55404  IntersectionExampleScenario.node[93].veinsmobility  co2emission  ETV
55306	2774410 6454 23972 30108 187.5 236 195 0.973 11.36141391502 584.23220708259 3007.9877550602
55305	2780864 6264 23972 30108 187.5 236 195 -4.5 2.5000019073486 38.511121749878 421.38100310157
55304	2787128 6540 23931 30108 187.25 236 196 3.2334401607513 15.32230758667 2267.0053396225 29851.21353531
55303	2793668 6891 23890 30108 187 236 197 235.40191650391 483.14999389648 86913.734954834 39358353.210951
55302	2800559 6863 23890 30108 187 236 197 164.94219970703 483.14999389648 77888.483551025 32880188.140232
vector 55407  IntersectionExampleScenario.node[94].veinsmobility  posx  ETV
vector 55408  IntersectionExampleScenario.node[94].veinsmobility  posy  ETV
vector 55409  IntersectionExampleScenario.node[94].veinsmobility  speed  ETV
vector 55410  IntersectionExampleScenario.node[94].veinsmobility  acceleration  ETV
vector 55411  IntersectionExampleScenario.node[94].veinsmobility  co2emission  ETV
55285	2807823 7658 22776 31043 179.75 244 258 0.973 11.810082123732 631.40756712434 3273.7354651746
55284	2815481 7295 22776 31043 179.75 244 258 -25.070255279541 4 39.869146347046 1003.1033910588
55283	2822776 7489 22737 31043 179.5 244 259 0 15.875 2180.7209939957 29927.641421559
55282	2830265 9030 22697 31043 179.25 244 260 486.85000610352 734.37205505371 134655.76187134 70815768.880458
55281	2839295 9093 22697 31043 179.25 244 260 486.63604736328 785.82187652588 142014.55373383 79632207.554592
55292	2848388 8128 23686 31358 185.75 247 246 0.973 11.36141391502 604.96085544466 2798.8653766018
55291	2856516 8350 23686 31358 185.75 247 246 -4.0329093933105 2.5 37.32285118103 374.01796405029
55290	2864866 8335 23645 31358 185.5 247 247 0 15.25 2188.8921554498 29469.470655316
55289	2873201 8676 23604 31358 185.25 247 248 486.85000610352 734.51290893555 129149.27073669 68355537.350002
55288	2881877 8665 23604 31358 185.25 247 248 486.85000610352 785.82187652588 136447.00133514 77071289.619488
55334	2890542 5630 26794 31639 207.75 250 170 0.973 11.36141391502 534.03650470586 2968.7313877721
55333	2896172 5396 26794 31639 207.75 250 170 -3.0620269775391 2.5 37.32285118103 303.93351349793
55332	2901568 5663 26763 31639 207.5 250 171 5.6500000953674 15.25 2188.2838482857 29428.320705905
55331	2907231 6007 26732 31639 207.25 250 172 486.85000610352 734.53128051758 92150.246841431 50343639.457327
55330	2913238 6014 26732 31639 207.25 250 172 486.85000610352 785.82187652588 98238.848777771 57879573.487682
[...]
vector 59140  IntersectionExampleScenario.node[627].veinsmobility  speed  ETV
vector 59141  IntersectionExampleScenario.node[627].veinsmobility  acceleration  ETV
vector 59142  IntersectionExampleScenario.node[627].veinsmobility  co2emission  ETV
58939	24253585 8471 207795 216747 1715.75 1780.5 260 0.973 11.648172402475 631.81850962068 3068.9871803121
58938	24262056 8077 207795 216747 1715.75 1780.5 260 -9.1267242431641 4 37.662351608276 516.01521503645
58937	24270133 8241 207762 216747 1715.5 1780.5 261 0 15.64999961853 2306.2825250626 31741.677132215
58936	24278374 9695 207729 216747 1715.25 1780.5 262 486.85000610352 486.85000610352 127554.70159912 62100007.252064
58935	24288069 9669 207729 216747 1715.25 1780.5 262 235.04968261719 807.99687957764 136266.13518524 75667035.497288
58953	24297738 8327 208196 216903 1718.75 1781.5 252 0.973 11.648172402475 618.55004824591 2955.7126904092
58952	24306065 7755 208196 216903 1718.75 1781.5 252 -4.5 2.5 37.832105636597 460.35228884416
58951	24313820 7971 208159 216903 1718.5 1781.5 253 0 15.64999961853 2274.9998743534 31553.820453076
58950	24321791 9390 208124 216903 1718.25 1781.5 254 486.85000610352 732.32499694824 131861.80780029 69527647.665203
58949	24331181 9388 208124 216903 1718.25 1781.5 254 486.85000610352 809.68438720703 141072.38780975 80827181.540049
vector 59145  IntersectionExampleScenario.node[628].veinsmobility  posx  ETV
vector 59146  IntersectionExampleScenario.node[628].veinsmobility  posy  ETV
vector 59147  IntersectionExampleScenario.node[628].veinsmobility  speed  ETV
vector 59148  IntersectionExampleScenario.node[628].veinsmobility  acceleration  ETV
vector 59149  IntersectionExampleScenario.node[628].veinsmobility  co2emission  ETV
vector 59152  IntersectionExampleScenario.node[629].veinsmobility  posx  ETV
vector 59153  IntersectionExampleScenario.node[629].veinsmobility  posy  ETV
vector 59154  IntersectionExampleScenario.node[629].veinsmobility  speed  ETV
vector 59155  IntersectionExampleScenario.node[629].veinsmobility  acceleration  ETV
vector 59156  IntersectionExampleScenario.node[629].veinsmobility  co2emission  ETV
59030	24341381 5669 212058 217727 1747.5 1786.5 157 0.97223939240464 11.648172402475 499.1266343918 2688.3618551085
59029	24347050 5378 212058 217727 1747.5 1786.5 157 -3.5945930480957 2.5 38.680875778198 244.23229406818
59028	24352428 5558 212025 217727 1747.25 1786.5 158 5.6500000953674 15.64999961853 2211.9102239609 31915.947966454
59027	24357986 5871 211992 217727 1747 1786.5 159 236.06402587891 486.85000610352 68988.495941162 30893506.59962
59026	24363857 5880 211992 217727 1747 1786.5 159 483.14999389648 785.82187652588 90905.069007874 53747199.206335
58967	24369737 7810 209406 217985 1727.5 1788 243 0.973 12.553400930962 717.74207794541 4367.7064495799
58966	24377547 7284 209406 217985 1727.5 1788 243 -7.4685306549072 4 44.112981796265 641.66794965869
58965	24384831 7590 209373 217985 1727.25 1788 244 0 16.89999961853 2206.2711794376 32820.257316279
58964	24392421 9034 209340 217985 1727 1788 245 184.17810058594 731.65287780762 111350.29446411 54534315.597057
58963	24401455 9063 209340 217985 1727 1788 245 486.85000610352 486.85000610352 119278.25149536 58070617.468533
vector 59159  IntersectionExampleScenario.node[630].veinsmobility  posx  ETV
vector 59160  IntersectionExampleScenario.node[630].veinsmobility  posy  ETV
vector 59161  IntersectionExampleScenario.node[630].veinsmobility  speed  ETV
vector 59162  IntersectionExampleScenario.node[630].veinsmobility  acceleration  ETV
vector 59163  IntersectionExampleScenario.node[630].veinsmobility  co2emission  ETV
58974	24410924 8192 209839 218291 1730.75 1789.75 237 0.973 12.553400930962 652.50894448938 3592.7397435287
58973	24419116 8122 209839 218291 1730.75 1789.75 237 -4.5 2.5 42.924703598022 488.00086825522
58972	24427238 8188 209804 218291 1730.5 1789.75 238 0 16.89999961853 2224.5652948022 32583.91667789
58971	24435426 8793 209769 218291 1730.25 1789.75 239 172.9296875 483.14999389648 99680.754302979 43697118.97467
58970	24444219 8838 209769 218291 1730.25 1789.75 239 486.85000610352 731.55769348145 123911.12147522 65229173.493508
58995	24453057 7606 210621 218798 1736.5 1792.75 226 0.973 12.099024792222 593.49454637564 3152.3682698434
58994	24460663 7907 210621 218798 1736.5 1792.75 226 -3.8136029243469 2.5 40.038900375366 343.00412475653
58993	24468570 8066 210586 218798 1736.25 1792.75 227 0 16.27499961853 2181.2733038496 28780.889778413
58992	24476636 8404 210551 218798 1736 1792.75 228 184.17810058594 483.24798583984 94044.144897461 40652360.822506
58991	24485040 8432 210551 218798 1736 1792.75 228 486.85000610352 732.17097473145 118925.29882812 63045896.919264
vector 59166  IntersectionExampleScenario.node[631].veinsmobility  posx  ETV
vector 59167  IntersectionExampleScenario.node[631].veinsmobility  posy  ETV
vector 59168  IntersectionExampleScenario.node[631].veinsmobility  speed  ETV
vector 59169  IntersectionExampleScenario.node[631].veinsmobility  acceleration  ETV
vector 59170  IntersectionExampleScenario.node[631].veinsmobility  co2emission  ETV
59009	24493878 7326 211425 219395 1742.5 1796.5 217 0.973 11.200708441096 545.74576557136 2593.1779764551
59008	24501204 7500 211425 219395 1742.5 1796.5 217 -4.1801862716675 2.5 35.625318527222 321.66712863297
59007	24508704 7741 211392 219395 1742.25 1796.5 218 0 15.02499961853 2179.5284956172 26934.353224229
59006	24516445 8074 211359 219395 1742 1796.5 219 184.17810058594 483.14999389648 89145.860290527 38152792.477431
59005	24524519 8078 211359 219395 1742 1796.5 219 486.85000610352 732.20658874512 115107.95231628 61557490.401215
vector 59173  IntersectionExampleScenario.node[632].veinsmobility  posx  ETV
vector 59174  IntersectionExampleScenario.node[632].veinsmobility  posy  ETV
vector 59175  IntersectionExampleScenario.node[632].veinsmobility  speed  ETV
vector 59176  IntersectionExampleScenario.node[632].veinsmobility  acceleration  ETV
vector 59177  IntersectionExampleScenario.node[632].veinsmobility  co2emission  ETV
vector 59180  IntersectionExampleScenario.node[633].veinsmobility  posx  ETV
vector 59181  IntersectionExampleScenario.node[633].veinsmobility  posy  ETV
vector 59182  IntersectionExampleScenario.node[633].veinsmobility  speed  ETV
vector 59183  IntersectionExampleScenario.node[633].veinsmobility  acceleration  ETV
vector 59184  IntersectionExampleScenario.node[633].veinsmobility  co2emission  ETV
59002	24533409 7976 210863 219945 1738.25 1800 248 0.973 11.90022389248 620.76623201352 3169.4971428968
59001	24541385 7510 210863 219945 1738.25 1800 248 -31.397033691406 4 40.038995742798 1375.5706249611
59000	24548895 7554 210828 219945 1738 1800 249 0 16 1964.6190032959 27162.337555961
58999	24556449 9230 210793 219945 1737.75 1800 250 483.14999389648 802.70781707764 138277.15183258 78812523.30112
58998	24565679 9246 210793 219945 1737.75 1800 250 483.14999389648 656.38243103027 124785.73646545 62680883.306677
59016	24574925 7662 211677 219945 1744.5 1800 223 0.973 11.90022389248 576.90514824826 3073.6257038326
59015	24582587 7908 211677 219945 1744.5 1800 223 -4.5 2.5000009536743 39.701658248901 446.53565270368
59014	24590495 7849 211645 219945 1744.25 1800 224 0 16 1748.3510283763 23924.865962718
59013	24598344 8306 211612 219945 1744 1800 225 483.11508178711 785.82187652588 124979.65225983 71308875.88023
59012	24606650 8307 211612 219945 1744 1800 225 483.14999389648 618.44425964355 111201.87419128 55154173.618497
59023	24614957 6617 211929 219945 1746.5 1800 215 0.973 11.200708441096 402.14052942118 1590.9038909251
59022	24621574 6697 211929 219945 1746.5 1800 215 -6.9841456413269 2.5 -22.60000038147 443.55951696911
59021	24628271 6833 211896 219945 1746.25 1800 216 0 15.238779067993 1174.4610541631 14297.17141876
59020	24635104 7987 211863 219945 1746 1800 217 177.97814941406 471.60000610352 87390.430969238 37017628.200518
59019	24643091 8027 211863 219945 1746 1800 217 486.85000610352 486.85000610352 105646.45132446 51433975.472129
59037	24651118 6520 212293 219945 1749.25 1800 204 0.973 12.353032912318 567.21296672644 3185.1260147392
59036	24657638 5751 212293 219945 1749.25 1800 204 -36.150218963623 4 43.697454452515 1689.3302604599
59035	24663389 5996 212258 219945 1749 1800 205 0 16.625 1535.946562767 22538.760338614
59034	24669385 7621 212223 219945 1748.75 1800 206 422.56185913086 486.85000610352 99661.376739502 48238970.348338
59033	24677006 7612 212223 219945 1748.75 1800 206 483.14999389648 805.05782318115 116158.20936584 67661452.088664
59044	24684618 5916 212693 219945 1752.25 1800 192 0.973 11.522903612864 379.22863342177 1593.6447928664
59043	24690534 6096 212693 219945 1752.25 1800 192 -4.5 2.5 -22.60000038147 372.40581955603
59042	24696630 6216 212660 219945 1752 1800 193 0 15.6934633255 1121.7900265809 13558.951798983
59041	24702846 7146 212626 219945 1751.75 1800 194 184.17810058594 465.20083618164 76758.213317871 31952564.767644
59040	24709992 7177 212626 219945 1751.75 1800 194 486.85000610352 486.85000610352 94448.901184082 45982448.117941
59051	24717169 6162 212994 219945 1754.5 1800 183 0.973 11.54047740176 482.22840192778 2607.7860376953
59050	24723331 6593 212994 219945 1754.5 1800 183 -3.8433012962341 2.5000009536743 38.061460494995 348.21894945248
59049	24729924 6651 212959 219945 1754.25 1800 184 0 15.5 1429.3826286197 17733.259099691
59048	24736575 6843 212924 219945 1754 1800 185 486.85000610352 486.85000610352 90067.25112915 43849241.761954
59047	24743418 6820 212924 219945 1754 1800 185 439.35491943359 791.97494506836 106130.40820312 62694591.334539
59058	24750238 5740 213370 219945 1757.25 1800 172 0.973 11.200708441096 409.59259296752 1860.2913976813
59057	24755978 6212 213370 219945 1757.25 1800 172 -4.5 2.5000019073486 21.39999961853 337.90857706118
59056	24762190 6276 213335 219945 1757 1800 173 0 15.02499961853 1328.6255823448 15633.280980921
59055	24768466 6437 213300 219945 1756.75 1800 174 486.85000610352 486.85000610352 84711.901062012 41241989.549081
59054	24774903 6423 213300 219945 1756.75 1800 174 474.02938842773 803.12185668945 102987.13858032 62634691.965657
59065	24781326 5520 213507 219945 1758.25 1800 168 0.973 11.648172402475 343.01269849367 1557.110188446
59064	24786846 6175 213507 219945 1758.25 1800 168 -4.4771347045898 2.5 -22.41642986238 256.36895427366
59063	24793021 6199 213472 219945 1758 1800 169 0 16.008903503418 1095.973924418 13769.700563206
59062	24799220 6257 213437 219945 1757.75 1800 170 184.17810058594 458.68472290039 65633.897583008 26736545.338673
59061	24805477 6289 213437 219945 1757.75 1800 170 486.85000610352 486.85000610352 82764.501037598 40293897.835309
59072	24811766 5427 213883 219945 1761 1800 157 0.973 10.866930664132 350.27849697307 1529.9366014229
59071	24817193 5553 213883 219945 1761 1800 157 -4.5 2.5 -21.392259120941 392.64164006201
59070	24822746 5794 213848 219945 1760.75 1800 158 0 15.228097915649 1092.0784617476 13001.951149601
59069	24828540 5857 213813 219945 1760.5 1800 159 169.95465087891 442.71304321289 56691.006378174 21652199.045426
59068	24834397 5882 213813 219945 1760.5 1800 159 486.84997558594 486.85000610352 77409.150787354 37686645.444146
59079	24840279 5360 213956 219945 1761.5 1800 155 0.973 11.200708441096 308.17793997231 1323.8190043919
59078	24845639 5717 213956 219945 1761.5 1800 155 -4.5 2.5 -21.228307247162 259.46624753301
59077	24851356 5749 213920 219945 1761.25 1800 156 0 15.02499961853 1034.5881305411 12665.017146391
59076	24857105 5776 213883 219945 1761 1800 157 192.07421875 450.71487426758 59334.169647217 23594354.076481
59075	24862881 5807 213883 219945 1761 1800 157 486.85000610352 486.85000610352 76435.450958252 37212599.76555
59086	24868688 5072 214170 219945 1763 1800 149 0.973 11.200708441096 455.81680220707 2534.8548600832
59085	24873760 5252 214170 219945 1763 1800 149 -2.6050186157227 2.5 37.508611679077 289.48065506201
59084	24879012 5322 214133 219945 1762.75 1800 150 2.9833383560181 15.322856903076 1610.4171264172 19927.993402325
59083	24884334 5572 214096 219945 1762.5 1800 151 483.14999389648 785.82187652588 88641.866020203 53540534.2941
59082	24889906 5583 214096 219945 1762.5 1800 151 483.14999389648 583.47445678711 74420.649475098 36760183.011427
59093	24895489 4578 214464 219945 1765 1800 141 0.973 11.200708441096 343.05654561922 1711.7880140324
59092	24900067 5069 214464 219945 1765 1800 141 -3.7943251132965 2.5000019073486 19.220357894897 291.92411148104
59091	24905136 5198 214428 219945 1764.75 1800 142 0 15.297841072083 1157.6593753453 13793.472988254
59090	24910334 5290 214391 219945 1764.5 1800 143 486.85000610352 486.85000610352 69619.550872803 33894278.767348
59089	24915624 5271 214391 219945 1764.5 1800 143 499.84881591797 785.82187652588 85910.900260925 52819616.462826
59100	24920895 4469 214783 219945 1767.25 1800 132 0.97223939240464 11.76448399759 305.0930439877 1648.0342408759
59099	24925364 4680 214783 219945 1767.25 1800 132 -4.5 2.5 -21.666062414646 330.74930496128
59098	24930044 4885 214746 219945 1767 1800 133 0 15.811696052551 1027.8965730984 13224.719386285
59097	24934929 4938 214709 219945 1766.75 1800 134 178.39825439453 435.39669799805 47507.924438477 17891857.023279
59096	24939867 4957 214709 219945 1766.75 1800 134 486.84994506836 486.85003662109 65237.900360107 31761071.965637
59107	24944824 3350 215652 219945 1773.25 1800 108 0.973 12.106412144224 271.45049305674 1514.8412845103
59106	24948174 3677 215652 219945 1773.25 1800 108 -4.2242908477783 2.5000019073486 -22.60000038147 263.47794085879
59105	24951851 3781 215615 219945 1773 1800 109 0 16.285221099854 976.00651925802 12690.677071439
59104	24955632 4034 215578 219945 1772.75 1800 110 184.17810058594 428.5129699707 37454.42880249 13561287.504641
59103	24959666 4069 215578 219945 1772.75 1800 110 486.85000610352 486.85000610352 53553.500671387 26072522.128729
59114	24963735 3340 215800 219945 1774.25 1800 104 0.973 12.099024792222 287.1910877675 1661.8079044029
59113	24967075 3702 215800 219945 1774.25 1800 104 -2.2625617980957 2.5 7.2250003814697 218.31168835834
59112	24970777 3857 215762 219945 1774 1800 105 3.4266674518585 16.27499961853 1085.9323534966 13308.228470341
59111	24974634 3921 215723 219945 1773.75 1800 106 486.85000610352 486.85000610352 51606.100646973 25124430.414957
59110	24978555 3908 215723 219945 1773.75 1800 106 516.65145874023 785.82187652588 66796.820426941 42912190.867846
59121	24982463 3501 215800 219945 1774.25 1800 104 0.973 11.200708441096 268.89660343402 1322.5132865101
59120	24985964 3500 215800 219945 1774.25 1800 104 -6.9345288276672 2.5 -22.60000038147 297.81667777155
59119	24989464 3672 215762 219945 1774 1800 105 0 15.02499961853 1147.0843166113 15494.654793934
59118	24993136 3921 215723 219945 1773.75 1800 106 483.14999389648 483.14999389648 51213.899353027 24743995.15983
59117	24997057 3897 215723 219945 1773.75 1800 106 184.17810058594 471.60000610352 36793.400665283 13807862.523899
59128	25000954 3027 216137 219945 1776.5 1800 95 0.973 12.099024792222 259.45730039761 1554.0800192421
59127	25003981 3383 216137 219945 1776.5 1800 95 -3.2432479858398 2.5 -21.50130546093 231.22341725085
59126	25007364 3541 216098 219945 1776.25 1800 96 0.27467373013496 16.27499961853 995.95837417245 13122.909427791
59125	25010905 3556 216059 219945 1776 1800 97 172.9296875 422.1086730957 30974.016448975 10612083.34202
59124	25014461 3587 216059 219945 1776 1800 97 486.85000610352 486.85000610352 47224.450592041 22991224.05897
59135	25018048 2947 216401 219945 1778.25 1800 88 0.97223939240464 11.648172402475 253.16274351063 1459.4768211495
59134	25020995 3161 216401 219945 1778.25 1800 88 -3.989185333252 2.5 6.0853576660156 200.30147027532
59133	25024156 3274 216362 219945 1778 1800 89 5.6500000953674 15.64999961853 1049.1192293167 13492.365320031
59132	25027430 3329 216323 219945 1777.75 1800 90 486.85000610352 486.85000610352 43816.500549316 21332063.559869
59131	25030759 3319 216323 219945 1777.75 1800 90 532.14770507812 792.02188110352 58880.399429321 39166987.111483
59142	25034078 2667 216747 219945 1780.5 1800 79 0.973 11.648172402475 232.09744800237 1359.189165366
59141	25036745 2883 216747 219945 1780.5 1800 79 -1.5475006103516 2.5 17.683488845825 122.85428702242
59140	25039628 2941 216708 219945 1780.25 1800 80 5.6500000953674 15.64999961853 1028.6122074127 13735.99710272
59139	25042569 2995 216669 219945 1780 1800 81 486.85000610352 486.85000610352 39434.850494385 19198857.203882
59138	25045564 2988 216669 219945 1780 1800 81 551.88235473633 805.80782318115 55095.728263855 38004307.749832
59149	25048552 2222 217141 219945 1783 1800 69 0.973 11.200708441096 209.55302829573 1330.8524128077
59148	25050774 2451 217141 219945 1783 1800 69 -2.1021919250488 2.5 1.7589893341064 152.02103197134
59147	25053225 2577 217100 219945 1782.75 1800 70 5.6500000953674 15.993790626526 863.64424133301 11302.330180716
59146	25055802 2607 217059 219945 1782.5 1800 71 184.17810058594 398.34555053711 20691.377563477 6374644.1438153
59145	25058409 2626 217059 219945 1782.5 1800 71 486.85000610352 486.85000610352 34566.35043335 16828627.919452
59156	25061035 1988 217555 219945 1785.5 1800 59 0.97223939240464 11.648172402475 200.2889305917 1303.4111892231
59155	25063023 2103 217555 219945 1785.5 1800 59 -3.1046981811523 2.5 5.8022689819336 168.54505186986
59154	25065126 2204 217512 219945 1785.25 1800 60 5.6500000953674 15.64999961853 759.08691167831 10202.789986131
59153	25067330 2234 217469 219945 1785 1800 61 168.58435058594 356.27978515625 15826.596801758 4336785.7471024
59152	25069564 2255 217469 219945 1785 1800 61 486.85000610352 486.85000610352 29697.850372314 14458398.635023
59163	25071819 1612 218204 219945 1789.25 1800 44 0.973 11.648172402475 196.06465402501 1328.9250991956
59162	25073431 1523 218204 219945 1789.25 1800 44 -0.58343887329102 2.5 39.691858291626 100.48809670714
59161	25074954 1650 218159 219945 1789 1800 45 5.6500000953674 15.655890464783 618.17391300201 8911.7864992615
59160	25076604 1701 218114 219945 1788.75 1800 46 486.85000610352 486.85000610352 22395.100280762 10903054.708378
59159	25078305 1698 218114 219945 1788.75 1800 46 636.4942779541 785.82187652588 33154.2786026 23997761.783974
59170	25080003 589 219355 219945 1796.25 1800 16 5.2162187258585 11.648172402475 134.25053707584 1188.8536053759
59169	25080592 412 219355 219945 1796.25 1800 16 2.4999980926514 2.5 39.999998092651 99.99999046326
59168	25081004 617 219314 219945 1796 1800 17 5.6500000953674 15.64999961853 181.04999542236 2087.5573869991
59167	25081621 665 219273 219945 1795.75 1800 18 486.85000610352 486.85000610352 8763.3001098633 4266412.7119739
59166	25082286 665 219273 219945 1795.75 1800 18 745.72188568115 785.82187652588 13857.068901062 10670567.205861
59177	25082951 294 219665 219945 1798.25 1800 8 5.2162187258585 8.1519697732254 53.421447184847 364.11653726105
59176	25083245 212 219665 219945 1798.25 1800 8 2.4999980926514 2.5 19.999998092651 49.99999046326
59175	25083457 329 219626 219945 1798 1800 9 5.6500000953674 10.64999961853 73.349998474121 621.23996916771
59174	25083786 369 219587 219945 1797.75 1800 10 486.85000610352 486.85000610352 4868.5000610352 2370229.2844299
59173	25084155 369 219587 219945 1797.75 1800 10 788.87189483643 803.92188262939 7978.0563812256 6365194.1527745
59184	25084524 73 219903 219945 1799.75 1800 2 5.2162187258585 5.6304533568076 10.846672082666 58.910942799184
59183	25084597 49 219903 219945 1799.75 1800 2 2.5 2.5 5 12.5
59182	25084646 110 219862 219945 1799.5 1800 3 5.6500000953674 6.9000000953674 18.825000286102 118.90812859058
59181	25084756 148 219821 219945 1799.25 1800 4 483.14999389648 483.14999389648 1932.5999755859 933735.66640869
59180	25084904 148 219821 219945 1799.25 1800 4 184.17810058594 187.00311279297 740.87182617188 137228.20185051
54745	25085052 640 0 219944 0 1800 31 0 33 620 13688
54746	25085692 656 0 219944 0 1800 31 0 247 3658 598974
