file 21999549 1591491017                                        
version 2
run nodebug-44-20200606-20:46:41-18208
attr configname nodebug
attr datetime 20200606-20:46:41
attr experiment nodebug
attr inifile omnetpp.ini
attr iterationvars ""
attr iterationvars2 $repetition=44
attr measurement ""
attr network "\"org.car2x.veins.modules.application.ExtTraCIScenarioManagerLaunchd.IntersectionExampleScenario\""
attr processid 18208
attr repetition 44
attr replication #44
attr resultdir results
attr runnumber 44
attr seedset 44
param **.coreDebug false
param **.debug false
param *.**.nic.mac1609_4.bitrate 18Mbps
param *.**.nic.mac1609_4.txPower 20mW
param *.**.nic.mac1609_4.useServiceChannel false
param *.**.nic.phy80211p.analogueModels "xmldoc(\"config.xml\")"
param *.**.nic.phy80211p.decider "xmldoc(\"config.xml\")"
param *.**.nic.phy80211p.sensitivity -89dBm
param *.**.nic.phy80211p.thermalNoise -110dBm
param *.**.nic.phy80211p.usePropagationDelay true
param *.**.nic.phy80211p.useThermalNoise true
param *.annotations.draw false
param *.connectionManager.alpha 2.0
param *.connectionManager.carrierFrequency "5.890e9 Hz"
param *.connectionManager.pMax 20mW
param *.connectionManager.sat -89dBm
param *.connectionManager.sendDirect true
param *.manager.autoShutdown true
param *.manager.host "\"localhost\""
param *.manager.launchConfig "xmldoc(\"paramics.launchd.xml\")"
param *.manager.margin 25
param *.manager.moduleDisplayString "\"\""
param *.manager.moduleName "\"node\""
param *.manager.moduleType "\"org.car2x.veins.nodes.Car\""
param *.manager.port 9999
param *.manager.updateInterval 250ms
param *.node[*0].veinsmobility.accidentCount 0
param *.node[*0].veinsmobility.accidentDuration 30s
param *.node[*0].veinsmobility.accidentStart 75s
param *.node[*].appl.LiderSelectZoneRadio 55.0
param *.node[*].appl.ShareDataZoneRadio 110.0
param *.node[*].appl.TiempoSemaforo 30.0
param *.node[*].appl.beaconInterval 1s
param *.node[*].appl.beaconPriority 3
param *.node[*].appl.dataOnSch false
param *.node[*].appl.dataPriority 2
param *.node[*].appl.debug false
param *.node[*].appl.headerLength "256 bit"
param *.node[*].appl.maxOffset 0.005s
param *.node[*].appl.sendBeacons false
param *.node[*].appl.sendData true
param *.node[*].applType "\"Dummy\""
param *.node[*].mobilityType "\"TraCIMobility\""
param *.node[*].mobilityType.debug true
param *.node[*].veinsmobility.x 0
param *.node[*].veinsmobility.y 0
param *.node[*].veinsmobility.z 1.895
param *.node[*].veinsmobilityType "\"org.car2x.veins.modules.mobility.traci.TraCIMobility\""
param *.node[*].veinsmobilityType.debug true
param *.playgroundSizeX 8500m
param *.playgroundSizeY 8500m
param *.playgroundSizeZ 50m
param *.world.use2D false
param *.world.useTorus false

vector 45133  IntersectionExampleScenario.manager  vehiclesinsim  ETV
attr type  int
vector 45134  IntersectionExampleScenario.manager  realtime  ETV
attr type  int
attr unit  s
vector 45137  IntersectionExampleScenario.node[0].veinsmobility  posx  ETV
vector 45138  IntersectionExampleScenario.node[0].veinsmobility  posy  ETV
vector 45139  IntersectionExampleScenario.node[0].veinsmobility  speed  ETV
vector 45140  IntersectionExampleScenario.node[0].veinsmobility  acceleration  ETV
vector 45141  IntersectionExampleScenario.node[0].veinsmobility  co2emission  ETV
vector 45144  IntersectionExampleScenario.node[1].veinsmobility  posx  ETV
vector 45145  IntersectionExampleScenario.node[1].veinsmobility  posy  ETV
vector 45146  IntersectionExampleScenario.node[1].veinsmobility  speed  ETV
vector 45147  IntersectionExampleScenario.node[1].veinsmobility  acceleration  ETV
vector 45148  IntersectionExampleScenario.node[1].veinsmobility  co2emission  ETV
vector 45151  IntersectionExampleScenario.node[2].veinsmobility  posx  ETV
vector 45152  IntersectionExampleScenario.node[2].veinsmobility  posy  ETV
vector 45153  IntersectionExampleScenario.node[2].veinsmobility  speed  ETV
vector 45154  IntersectionExampleScenario.node[2].veinsmobility  acceleration  ETV
vector 45155  IntersectionExampleScenario.node[2].veinsmobility  co2emission  ETV
vector 45158  IntersectionExampleScenario.node[3].veinsmobility  posx  ETV
vector 45159  IntersectionExampleScenario.node[3].veinsmobility  posy  ETV
vector 45160  IntersectionExampleScenario.node[3].veinsmobility  speed  ETV
vector 45161  IntersectionExampleScenario.node[3].veinsmobility  acceleration  ETV
vector 45162  IntersectionExampleScenario.node[3].veinsmobility  co2emission  ETV
vector 45165  IntersectionExampleScenario.node[4].veinsmobility  posx  ETV
vector 45166  IntersectionExampleScenario.node[4].veinsmobility  posy  ETV
vector 45167  IntersectionExampleScenario.node[4].veinsmobility  speed  ETV
vector 45168  IntersectionExampleScenario.node[4].veinsmobility  acceleration  ETV
vector 45169  IntersectionExampleScenario.node[4].veinsmobility  co2emission  ETV
vector 45172  IntersectionExampleScenario.node[5].veinsmobility  posx  ETV
vector 45173  IntersectionExampleScenario.node[5].veinsmobility  posy  ETV
vector 45174  IntersectionExampleScenario.node[5].veinsmobility  speed  ETV
vector 45179  IntersectionExampleScenario.node[6].veinsmobility  posx  ETV
vector 45180  IntersectionExampleScenario.node[6].veinsmobility  posy  ETV
vector 45175  IntersectionExampleScenario.node[5].veinsmobility  acceleration  ETV
vector 45176  IntersectionExampleScenario.node[5].veinsmobility  co2emission  ETV
vector 45181  IntersectionExampleScenario.node[6].veinsmobility  speed  ETV
vector 45182  IntersectionExampleScenario.node[6].veinsmobility  acceleration  ETV
vector 45183  IntersectionExampleScenario.node[6].veinsmobility  co2emission  ETV
vector 45186  IntersectionExampleScenario.node[7].veinsmobility  posx  ETV
vector 45187  IntersectionExampleScenario.node[7].veinsmobility  posy  ETV
vector 45188  IntersectionExampleScenario.node[7].veinsmobility  speed  ETV
vector 45189  IntersectionExampleScenario.node[7].veinsmobility  acceleration  ETV
vector 45190  IntersectionExampleScenario.node[7].veinsmobility  co2emission  ETV
vector 45193  IntersectionExampleScenario.node[8].veinsmobility  posx  ETV
vector 45194  IntersectionExampleScenario.node[8].veinsmobility  posy  ETV
vector 45195  IntersectionExampleScenario.node[8].veinsmobility  speed  ETV
vector 45196  IntersectionExampleScenario.node[8].veinsmobility  acceleration  ETV
vector 45197  IntersectionExampleScenario.node[8].veinsmobility  co2emission  ETV
vector 45200  IntersectionExampleScenario.node[9].veinsmobility  posx  ETV
vector 45201  IntersectionExampleScenario.node[9].veinsmobility  posy  ETV
vector 45202  IntersectionExampleScenario.node[9].veinsmobility  speed  ETV
vector 45203  IntersectionExampleScenario.node[9].veinsmobility  acceleration  ETV
vector 45204  IntersectionExampleScenario.node[9].veinsmobility  co2emission  ETV
vector 45207  IntersectionExampleScenario.node[10].veinsmobility  posx  ETV
vector 45208  IntersectionExampleScenario.node[10].veinsmobility  posy  ETV
vector 45209  IntersectionExampleScenario.node[10].veinsmobility  speed  ETV
vector 45210  IntersectionExampleScenario.node[10].veinsmobility  acceleration  ETV
vector 45211  IntersectionExampleScenario.node[10].veinsmobility  co2emission  ETV
vector 45214  IntersectionExampleScenario.node[11].veinsmobility  posx  ETV
vector 45215  IntersectionExampleScenario.node[11].veinsmobility  posy  ETV
vector 45216  IntersectionExampleScenario.node[11].veinsmobility  speed  ETV
vector 45217  IntersectionExampleScenario.node[11].veinsmobility  acceleration  ETV
vector 45218  IntersectionExampleScenario.node[11].veinsmobility  co2emission  ETV
vector 45221  IntersectionExampleScenario.node[12].veinsmobility  posx  ETV
vector 45222  IntersectionExampleScenario.node[12].veinsmobility  posy  ETV
vector 45223  IntersectionExampleScenario.node[12].veinsmobility  speed  ETV
vector 45224  IntersectionExampleScenario.node[12].veinsmobility  acceleration  ETV
vector 45225  IntersectionExampleScenario.node[12].veinsmobility  co2emission  ETV
vector 45228  IntersectionExampleScenario.node[13].veinsmobility  posx  ETV
vector 45229  IntersectionExampleScenario.node[13].veinsmobility  posy  ETV
vector 45230  IntersectionExampleScenario.node[13].veinsmobility  speed  ETV
vector 45231  IntersectionExampleScenario.node[13].veinsmobility  acceleration  ETV
vector 45232  IntersectionExampleScenario.node[13].veinsmobility  co2emission  ETV
vector 45235  IntersectionExampleScenario.node[14].veinsmobility  posx  ETV
vector 45236  IntersectionExampleScenario.node[14].veinsmobility  posy  ETV
vector 45242  IntersectionExampleScenario.node[15].veinsmobility  posx  ETV
vector 45243  IntersectionExampleScenario.node[15].veinsmobility  posy  ETV
vector 45237  IntersectionExampleScenario.node[14].veinsmobility  speed  ETV
vector 45244  IntersectionExampleScenario.node[15].veinsmobility  speed  ETV
vector 45238  IntersectionExampleScenario.node[14].veinsmobility  acceleration  ETV
vector 45239  IntersectionExampleScenario.node[14].veinsmobility  co2emission  ETV
vector 45245  IntersectionExampleScenario.node[15].veinsmobility  acceleration  ETV
vector 45246  IntersectionExampleScenario.node[15].veinsmobility  co2emission  ETV
45141	9302 7035 29 3728 6 68.25 250 0.973 11.648172402475 621.02491236005 3005.7710085118
45140	16337 6348 29 3728 6 68.25 250 -7.03919506073 4 38.341367721558 481.63103295482
45139	22685 6677 26 3728 5.75 68.25 251 0 15.64999961853 2212.4081838131 31409.619262413
45138	29362 8113 23 3728 5.5 68.25 252 236.58178710938 785.82187652588 129198.8403244 70413257.380232
45137	37475 8128 23 3728 5.5 68.25 252 483.14999389648 483.14999389648 121753.79846191 58825346.983747
vector 45249  IntersectionExampleScenario.node[16].veinsmobility  posx  ETV
vector 45250  IntersectionExampleScenario.node[16].veinsmobility  posy  ETV
vector 45251  IntersectionExampleScenario.node[16].veinsmobility  speed  ETV
vector 45252  IntersectionExampleScenario.node[16].veinsmobility  acceleration  ETV
vector 45253  IntersectionExampleScenario.node[16].veinsmobility  co2emission  ETV
vector 45256  IntersectionExampleScenario.node[17].veinsmobility  posx  ETV
vector 45257  IntersectionExampleScenario.node[17].veinsmobility  posy  ETV
vector 45258  IntersectionExampleScenario.node[17].veinsmobility  speed  ETV
vector 45259  IntersectionExampleScenario.node[17].veinsmobility  acceleration  ETV
vector 45260  IntersectionExampleScenario.node[17].veinsmobility  co2emission  ETV
vector 45263  IntersectionExampleScenario.node[18].veinsmobility  posx  ETV
vector 45264  IntersectionExampleScenario.node[18].veinsmobility  posy  ETV
vector 45265  IntersectionExampleScenario.node[18].veinsmobility  speed  ETV
vector 45266  IntersectionExampleScenario.node[18].veinsmobility  acceleration  ETV
vector 45267  IntersectionExampleScenario.node[18].veinsmobility  co2emission  ETV
vector 45270  IntersectionExampleScenario.node[19].veinsmobility  posx  ETV
vector 45271  IntersectionExampleScenario.node[19].veinsmobility  posy  ETV
vector 45272  IntersectionExampleScenario.node[19].veinsmobility  speed  ETV
vector 45273  IntersectionExampleScenario.node[19].veinsmobility  acceleration  ETV
vector 45274  IntersectionExampleScenario.node[19].veinsmobility  co2emission  ETV
vector 45277  IntersectionExampleScenario.node[20].veinsmobility  posx  ETV
vector 45278  IntersectionExampleScenario.node[20].veinsmobility  posy  ETV
vector 45279  IntersectionExampleScenario.node[20].veinsmobility  speed  ETV
vector 45280  IntersectionExampleScenario.node[20].veinsmobility  acceleration  ETV
vector 45281  IntersectionExampleScenario.node[20].veinsmobility  co2emission  ETV
vector 45284  IntersectionExampleScenario.node[21].veinsmobility  posx  ETV
vector 45285  IntersectionExampleScenario.node[21].veinsmobility  posy  ETV
vector 45286  IntersectionExampleScenario.node[21].veinsmobility  speed  ETV
vector 45287  IntersectionExampleScenario.node[21].veinsmobility  acceleration  ETV
vector 45288  IntersectionExampleScenario.node[21].veinsmobility  co2emission  ETV
45148	48009 7583 153 5515 16 83.75 272 0.973 11.90022389248 653.72172426492 3174.9584736761
45147	55592 6746 153 5515 16 83.75 272 -6.9388580322266 4 39.869146347046 486.92859174969
45146	62338 7117 148 5515 15.75 83.75 273 0 16 2204.3578848839 31907.458465355
45145	69455 8939 143 5515 15.5 83.75 274 486.85000610352 486.85000610352 133396.90167236 64944282.39338
45144	78394 8927 143 5515 15.5 83.75 274 238.82672119141 785.82187652588 140367.44927216 75976767.063259
45155	87321 6888 397 5768 28 85.75 232 0.973 12.099024792222 607.17191300062 3171.7833082491
45154	94209 7364 397 5768 28 85.75 232 -3.7487018108368 2.5000009536743 40.038900375366 350.80960544329
45153	101573 7457 390 5768 27.75 85.75 233 0 16.27499961853 2211.2804302182 30143.329740973
45152	109030 7667 383 5768 27.5 85.75 234 486.85000610352 486.85000610352 113922.90142822 55463365.25566
45151	116697 7628 383 5768 27.5 85.75 234 237.97406005859 785.82187652588 121510.21256256 67152079.013047
vector 45291  IntersectionExampleScenario.node[22].veinsmobility  posx  ETV
vector 45292  IntersectionExampleScenario.node[22].veinsmobility  posy  ETV
vector 45293  IntersectionExampleScenario.node[22].veinsmobility  speed  ETV
45162	124557 6836 506 6154 31.75 89 230 0.973 11.810082123732 594.8503526138 3053.0690105107
45161	131393 7225 506 6154 31.75 89 230 -4.4525909423828 2.5 38.511121749878 386.17186362688
45160	138618 7243 497 6154 31.5 89 231 0 15.875 2222.1649770215 28914.873016426
45159	145861 7611 488 6154 31.25 89 232 486.85000610352 734.86604309082 121221.39138794 64407680.865226
45158	153472 7593 488 6154 31.25 89 232 486.84405517578 793.78281402588 130075.95646667 74933455.600192
vector 45294  IntersectionExampleScenario.node[22].veinsmobility  acceleration  ETV
vector 45295  IntersectionExampleScenario.node[22].veinsmobility  co2emission  ETV
vector 45298  IntersectionExampleScenario.node[23].veinsmobility  posx  ETV
vector 45299  IntersectionExampleScenario.node[23].veinsmobility  posy  ETV
45176	161388 6301 736 6309 37.25 90.25 213 0.973 11.90022389248 582.17726855314 3085.4173551462
45175	167689 6645 736 6309 37.25 90.25 213 -4.0709266662598 2.5 40.208654403687 345.87569767905
45174	174334 6743 723 6309 37 90.25 214 1.6528618335724 16 2214.1300160885 29083.644480888
45173	181077 7070 710 6309 36.75 90.25 215 235.41851806641 486.85000610352 96410.261749268 44297776.237194
45172	188147 7055 710 6309 36.75 90.25 215 483.14999389648 785.82187652588 121008.72270966 69933320.730734
vector 45300  IntersectionExampleScenario.node[23].veinsmobility  speed  ETV
vector 45301  IntersectionExampleScenario.node[23].veinsmobility  acceleration  ETV
vector 45302  IntersectionExampleScenario.node[23].veinsmobility  co2emission  ETV
45183	195449 6689 766 6589 37.75 92.5 220 0.973 11.519712662168 581.2057068811 2822.6062745958
45182	202138 6844 766 6589 37.75 92.5 220 -4.5 2.5 38.341367721558 311.4695020167
45181	208982 6992 751 6589 37.5 92.5 221 1.7670323848724 15.471047401428 2296.8547319174 29299.184715393
45180	215974 7302 736 6589 37.25 92.5 222 238.28631591797 486.85000610352 99768.097137451 45901592.687099
45179	223276 7298 736 6589 37.25 92.5 222 483.11968994141 809.56562805176 127059.19850922 75016668.40832
vector 45305  IntersectionExampleScenario.node[24].veinsmobility  posx  ETV
vector 45306  IntersectionExampleScenario.node[24].veinsmobility  posy  ETV
vector 45307  IntersectionExampleScenario.node[24].veinsmobility  speed  ETV
vector 45308  IntersectionExampleScenario.node[24].veinsmobility  acceleration  ETV
vector 45309  IntersectionExampleScenario.node[24].veinsmobility  co2emission  ETV
vector 45312  IntersectionExampleScenario.node[25].veinsmobility  posx  ETV
vector 45313  IntersectionExampleScenario.node[25].veinsmobility  posy  ETV
vector 45314  IntersectionExampleScenario.node[25].veinsmobility  speed  ETV
vector 45315  IntersectionExampleScenario.node[25].veinsmobility  acceleration  ETV
vector 45316  IntersectionExampleScenario.node[25].veinsmobility  co2emission  ETV
45190	231376 6841 890 7488 39.75 99.25 239 0.973 12.553400930962 646.80106036465 3556.9893864425
45189	238217 6312 890 7488 39.75 99.25 239 -8.9823589324951 4 42.924703598022 532.36746453592
45188	244529 6483 873 7488 39.5 99.25 240 0 16.89999961853 2196.7820181847 32921.173063492
45187	251012 7914 856 7488 39.25 99.25 241 184.17810058594 486.85000610352 102387.98907471 45516379.042855
45186	258926 7936 856 7488 39.25 99.25 241 238.23779296875 486.85000610352 109568.27581787 50847482.771601
45218	266862 6488 1594 7884 48.25 102.25 217 0.973 12.099024792222 593.04542815792 3174.7323612599
45217	273350 6879 1594 7884 48.25 102.25 217 -3.9512770175934 2.5 40.887662887573 351.10821531026
45216	280229 6953 1569 7884 48 102.25 218 0 16.27499961853 2206.5605298802 30168.140333158
45215	287182 7205 1544 7884 47.75 102.25 219 184.17810058594 487.03280639648 90747.381286621 39505342.640021
45214	294387 7226 1544 7884 47.75 102.25 219 236.95745849609 486.85000610352 98531.830322266 45376623.312251
vector 45319  IntersectionExampleScenario.node[26].veinsmobility  posx  ETV
vector 45320  IntersectionExampleScenario.node[26].veinsmobility  posy  ETV
vector 45321  IntersectionExampleScenario.node[26].veinsmobility  speed  ETV
vector 45322  IntersectionExampleScenario.node[26].veinsmobility  acceleration  ETV
vector 45323  IntersectionExampleScenario.node[26].veinsmobility  co2emission  ETV
45239	302014 5042 3604 8469 67.25 107 160 0.973 11.810082123732 535.29483434182 3283.7044612272
45238	307056 4893 3604 8469 67.25 107 160 -4.1984062194824 2.5 38.511121749878 331.79060917616
45237	311949 4990 3573 8469 67 107 161 5.6500000953674 15.875 2189.5480661392 31129.099847196
45236	316939 5351 3542 8469 66.75 107 162 184.17810058594 483.17584228516 64400.026275635 27342805.263253
45235	322290 5370 3542 8469 66.75 107 162 486.85000610352 734.53486633301 87118.082336426 47787425.368465
vector 45326  IntersectionExampleScenario.node[27].veinsmobility  posx  ETV
vector 45327  IntersectionExampleScenario.node[27].veinsmobility  posy  ETV
vector 45328  IntersectionExampleScenario.node[27].veinsmobility  speed  ETV
vector 45329  IntersectionExampleScenario.node[27].veinsmobility  acceleration  ETV
vector 45330  IntersectionExampleScenario.node[27].veinsmobility  co2emission  ETV
45169	328061 8981 600 9368 34.25 115.75 327 0.973 12.099024792222 717.45785254988 3371.5632449416
45168	337042 8099 600 9368 34.25 115.75 327 -9.4888134002686 4 40.887662887573 535.35535781686
45167	345141 8285 589 9368 34 115.75 328 0 16.27499961853 2218.0271503925 32566.985442816
45166	353426 10891 578 9368 33.75 115.75 329 483.14999389648 483.14999389648 158956.34799194 76799758.562115
45165	364317 10866 578 9368 33.75 115.75 329 184.17810058594 734.33682250977 151576.28317261 73922370.678379
vector 45333  IntersectionExampleScenario.node[28].veinsmobility  posx  ETV
vector 45334  IntersectionExampleScenario.node[28].veinsmobility  posy  ETV
vector 45340  IntersectionExampleScenario.node[29].veinsmobility  posx  ETV
vector 45341  IntersectionExampleScenario.node[29].veinsmobility  posy  ETV
vector 45347  IntersectionExampleScenario.node[30].veinsmobility  posx  ETV
vector 45348  IntersectionExampleScenario.node[30].veinsmobility  posy  ETV
vector 45335  IntersectionExampleScenario.node[28].veinsmobility  speed  ETV
vector 45336  IntersectionExampleScenario.node[28].veinsmobility  acceleration  ETV
vector 45337  IntersectionExampleScenario.node[28].veinsmobility  co2emission  ETV
vector 45342  IntersectionExampleScenario.node[29].veinsmobility  speed  ETV
vector 45349  IntersectionExampleScenario.node[30].veinsmobility  speed  ETV
vector 45343  IntersectionExampleScenario.node[29].veinsmobility  acceleration  ETV
vector 45344  IntersectionExampleScenario.node[29].veinsmobility  co2emission  ETV
vector 45350  IntersectionExampleScenario.node[30].veinsmobility  acceleration  ETV
vector 45351  IntersectionExampleScenario.node[30].veinsmobility  co2emission  ETV
45197	376386 8948 1013 9579 41.5 117.75 306 0.973 11.810082123732 664.98337505459 3081.9412231665
45196	385334 9371 1013 9579 41.5 117.75 306 -3.716089963913 2.5 38.511121749878 345.43499388999
45195	394705 9161 994 9579 41.25 117.75 307 0 15.875 2188.7663894985 28988.782697405
45194	403866 10222 975 9579 41 117.75 308 235.74407958984 483.14999389648 140583.77319336 65302115.084376
45193	414088 10200 975 9579 41 117.75 308 184.17810058594 483.14999389648 131722.56698608 58400096.975439
vector 45354  IntersectionExampleScenario.node[31].veinsmobility  posx  ETV
vector 45355  IntersectionExampleScenario.node[31].veinsmobility  posy  ETV
vector 45356  IntersectionExampleScenario.node[31].veinsmobility  speed  ETV
vector 45357  IntersectionExampleScenario.node[31].veinsmobility  acceleration  ETV
vector 45358  IntersectionExampleScenario.node[31].veinsmobility  co2emission  ETV
45204	424689 9506 1112 9809 42.75 119.75 309 0.973 11.200708441096 667.20276629888 2791.6894488617
45203	434195 10052 1112 9809 42.75 119.75 309 -4.5 2.5 36.134572982788 380.3850033456
45202	444247 10068 1091 9809 42.5 119.75 310 0 15.02499961853 2295.6479107402 29332.771239959
45201	454315 10345 1070 9809 42.25 119.75 311 483.14999389648 483.14999389648 150259.64810181 72597948.063276
45200	464660 10299 1070 9809 42.25 119.75 311 162.90466308594 732.19125366211 138155.75857544 66139623.910175
45211	474959 9385 1452 10071 46.75 122 302 0.973 11.450879080643 679.86735063116 2985.794661615
45210	484344 9600 1452 10071 46.75 122 302 -4.5 2.5000009536743 38.511121749878 420.24484023615
45209	493944 9773 1429 10071 46.5 122 303 0 15.375 2276.6615386978 29693.16503319
45208	503717 10115 1406 10071 46.25 122 304 483.14999389648 732.94816589355 155252.74545288 80450104.301068
45207	513832 10093 1406 10071 46.25 122 304 167.34136962891 486.85000610352 126555.18386841 54969673.259548
45225	523925 9278 1698 10187 49.25 123 296 0.973 11.648172402475 699.87718954212 3121.5674950252
45224	533203 9649 1698 10187 49.25 123 296 -4.5 2.5 41.396924972534 461.93917381423
45223	542852 9635 1671 10187 49 123 297 0 16.06526184082 2320.8871045355 30860.477298227
45222	552487 9933 1644 10187 48.75 123 298 483.14999389648 483.14999389648 143978.69818115 69563307.147447
45221	562420 9905 1644 10187 48.75 123 298 160.166015625 734.91986083984 130089.62825012 61424895.548336
vector 45361  IntersectionExampleScenario.node[32].veinsmobility  posx  ETV
vector 45362  IntersectionExampleScenario.node[32].veinsmobility  posy  ETV
vector 45363  IntersectionExampleScenario.node[32].veinsmobility  speed  ETV
vector 45364  IntersectionExampleScenario.node[32].veinsmobility  acceleration  ETV
vector 45365  IntersectionExampleScenario.node[32].veinsmobility  co2emission  ETV
45246	572726 7215 3604 10512 67.25 125.75 235 0.973 11.648172402475 607.89356949231 3028.8394862454
45245	579941 7537 3604 10512 67.25 125.75 235 -3.8139474391937 2.5000019073486 38.341367721558 344.95874396926
45244	587478 7666 3573 10512 67 125.75 236 0 15.64999961853 2224.1963401288 29215.902327353
45243	595144 7944 3542 10512 66.75 125.75 237 483.14999389648 483.14999389648 114506.54855347 55323838.234715
45242	603088 7906 3542 10512 66.75 125.75 237 184.17810058594 734.5329284668 105036.03594971 50754087.632874
45253	610994 7149 3993 10822 70.5 128.25 232 0.973 11.648172402475 616.7162864618 3194.0552007102
45252	618143 7310 3993 10822 70.5 128.25 232 -4.0090484619141 2.5 37.662351608276 420.45928788914
45251	625453 7393 3963 10822 70.25 128.25 233 0 15.64999961853 2253.4533500373 29272.175248193
45250	632846 7853 3932 10822 70 128.25 234 483.14999389648 733.22064208984 121555.66499329 64252317.418431
45249	640699 7818 3932 10822 70 128.25 234 172.9296875 486.87957763672 94357.497711182 40065695.787247
45281	648517 5904 5160 10915 81 129 193 0.973 11.648172402475 561.9387251678 3090.8903902342
45280	654421 6020 5160 10915 81 129 193 -3.0187835693359 2.5 39.020376205444 305.34462605411
45279	660441 6316 5129 10915 80.75 129 194 3.1154873371124 15.64999961853 2211.259282589 28858.658083441
45278	666757 6582 5098 10915 80.5 129 195 483.14999389648 483.14999389648 94214.248809814 45519613.737424
45277	673339 6543 5098 10915 80.5 129 195 184.17810058594 731.74975585938 85772.595306396 41876031.050373
vector 45368  IntersectionExampleScenario.node[33].veinsmobility  posx  ETV
vector 45369  IntersectionExampleScenario.node[33].veinsmobility  posy  ETV
vector 45370  IntersectionExampleScenario.node[33].veinsmobility  speed  ETV
45232	680114 8297 2677 11286 58.75 132 294 0.973 11.90022389248 669.0191757426 3194.3599222863
45231	688411 7769 2677 11286 58.75 132 294 -7.8963894844055 4 39.699392318726 492.30215739898
45230	696180 7824 2650 11286 58.5 132 295 0 16 2216.8701816797 31984.734682807
45229	704004 9923 2623 11286 58.25 132 296 235.46020507812 785.82187652588 151112.22846222 81289513.17884
45228	713927 9940 2623 11286 58.25 132 296 483.14999389648 483.14999389648 143012.39819336 69096439.314243
vector 45375  IntersectionExampleScenario.node[34].veinsmobility  posx  ETV
vector 45376  IntersectionExampleScenario.node[34].veinsmobility  posy  ETV
vector 45371  IntersectionExampleScenario.node[33].veinsmobility  acceleration  ETV
vector 45372  IntersectionExampleScenario.node[33].veinsmobility  co2emission  ETV
vector 45377  IntersectionExampleScenario.node[34].veinsmobility  speed  ETV
vector 45378  IntersectionExampleScenario.node[34].veinsmobility  acceleration  ETV
vector 45379  IntersectionExampleScenario.node[34].veinsmobility  co2emission  ETV
vector 45382  IntersectionExampleScenario.node[35].veinsmobility  posx  ETV
vector 45383  IntersectionExampleScenario.node[35].veinsmobility  posy  ETV
vector 45384  IntersectionExampleScenario.node[35].veinsmobility  speed  ETV
vector 45385  IntersectionExampleScenario.node[35].veinsmobility  acceleration  ETV
vector 45386  IntersectionExampleScenario.node[35].veinsmobility  co2emission  ETV
vector 45389  IntersectionExampleScenario.node[36].veinsmobility  posx  ETV
vector 45390  IntersectionExampleScenario.node[36].veinsmobility  posy  ETV
vector 45396  IntersectionExampleScenario.node[37].veinsmobility  posx  ETV
vector 45397  IntersectionExampleScenario.node[37].veinsmobility  posy  ETV
vector 45391  IntersectionExampleScenario.node[36].veinsmobility  speed  ETV
vector 45392  IntersectionExampleScenario.node[36].veinsmobility  acceleration  ETV
vector 45393  IntersectionExampleScenario.node[36].veinsmobility  co2emission  ETV
vector 45398  IntersectionExampleScenario.node[37].veinsmobility  speed  ETV
vector 45403  IntersectionExampleScenario.node[38].veinsmobility  posx  ETV
vector 45404  IntersectionExampleScenario.node[38].veinsmobility  posy  ETV
vector 45399  IntersectionExampleScenario.node[37].veinsmobility  acceleration  ETV
vector 45400  IntersectionExampleScenario.node[37].veinsmobility  co2emission  ETV
vector 45405  IntersectionExampleScenario.node[38].veinsmobility  speed  ETV
vector 45406  IntersectionExampleScenario.node[38].veinsmobility  acceleration  ETV
vector 45407  IntersectionExampleScenario.node[38].veinsmobility  co2emission  ETV
vector 45410  IntersectionExampleScenario.node[39].veinsmobility  posx  ETV
vector 45411  IntersectionExampleScenario.node[39].veinsmobility  posy  ETV
vector 45412  IntersectionExampleScenario.node[39].veinsmobility  speed  ETV
vector 45413  IntersectionExampleScenario.node[39].veinsmobility  acceleration  ETV
vector 45414  IntersectionExampleScenario.node[39].veinsmobility  co2emission  ETV
vector 45417  IntersectionExampleScenario.node[40].veinsmobility  posx  ETV
vector 45418  IntersectionExampleScenario.node[40].veinsmobility  posy  ETV
vector 45419  IntersectionExampleScenario.node[40].veinsmobility  speed  ETV
vector 45420  IntersectionExampleScenario.node[40].veinsmobility  acceleration  ETV
vector 45421  IntersectionExampleScenario.node[40].veinsmobility  co2emission  ETV
45260	726843 8684 4255 13320 72.75 148.25 303 0.973 11.810082123732 671.62199323427 3122.0663240052
45259	735527 7938 4255 13320 72.75 148.25 303 -7.7750473022461 4 38.511121749878 481.76489070548
45258	743465 8087 4226 13320 72.5 148.25 304 0 15.875 2181.7101407051 30752.64095389
45257	751552 10295 4196 13320 72.25 148.25 305 486.85000610352 734.25172424316 156717.4455719 81657372.814097
45256	761847 10357 4196 13320 72.25 148.25 305 486.63604736328 785.82187652588 163986.62824249 90324268.81999
45267	772204 8735 4926 13519 79 149.75 284 0.973 11.648172402475 640.4734196719 2959.2085975115
45266	780939 9134 4926 13519 79 149.75 284 -3.9298434257507 2.5 37.662351608276 347.03263973181
45265	790073 8995 4899 13519 78.75 149.75 285 0 15.64999961853 2207.0830209209 29375.964873301
45264	799068 9741 4872 13519 78.5 149.75 286 236.79071044922 486.85000610352 130741.99710083 60931346.998079
45263	808809 9727 4872 13519 78.5 149.75 286 483.13436889648 785.82187652588 155611.15598297 86741850.027133
45288	818536 8809 5350 13774 82.5 151.75 278 0.973 11.810082123732 663.68870322047 3169.3185499704
45287	827345 9215 5350 13774 82.5 151.75 278 -4.5 2.5 40.038900375366 412.3986877855
45286	836560 9175 5317 13774 82.25 151.75 279 0 15.875 2219.8919789009 29438.886678893
45285	845735 9564 5284 13774 82 151.75 280 486.85000610352 732.19120788574 144242.98783875 75372859.933027
45284	855299 9545 5284 13774 82 151.75 280 486.7314453125 795.46562957764 154593.38324738 87468598.626557
45295	864844 8000 6185 13957 89.25 153.25 257 0.973 12.099024792222 643.11321503001 3277.0979536392
45294	872844 8413 6185 13957 89.25 153.25 257 -3.8305034637451 2.5 42.754949569702 367.80469059124
45293	881257 8517 6154 13957 89 153.25 258 0 16.384473800659 2176.0293505322 28954.021027807
45292	889774 8886 6123 13957 88.75 153.25 259 486.85000610352 731.07461547852 133650.3061676 69968254.54982
45291	898660 8871 6123 13957 88.75 153.25 259 486.85000610352 785.82187652588 143883.49633026 81774344.879925
45309	907531 7728 6965 14329 95.5 156.5 245 0.973 11.450879080643 593.42541381135 2900.3196915725
45308	915259 8112 6965 14329 95.5 156.5 245 -4.5 2.5000019073486 36.98334312439 365.47066118893
45307	923371 8181 6932 14329 95.25 156.5 246 0 15.375 2205.7319243476 28163.70628259
45306	931552 8505 6899 14329 95 156.5 247 237.77380371094 486.85000610352 111727.50653076 51659817.359771
45305	940057 8497 6899 14329 95 156.5 247 483.14999389648 785.82187652588 137895.7689743 78894421.946838
45323	948554 6923 8012 14464 103.25 157.75 219 0.973 11.648172402475 576.24044809604 2987.318980074
45322	955477 7197 8012 14464 103.25 157.75 219 -3.9705474376678 2.5000019073486 38.511121749878 344.59265623252
45321	962674 7380 7979 14464 103 157.75 220 0 15.64999961853 2222.1788676418 29563.494909587
45320	970054 7661 7946 14464 102.75 157.75 221 486.85000610352 486.85000610352 107593.85134888 52382067.185901
45319	977715 7619 7946 14464 102.75 157.75 221 235.85919189453 785.82187652588 116297.76209259 65380141.135048
vector 45424  IntersectionExampleScenario.node[41].veinsmobility  posx  ETV
vector 45425  IntersectionExampleScenario.node[41].veinsmobility  posy  ETV
vector 45426  IntersectionExampleScenario.node[41].veinsmobility  speed  ETV
vector 45427  IntersectionExampleScenario.node[41].veinsmobility  acceleration  ETV
vector 45428  IntersectionExampleScenario.node[41].veinsmobility  co2emission  ETV
vector 45431  IntersectionExampleScenario.node[42].veinsmobility  posx  ETV
vector 45432  IntersectionExampleScenario.node[42].veinsmobility  posy  ETV
vector 45433  IntersectionExampleScenario.node[42].veinsmobility  speed  ETV
vector 45434  IntersectionExampleScenario.node[42].veinsmobility  acceleration  ETV
vector 45435  IntersectionExampleScenario.node[42].veinsmobility  co2emission  ETV
45274	986136 9581 5011 15150 79.75 163.75 337 0.96333723109819 12.099024792222 718.96263351543 3241.1159878021
45273	995717 8641 5011 15150 79.75 163.75 337 -6.7176465988159 4 40.208654403687 475.74722496842
45272	1004358 8869 4982 15150 79.5 163.75 338 0 16.27499961853 2194.0566363335 31736.96897156
45271	1013227 11584 4953 15150 79.25 163.75 339 184.17810058594 486.85000610352 148339.55355835 67111215.391618
45270	1024811 11605 4953 15150 79.25 163.75 339 239.06640625 486.85000610352 157013.08676147 73857027.225576
vector 45438  IntersectionExampleScenario.node[43].veinsmobility  posx  ETV
vector 45439  IntersectionExampleScenario.node[43].veinsmobility  posy  ETV
vector 45440  IntersectionExampleScenario.node[43].veinsmobility  speed  ETV
45316	1036648 8875 7068 15472 96.25 166.5 282 0.973 11.90022389248 653.38370722402 3106.8125814504
45315	1045523 9499 7068 15472 96.25 166.5 282 -3.7779841423035 2.5000009536743 39.529638290405 344.24706718854
45314	1055022 9321 7033 15472 96 166.5 283 0 16 2201.8783083223 29587.752608151
45313	1064343 9785 6998 15472 95.75 166.5 284 184.17810058594 487.04159545898 120824.61209106 53450932.283573
45312	1074128 9815 6998 15472 95.75 166.5 284 238.09057617188 486.85000610352 130097.23132324 60714906.105822
vector 45441  IntersectionExampleScenario.node[43].veinsmobility  acceleration  ETV
vector 45442  IntersectionExampleScenario.node[43].veinsmobility  co2emission  ETV
vector 45445  IntersectionExampleScenario.node[44].veinsmobility  posx  ETV
vector 45446  IntersectionExampleScenario.node[44].veinsmobility  posy  ETV
vector 45447  IntersectionExampleScenario.node[44].veinsmobility  speed  ETV
vector 45448  IntersectionExampleScenario.node[44].veinsmobility  acceleration  ETV
vector 45449  IntersectionExampleScenario.node[44].veinsmobility  co2emission  ETV
45351	1084513 6674 9471 15796 116.75 169 210 0.973 11.648172402475 567.26037796743 2873.7791959193
45350	1091187 6895 9471 15796 116.75 169 210 -3.8783175945282 2.5000009536743 38.511121749878 339.54765676941
45349	1098082 7087 9444 15796 116.5 169 211 0 15.64999961853 2204.1618365161 29090.631795439
45348	1105169 7369 9416 15796 116.25 169 212 184.17810058594 486.87622070312 86927.682434082 37521982.074426
45347	1112538 7357 9416 15796 116.25 169 212 237.84515380859 486.85000610352 94892.250549316 43527783.915504
45379	1119895 5276 11383 16159 132.75 171.75 157 0.973 11.687459382002 525.35000813814 3100.3137775603
45378	1125171 5003 11383 16159 132.75 171.75 157 -4.0154571533203 2.5 39.869146347046 274.95279134807
45377	1130174 5245 11350 16159 132.5 171.75 158 5.6500000953674 15.704651832581 2204.4221935272 31754.286043336
45376	1135419 5547 11317 16159 132.25 171.75 159 184.17810058594 487.02993774414 63262.364105225 26926515.422844
45375	1140966 5551 11317 16159 132.25 171.75 159 237.30261230469 486.85000610352 69225.075073242 31077586.855715
vector 45452  IntersectionExampleScenario.node[45].veinsmobility  posx  ETV
vector 45453  IntersectionExampleScenario.node[45].veinsmobility  posy  ETV
vector 45454  IntersectionExampleScenario.node[45].veinsmobility  speed  ETV
vector 45459  IntersectionExampleScenario.node[46].veinsmobility  posx  ETV
vector 45460  IntersectionExampleScenario.node[46].veinsmobility  posy  ETV
vector 45455  IntersectionExampleScenario.node[45].veinsmobility  acceleration  ETV
vector 45456  IntersectionExampleScenario.node[45].veinsmobility  co2emission  ETV
vector 45461  IntersectionExampleScenario.node[46].veinsmobility  speed  ETV
vector 45462  IntersectionExampleScenario.node[46].veinsmobility  acceleration  ETV
vector 45463  IntersectionExampleScenario.node[46].veinsmobility  co2emission  ETV
45302	1147319 10088 6372 17394 90.75 180.25 359 0.973 11.450879080643 755.87139718469 3583.6805660633
45301	1157407 9308 6372 17394 90.75 180.25 359 -21.288631439209 4 36.98334312439 929.48192204364
45300	1166715 9538 6341 17394 90.5 180.25 360 0 15.375 2184.2055597305 29047.60214721
45299	1176253 12463 6309 17394 90.25 180.25 361 483.14999389648 733.20059204102 182997.23609924 93992400.729794
45298	1188716 12443 6309 17394 90.25 180.25 361 184.17810058594 486.85000610352 157597.41351318 71098557.30263
vector 45466  IntersectionExampleScenario.node[47].veinsmobility  posx  ETV
vector 45467  IntersectionExampleScenario.node[47].veinsmobility  posy  ETV
vector 45468  IntersectionExampleScenario.node[47].veinsmobility  speed  ETV
vector 45469  IntersectionExampleScenario.node[47].veinsmobility  acceleration  ETV
vector 45470  IntersectionExampleScenario.node[47].veinsmobility  co2emission  ETV
vector 45473  IntersectionExampleScenario.node[48].veinsmobility  posx  ETV
vector 45474  IntersectionExampleScenario.node[48].veinsmobility  posy  ETV
vector 45475  IntersectionExampleScenario.node[48].veinsmobility  speed  ETV
vector 45476  IntersectionExampleScenario.node[48].veinsmobility  acceleration  ETV
vector 45477  IntersectionExampleScenario.node[48].veinsmobility  co2emission  ETV
vector 45480  IntersectionExampleScenario.node[49].veinsmobility  posx  ETV
vector 45481  IntersectionExampleScenario.node[49].veinsmobility  posy  ETV
vector 45482  IntersectionExampleScenario.node[49].veinsmobility  speed  ETV
vector 45483  IntersectionExampleScenario.node[49].veinsmobility  acceleration  ETV
vector 45484  IntersectionExampleScenario.node[49].veinsmobility  co2emission  ETV
vector 45487  IntersectionExampleScenario.node[50].veinsmobility  posx  ETV
vector 45488  IntersectionExampleScenario.node[50].veinsmobility  posy  ETV
vector 45489  IntersectionExampleScenario.node[50].veinsmobility  speed  ETV
vector 45490  IntersectionExampleScenario.node[50].veinsmobility  acceleration  ETV
vector 45491  IntersectionExampleScenario.node[50].veinsmobility  co2emission  ETV
45330	1202763 9833 8851 19403 110.5 195 339 0.973 12.553400930962 757.92871115467 3722.5537904118
45329	1212596 8468 8851 19403 110.5 195 339 -36.061485290527 4 43.773473739624 1706.9952756414
45328	1221064 8941 8824 19403 110.25 195 340 0 16.89999961853 2205.9272022247 34146.576189033
45327	1230005 11868 8797 19403 110 195 341 238.69909667969 785.82187652588 173723.79529572 92422787.564813
45326	1241873 11887 8797 19403 110 195 341 483.14999389648 483.14999389648 164754.1479187 79600965.561341
45337	1253760 10067 9444 19755 116.5 197.75 326 0.97223939240464 11.810082123732 689.60063921993 3116.7655540426
45336	1263827 10363 9444 19755 116.5 197.75 326 -3.9249155521393 2.5 38.680875778198 351.98344857839
45335	1274190 10162 9416 19755 116.25 197.75 327 0 15.875 2190.82206902 29098.495407949
45334	1284352 11433 9391 19755 116 197.75 328 486.85000610352 785.82187652588 177109.69339752 97724558.899334
45333	1295785 11436 9391 19755 116 197.75 328 235.25109863281 483.14999389648 150235.05221558 69963913.665516
vector 45494  IntersectionExampleScenario.node[51].veinsmobility  posx  ETV
vector 45495  IntersectionExampleScenario.node[51].veinsmobility  posy  ETV
vector 45496  IntersectionExampleScenario.node[51].veinsmobility  speed  ETV
vector 45497  IntersectionExampleScenario.node[51].veinsmobility  acceleration  ETV
vector 45498  IntersectionExampleScenario.node[51].veinsmobility  co2emission  ETV
45344	1307622 10683 9471 20027 116.75 200 334 0.973 11.54047740176 705.23816033718 2938.607870648
45343	1318305 11273 9471 20027 116.75 200 334 -4.5 2.5 36.98334312439 404.72134795058
45342	1329578 11201 9444 20027 116.5 200 335 0 15.5 2313.9785508839 29659.949526913
45341	1340779 11706 9416 20027 116.25 200 336 236.50537109375 810.23281097412 177007.45244598 98192155.874235
45340	1352485 11739 9416 20027 116.25 200 336 483.14999389648 483.14999389648 162338.39794922 78433795.97833
vector 45501  IntersectionExampleScenario.node[52].veinsmobility  posx  ETV
vector 45502  IntersectionExampleScenario.node[52].veinsmobility  posy  ETV
vector 45503  IntersectionExampleScenario.node[52].veinsmobility  speed  ETV
vector 45504  IntersectionExampleScenario.node[52].veinsmobility  acceleration  ETV
vector 45505  IntersectionExampleScenario.node[52].veinsmobility  co2emission  ETV
45358	1364625 10993 9664 20311 118.5 202.25 336 0.973 11.450879080643 725.26948427017 2934.6900502261
45357	1375618 11333 9664 20311 118.5 202.25 336 -4.5 2.5 38.680875778198 444.43820396588
45356	1386951 11478 9635 20311 118.25 202.25 337 0 15.375 2333.0025649462 29787.445368655
45355	1398429 11763 9606 20311 118 202.25 338 483.14083862305 817.26328277588 188181.55155182 107402225.38456
45354	1410192 11812 9606 20311 118 202.25 338 483.14999389648 733.05908203125 171664.29997253 88369903.498772
vector 45508  IntersectionExampleScenario.node[53].veinsmobility  posx  ETV
vector 45509  IntersectionExampleScenario.node[53].veinsmobility  posy  ETV
vector 45510  IntersectionExampleScenario.node[53].veinsmobility  speed  ETV
vector 45511  IntersectionExampleScenario.node[53].veinsmobility  acceleration  ETV
vector 45512  IntersectionExampleScenario.node[53].veinsmobility  co2emission  ETV
45421	1422405 7222 13285 20581 148 204.5 227 0.973 11.810082123732 608.91588421112 3176.2953738608
45420	1429627 7561 13285 20581 148 204.5 227 -3.7916932106018 2.5 39.869146347046 375.82633028147
45419	1437188 7643 13250 20581 147.75 204.5 228 0 15.875 2178.3625385351 28465.187448895
45418	1444831 7998 13215 20581 147.5 204.5 229 486.85000610352 785.82187652588 128480.36226654 73898378.838599
45417	1452829 8005 13215 20581 147.5 204.5 229 238.59313964844 483.14999389648 102749.13348389 47111020.418435
vector 45515  IntersectionExampleScenario.node[54].veinsmobility  posx  ETV
vector 45516  IntersectionExampleScenario.node[54].veinsmobility  posy  ETV
vector 45517  IntersectionExampleScenario.node[54].veinsmobility  speed  ETV
vector 45518  IntersectionExampleScenario.node[54].veinsmobility  acceleration  ETV
vector 45519  IntersectionExampleScenario.node[54].veinsmobility  co2emission  ETV
vector 45522  IntersectionExampleScenario.node[55].veinsmobility  posx  ETV
vector 45523  IntersectionExampleScenario.node[55].veinsmobility  posy  ETV
vector 45524  IntersectionExampleScenario.node[55].veinsmobility  speed  ETV
vector 45525  IntersectionExampleScenario.node[55].veinsmobility  acceleration  ETV
vector 45526  IntersectionExampleScenario.node[55].veinsmobility  co2emission  ETV
45442	1461636 5526 15503 21058 166.75 208.25 167 0.973 11.385833858408 532.56138838436 3103.4522257984
45441	1467162 5376 15503 21058 166.75 208.25 167 -3.5184135437012 2.5 36.98334312439 306.05525482213
45440	1472538 5553 15472 21058 166.5 208.25 168 5.6500000953674 15.28413772583 2185.9976081848 29698.411330941
45439	1478091 5908 15441 21058 166.25 208.25 169 486.85000610352 785.82187652588 96614.305198669 57004709.534135
45438	1483999 5867 15441 21058 166.25 208.25 169 236.39587402344 483.14999389648 73258.020446777 32715923.847695
vector 45529  IntersectionExampleScenario.node[56].veinsmobility  posx  ETV
vector 45530  IntersectionExampleScenario.node[56].veinsmobility  posy  ETV
vector 45531  IntersectionExampleScenario.node[56].veinsmobility  speed  ETV
vector 45532  IntersectionExampleScenario.node[56].veinsmobility  acceleration  ETV
vector 45533  IntersectionExampleScenario.node[56].veinsmobility  co2emission  ETV
vector 45536  IntersectionExampleScenario.node[57].veinsmobility  posx  ETV
vector 45537  IntersectionExampleScenario.node[57].veinsmobility  posy  ETV
vector 45538  IntersectionExampleScenario.node[57].veinsmobility  speed  ETV
vector 45539  IntersectionExampleScenario.node[57].veinsmobility  acceleration  ETV
vector 45540  IntersectionExampleScenario.node[57].veinsmobility  co2emission  ETV
45365	1490668 10195 10481 21558 125.5 212.25 348 0.973 11.648172402475 723.86674456856 3122.0542347987
45364	1500863 8971 10481 21558 125.5 212.25 348 -29.233673095703 4 38.850629806519 1248.0335054042
45363	1509834 9310 10450 21558 125.25 212.25 349 0 15.64999961853 2207.8241539001 31856.621142907
45362	1519144 12245 10419 21558 125 212.25 350 235.67944335938 486.85000610352 161980.54138184 76170667.891413
45361	1531389 12241 10419 21558 125 212.25 350 483.14999389648 785.82187652588 186067.81482697 101155793.80554
vector 45543  IntersectionExampleScenario.node[58].veinsmobility  posx  ETV
vector 45544  IntersectionExampleScenario.node[58].veinsmobility  posy  ETV
vector 45545  IntersectionExampleScenario.node[58].veinsmobility  speed  ETV
vector 45546  IntersectionExampleScenario.node[58].veinsmobility  acceleration  ETV
vector 45547  IntersectionExampleScenario.node[58].veinsmobility  co2emission  ETV
45372	1544031 10264 11317 21867 132.25 214.75 331 0.973 11.200708441096 681.61491174959 2855.2311785732
45371	1554295 10674 11317 21867 132.25 214.75 331 -3.7415137290955 2.5 37.15309715271 321.17601052288
45370	1564969 10526 11286 21867 132 214.75 332 0 15.336747169495 2197.8460831437 28727.535954923
45369	1575495 11654 11255 21867 131.75 214.75 333 238.27770996094 486.85000610352 153659.13339233 72092187.849259
45368	1587149 11636 11255 21867 131.75 214.75 333 482.99536132812 785.82187652588 179562.22624969 98969403.779651
45386	1598785 10295 11792 22075 136 216.5 323 0.973 11.450879080643 711.33935579745 3050.9748013008
45385	1609080 10844 11792 22075 136 216.5 323 -4.5 2.5 40.887662887573 391.82054885069
45384	1619924 10719 11761 22075 135.75 216.5 324 0 15.904521942139 2236.765886764 29775.442241528
45383	1630643 11373 11729 22075 135.5 216.5 325 237.67700195312 486.85000610352 150179.38259888 70530320.346578
45382	1642016 11351 11729 22075 135.5 216.5 325 483.14999389648 793.78281402588 177500.49336243 99113348.442953
vector 45550  IntersectionExampleScenario.node[59].veinsmobility  posx  ETV
vector 45551  IntersectionExampleScenario.node[59].veinsmobility  posy  ETV
vector 45557  IntersectionExampleScenario.node[60].veinsmobility  posx  ETV
vector 45558  IntersectionExampleScenario.node[60].veinsmobility  posy  ETV
vector 45552  IntersectionExampleScenario.node[59].veinsmobility  speed  ETV
vector 45553  IntersectionExampleScenario.node[59].veinsmobility  acceleration  ETV
vector 45554  IntersectionExampleScenario.node[59].veinsmobility  co2emission  ETV
vector 45559  IntersectionExampleScenario.node[60].veinsmobility  speed  ETV
vector 45560  IntersectionExampleScenario.node[60].veinsmobility  acceleration  ETV
vector 45561  IntersectionExampleScenario.node[60].veinsmobility  co2emission  ETV
45400	1654169 9951 12388 22291 141 218.25 310 0.973 12.099024792222 708.87445857612 3319.0705959404
45399	1664120 10696 12388 22291 141 218.25 310 -3.9054298400879 2.5 42.754949569702 385.13282161819
45398	1674816 10572 12357 22291 140.75 218.25 311 0 16.405408859253 2210.0703632412 29743.644836647
45397	1685388 10914 12326 22291 140.5 218.25 312 236.61486816406 486.85000610352 143988.1026001 67563514.27654
45396	1696302 10896 12326 22291 140.5 218.25 312 483.14999389648 785.82187652588 171230.52762604 95898903.720433
vector 45564  IntersectionExampleScenario.node[61].veinsmobility  posx  ETV
vector 45565  IntersectionExampleScenario.node[61].veinsmobility  posy  ETV
45407	1707352 10514 12454 22592 141.5 220.75 318 0.973 11.950412589745 724.44868800268 3322.2405822001
45406	1717866 10842 12454 22592 141.5 220.75 318 -4.0000648498535 2.5000009536743 40.887662887573 422.89224208279
45405	1728708 10847 12421 22592 141.25 220.75 319 0 16.069534301758 2301.0676365308 30247.289487264
45404	1739555 11189 12388 22592 141 220.75 320 237.314453125 486.85000610352 147730.25610352 69336043.612325
45403	1750744 11184 12388 22592 141 220.75 320 483.14999389648 809.56562805176 178514.39085388 101981430.66063
vector 45566  IntersectionExampleScenario.node[61].veinsmobility  speed  ETV
vector 45567  IntersectionExampleScenario.node[61].veinsmobility  acceleration  ETV
vector 45568  IntersectionExampleScenario.node[61].veinsmobility  co2emission  ETV
vector 45571  IntersectionExampleScenario.node[62].veinsmobility  posx  ETV
vector 45572  IntersectionExampleScenario.node[62].veinsmobility  posy  ETV
vector 45573  IntersectionExampleScenario.node[62].veinsmobility  speed  ETV
vector 45574  IntersectionExampleScenario.node[62].veinsmobility  acceleration  ETV
vector 45575  IntersectionExampleScenario.node[62].veinsmobility  co2emission  ETV
45463	1762576 6394 16468 23043 174 224.5 203 0.973 11.990504229548 580.1465614685 3025.3236287164
45462	1768970 6770 16468 23043 174 224.5 203 -5.9004783630371 2.5 40.038900375366 348.47384153613
45461	1775740 6893 16431 23043 173.75 224.5 204 1.8352420330048 16.125 2222.9924807549 29612.839318843
45460	1782633 7175 16394 23043 173.5 224.5 205 486.85000610352 486.85000610352 99804.251251221 48589700.330813
45459	1789808 7164 16394 23043 173.5 224.5 205 235.65881347656 785.82187652588 108484.64385223 61565838.591845
45449	1796972 7394 15631 23101 167.75 225 230 0.973 10.756497587458 549.64175682578 2379.0148241784
45448	1804366 7671 15631 23101 167.75 225 230 -3.927309513092 2.5 33.248777389526 284.14133724226
45447	1812037 7816 15598 23101 167.5 225 231 0 14.39999961853 2207.9720663354 26771.380976498
45446	1819853 8104 15565 23101 167.25 225 232 236.94580078125 486.85000610352 103818.96435547 47621947.692572
45445	1827957 8098 15565 23101 167.25 225 232 483.14999389648 785.82187652588 130536.82003784 75368558.038041
vector 45578  IntersectionExampleScenario.node[63].veinsmobility  posx  ETV
vector 45579  IntersectionExampleScenario.node[63].veinsmobility  posy  ETV
vector 45580  IntersectionExampleScenario.node[63].veinsmobility  speed  ETV
vector 45581  IntersectionExampleScenario.node[63].veinsmobility  acceleration  ETV
vector 45582  IntersectionExampleScenario.node[63].veinsmobility  co2emission  ETV
45393	1836456 10306 12357 23512 140.75 228.5 352 0.973 11.36141391502 710.75326042801 2933.8000430282
45392	1846762 8933 12357 23512 140.75 228.5 352 -14.659893035889 4 37.32285118103 642.98441086756
45391	1855695 9434 12326 23512 140.5 228.5 353 0 15.25 2181.0222072601 30446.683854485
45390	1865129 12360 12297 23512 140.25 228.5 354 184.17810058594 483.36395263672 154847.46759033 69974744.318335
45389	1877489 12327 12297 23512 140.25 228.5 354 486.85000610352 733.68673706055 180695.72645569 93408042.326967
vector 45585  IntersectionExampleScenario.node[64].veinsmobility  posx  ETV
vector 45586  IntersectionExampleScenario.node[64].veinsmobility  posy  ETV
vector 45587  IntersectionExampleScenario.node[64].veinsmobility  speed  ETV
vector 45588  IntersectionExampleScenario.node[64].veinsmobility  acceleration  ETV
vector 45589  IntersectionExampleScenario.node[64].veinsmobility  co2emission  ETV
45414	1890217 10287 13050 23632 146.25 229.5 334 0.973 11.450879080643 701.14488473284 2963.1853515888
45413	1900504 10101 13050 23632 146.25 229.5 334 -3.8841774463654 2.5 38.850629806519 363.9574534296
45412	1910605 10202 13017 23632 146 229.5 335 0 15.389642715454 2207.3601054456 30105.414578672
45411	1920807 11709 12984 23632 145.75 229.5 336 184.17810058594 486.86557006836 145283.04086304 64953337.014587
45410	1932516 11753 12984 23632 145.75 229.5 336 236.86572265625 486.85000610352 155240.52218628 72906835.091249
45428	1944269 9039 14792 23836 160.75 231.25 283 0.973 11.648172402475 649.73696518511 3008.7700214132
45427	1953308 9404 14792 23836 160.75 231.25 283 -3.8354232311249 2.5 38.850629806519 338.85981984877
45426	1962712 9537 14763 23836 160.5 231.25 284 0 15.64999961853 2222.071488996 29695.411301936
45425	1972249 9911 14734 23836 160.25 231.25 285 184.17810058594 734.52220153809 128534.54527283 62135401.470874
45424	1982160 9976 14734 23836 160.25 231.25 285 486.85000610352 486.85000610352 138752.2517395 67551534.606253
45435	1992136 9277 15057 24068 163 233.25 282 0.973 11.648172402475 668.87018712985 3076.2756070789
45434	2001413 9520 15057 24068 163 233.25 282 -4.5 2.5 39.699392318726 419.74522874705
45433	2010933 9668 15026 24068 162.75 233.25 283 0 15.64999961853 2284.4236882236 30814.34109247
45432	2020601 9889 14995 24068 162.5 233.25 284 167.29217529297 733.09495544434 125611.20837402 60030702.2485
45431	2030490 9940 14995 24068 162.5 233.25 284 486.85000610352 486.85000610352 138265.4017334 67314511.67781
45456	2040430 7860 16394 24293 173.5 235.25 248 0.973 12.099024792222 620.8681899642 3181.8110492841
45455	2048290 8261 16394 24293 173.5 235.25 248 -3.8316738605499 2.5 40.038900375366 344.07860774734
45454	2056551 8458 16359 24293 173.25 235.25 249 0 16.27499961853 2223.7959744763 29371.252004577
45453	2065009 8699 16324 24293 173 235.25 250 184.17810058594 734.66668701172 110856.66793823 53291929.654191
45452	2073708 8749 16324 24293 173 235.25 250 486.85000610352 486.85003662109 121712.5015564 59255732.140463
45470	2082457 7288 17538 24617 181.25 238.25 229 0.973 11.54047740176 566.57808269841 2758.2782891239
45469	2089745 7701 17538 24617 181.25 238.25 229 -3.9059479236603 2.5 36.98334312439 319.94121223849
45468	2097446 7780 17502 24617 181 238.25 230 0 15.5 2219.5768578071 28685.26016117
45467	2105226 8026 17465 24617 180.75 238.25 231 184.17810058594 733.54473876953 102440.88998413 49684550.083945
45466	2113252 8085 17465 24617 180.75 238.25 231 486.85000610352 486.85003662109 112462.35147095 54752296.529761
vector 45592  IntersectionExampleScenario.node[65].veinsmobility  posx  ETV
vector 45593  IntersectionExampleScenario.node[65].veinsmobility  posy  ETV
vector 45594  IntersectionExampleScenario.node[65].veinsmobility  speed  ETV
vector 45595  IntersectionExampleScenario.node[65].veinsmobility  acceleration  ETV
vector 45596  IntersectionExampleScenario.node[65].veinsmobility  co2emission  ETV
45477	2121738 7237 17857 24756 183.5 239.5 225 0.973 11.237429531324 616.19759125714 3033.8658840427
45476	2128975 7145 17857 24756 183.5 239.5 225 -4.5 2.5 41.665517807007 405.40625296519
45475	2136120 7473 17820 24756 183.25 239.5 226 0 16.191379547119 2287.5091382861 31185.74476876
45474	2143593 7916 17783 24756 183 239.5 227 167.29217529297 733.6981048584 98919.081512451 47584897.851189
45473	2151509 7944 17783 24756 183 239.5 227 486.85000610352 486.85006713867 110514.95239258 53804205.737153
vector 45599  IntersectionExampleScenario.node[66].veinsmobility  posx  ETV
vector 45600  IntersectionExampleScenario.node[66].veinsmobility  posy  ETV
vector 45601  IntersectionExampleScenario.node[66].veinsmobility  speed  ETV
vector 45602  IntersectionExampleScenario.node[66].veinsmobility  acceleration  ETV
vector 45603  IntersectionExampleScenario.node[66].veinsmobility  co2emission  ETV
45484	2159854 7236 18248 25265 186.25 244 232 0.973 11.648172402475 596.58091547404 2945.0006067187
45483	2167090 6796 18248 25265 186.25 244 232 -6.7528100013733 4 37.832105636597 463.99844752791
45482	2173886 6951 18212 25265 186 244 233 0 15.64999961853 2178.88851583 30546.815738189
45481	2180837 8182 18175 25265 185.75 244 234 483.14999389648 732.12088012695 121454.71270752 64132577.70479
45480	2189019 8167 18175 25265 185.75 244 234 184.17810058594 486.85000610352 98539.88482666 43543230.633613
45498	2197186 6097 19996 25526 199.75 246.5 188 0.973 11.36141391502 536.99419024314 2768.5401006211
45497	2203283 6144 19996 25526 199.75 246.5 188 -3.1772975921631 2.5 36.98334312439 307.74322029851
45496	2209427 6307 19965 25526 199.5 246.5 189 2.5789747238159 15.25 2182.4567620754 28477.383361865
45495	2215734 6648 19934 25526 199.25 246.5 190 237.45007324219 483.14999389648 83482.416778564 37676038.467238
45494	2222382 6616 19934 25526 199.25 246.5 190 184.17810058594 483.14999389648 76699.475708008 32777058.397577
vector 45606  IntersectionExampleScenario.node[67].veinsmobility  posx  ETV
vector 45607  IntersectionExampleScenario.node[67].veinsmobility  posy  ETV
vector 45608  IntersectionExampleScenario.node[67].veinsmobility  speed  ETV
vector 45609  IntersectionExampleScenario.node[67].veinsmobility  acceleration  ETV
vector 45610  IntersectionExampleScenario.node[67].veinsmobility  co2emission  ETV
45540	2229399 5288 21464 25894 211.5 250.25 156 0.973 11.648172402475 518.76150897426 2994.0655382811
45539	2234687 4997 21464 25894 211.5 250.25 156 -3.6281051635742 2.5 39.359884262085 273.60844600018
45538	2239684 5202 21431 25894 211.25 250.25 157 5.6500000953674 15.64999961853 2204.6649875641 31940.039537214
45537	2244886 5522 21398 25894 211 250.25 158 483.14999389648 732.15225219727 84555.347091675 46185167.460265
45536	2250408 5495 21398 25894 211 250.25 158 184.17810058594 486.85000610352 62841.360137939 26755963.090773
vector 45613  IntersectionExampleScenario.node[68].veinsmobility  posx  ETV
vector 45614  IntersectionExampleScenario.node[68].veinsmobility  posy  ETV
vector 45615  IntersectionExampleScenario.node[68].veinsmobility  speed  ETV
vector 45616  IntersectionExampleScenario.node[68].veinsmobility  acceleration  ETV
vector 45617  IntersectionExampleScenario.node[68].veinsmobility  co2emission  ETV
45554	2256304 5261 22197 26381 217.5 255.75 154 0.973 11.90022389248 502.99216256233 2804.0387197768
45553	2261565 4762 22197 26381 217.5 255.75 154 -3.4182319641113 2.5 40.208654403687 249.57908918124
45552	2266327 5133 22164 26381 217.25 255.75 155 5.6500000953674 16 2212.2420549393 32623.337621199
45551	2271460 5437 22133 26381 217 255.75 156 483.14999389648 734.18981933594 83608.419219971 45751762.925008
45550	2276897 5430 22133 26381 217 255.75 156 184.17810058594 486.8766784668 62064.827331543 26444934.526859
45491	2282327 8121 19271 26779 194 260.5 267 0.973 11.648172402475 629.64919000484 2959.4309241741
45490	2290448 7519 19271 26779 194 260.5 267 -7.1126251220703 4 37.662351608276 464.01882058852
45489	2297967 7682 19238 26779 193.75 260.5 268 0 15.64999961853 2184.1380417347 30418.309471944
45488	2305649 9402 19205 26779 193.5 260.5 269 486.63604736328 785.82187652588 146127.29730988 81479616.071739
45487	2315051 9349 19205 26779 193.5 260.5 269 235.25659179688 483.14999389648 121589.54605103 56078998.800753
45505	2324400 7862 20124 26836 200.75 261.25 243 0.973 11.90022389248 615.52653115736 3083.9411128339
45504	2332262 8288 20124 26836 200.75 261.25 243 -3.710949420929 2.5000002384186 39.699392318726 359.42177853674
45503	2340550 8293 20091 26836 200.5 261.25 244 0 16 2204.9459577454 30177.570813435
45502	2348843 8557 20058 26836 200.25 261.25 245 483.13269042969 785.82187652588 134714.16083527 76057499.863648
45501	2357400 8571 20058 26836 200.25 261.25 245 483.14999389648 732.51422119141 126560.27839661 66463914.627396
vector 45620  IntersectionExampleScenario.node[69].veinsmobility  posx  ETV
vector 45621  IntersectionExampleScenario.node[69].veinsmobility  posy  ETV
vector 45627  IntersectionExampleScenario.node[70].veinsmobility  posx  ETV
vector 45628  IntersectionExampleScenario.node[70].veinsmobility  posy  ETV
vector 45622  IntersectionExampleScenario.node[69].veinsmobility  speed  ETV
vector 45623  IntersectionExampleScenario.node[69].veinsmobility  acceleration  ETV
vector 45624  IntersectionExampleScenario.node[69].veinsmobility  co2emission  ETV
vector 45629  IntersectionExampleScenario.node[70].veinsmobility  speed  ETV
45547	2366604 6534 21774 27070 214 264.75 204 0.973 11.450879080643 552.50152117375 2752.842967781
45546	2373138 6692 21774 27070 214 264.75 204 -4.5 2.5000009536743 36.98334312439 345.14269046293
45545	2379830 6909 21743 27070 213.75 264.75 205 0.70563864707947 15.375 2213.9314744473 28706.156021907
45544	2386739 7193 21712 27070 213.5 264.75 206 483.12347412109 785.82187652588 115758.22132111 66932610.350957
45543	2393932 7126 21712 27070 213.5 264.75 206 483.14999389648 734.78860473633 108222.86891174 57947403.532211
vector 45634  IntersectionExampleScenario.node[71].veinsmobility  posx  ETV
vector 45635  IntersectionExampleScenario.node[71].veinsmobility  posy  ETV
vector 45630  IntersectionExampleScenario.node[70].veinsmobility  acceleration  ETV
vector 45631  IntersectionExampleScenario.node[70].veinsmobility  co2emission  ETV
vector 45636  IntersectionExampleScenario.node[71].veinsmobility  speed  ETV
vector 45637  IntersectionExampleScenario.node[71].veinsmobility  acceleration  ETV
vector 45638  IntersectionExampleScenario.node[71].veinsmobility  co2emission  ETV
45561	2401628 6373 22229 27152 217.75 265.75 193 0.973 11.450879080643 594.54672201873 3025.5364201207
45560	2408001 6257 22229 27152 217.75 265.75 193 -4.5 2.5 42.694723129272 395.95946250282
45559	2414258 6498 22197 27152 217.5 265.75 194 2.6241688728333 16.410995483398 2235.6974318027 30489.904606053
45558	2420756 6813 22164 27152 217.25 265.75 195 483.14999389648 793.78281402588 110779.91436768 64853537.297733
45557	2427569 6815 22164 27152 217.25 265.75 195 483.14999389648 731.56161499023 102068.23275757 54403541.199962
45575	2434384 5770 22955 27366 223.75 268.5 180 0.973 11.90022389248 530.96186315264 2950.9622272472
45574	2440154 5884 22955 27366 223.75 268.5 180 -3.8386039733887 2.5 39.529638290405 295.88381502107
45573	2446038 6027 22924 27366 223.5 268.5 181 3.2969200611115 16 2207.9720683098 29562.96200676
45572	2452065 6366 22893 27366 223.25 268.5 182 483.14999389648 785.82187652588 103339.89969635 60478320.159903
45571	2458431 6363 22893 27366 223.25 268.5 182 483.14999389648 732.84582519531 96166.08581543 51809358.013698
vector 45641  IntersectionExampleScenario.node[72].veinsmobility  posx  ETV
vector 45642  IntersectionExampleScenario.node[72].veinsmobility  posy  ETV
vector 45648  IntersectionExampleScenario.node[73].veinsmobility  posx  ETV
vector 45649  IntersectionExampleScenario.node[73].veinsmobility  posy  ETV
vector 45643  IntersectionExampleScenario.node[72].veinsmobility  speed  ETV
vector 45650  IntersectionExampleScenario.node[73].veinsmobility  speed  ETV
vector 45644  IntersectionExampleScenario.node[72].veinsmobility  acceleration  ETV
vector 45645  IntersectionExampleScenario.node[72].veinsmobility  co2emission  ETV
vector 45651  IntersectionExampleScenario.node[73].veinsmobility  acceleration  ETV
vector 45652  IntersectionExampleScenario.node[73].veinsmobility  co2emission  ETV
45582	2465596 5732 23424 27561 227.75 270.75 173 0.973 11.648172402475 519.60435778658 2800.7070835123
45581	2471328 5685 23424 27561 227.75 270.75 173 -4.0899467468262 2.5 39.020376205444 249.4149533198
45580	2477013 5803 23393 27561 227.5 270.75 174 5.6500000953674 15.872592926025 2238.7216997147 30486.106993428
45579	2482816 6096 23362 27561 227.25 270.75 175 483.13101196289 792.02188110352 100047.93031311 59081306.037994
45578	2488912 6121 23362 27561 227.25 270.75 175 483.14999389648 734.47833251953 92953.940872192 50377450.776556
vector 45655  IntersectionExampleScenario.node[74].veinsmobility  posx  ETV
vector 45656  IntersectionExampleScenario.node[74].veinsmobility  posy  ETV
vector 45657  IntersectionExampleScenario.node[74].veinsmobility  speed  ETV
vector 45658  IntersectionExampleScenario.node[74].veinsmobility  acceleration  ETV
vector 45659  IntersectionExampleScenario.node[74].veinsmobility  co2emission  ETV
45519	2495434 8478 20735 28045 205.75 276 282 0.973 11.90022389248 661.79324356163 3158.173105711
45518	2503912 7687 20735 28045 205.75 276 282 -7.2641291618347 4 39.699392318726 485.24806203163
45517	2511599 7966 20704 28045 205.5 276 283 0 16 2204.2747706175 31714.977261645
45516	2519565 9940 20673 28045 205.25 276 284 236.35540771484 486.85000610352 130006.35314941 60650830.087316
45515	2529505 9934 20673 28045 205.25 276 284 483.14999389648 785.82187652588 153152.50791168 84726992.206015
45526	2539439 9152 20832 28203 206.5 277.75 286 0.973 11.097017271676 650.9603957851 2748.9426072845
45525	2548591 8727 20832 28203 206.5 277.75 286 -4.5 2.5 36.643835067749 417.29206899628
45524	2557318 9046 20799 28203 206.25 277.75 287 0 14.879508972168 2308.2918336224 31468.207777368
45523	2566364 10080 20766 28203 206 277.75 288 486.85000610352 486.85000610352 140212.80175781 68262603.391582
45522	2576444 10057 20766 28203 206 277.75 288 236.23254394531 808.82032012939 150332.22077179 83386283.360134
45568	2586501 7461 22654 28329 221.25 279.25 233 0.973 12.099024792222 609.1199875934 3194.5956784112
45567	2593962 7807 22654 28329 221.25 279.25 233 -3.8476645946503 2.5 40.378400802612 350.90070991263
45566	2601769 7906 22623 28329 221 279.25 234 0 16.27499961853 2214.9702720307 29889.555299638
45565	2609675 8217 22592 28329 220.75 279.25 235 235.25775146484 486.85000610352 106157.2663269 49047040.300506
45564	2617892 8205 22592 28329 220.75 279.25 235 483.13034057617 785.82187652588 130326.56034088 74183990.436317
45603	2626097 5580 25007 28634 241.75 283.25 167 0.973 11.36141391502 556.78307324159 3289.7775844442
45602	2631677 5289 25007 28634 241.75 283.25 167 -4.0923805236816 2.5 36.98334312439 361.59468343055
45601	2636966 5563 24978 28634 241.5 283.25 168 5.6500000953674 15.25 2188.067047596 29731.908674999
45600	2642529 5909 24949 28634 241.25 283.25 169 486.85000610352 733.80104064941 90686.556274414 49624965.184302
45599	2648438 5910 24949 28634 241.25 283.25 169 486.78131103516 785.82187652588 96653.751716614 57047082.217571
vector 45662  IntersectionExampleScenario.node[75].veinsmobility  posx  ETV
vector 45663  IntersectionExampleScenario.node[75].veinsmobility  posy  ETV
vector 45664  IntersectionExampleScenario.node[75].veinsmobility  speed  ETV
vector 45665  IntersectionExampleScenario.node[75].veinsmobility  acceleration  ETV
vector 45666  IntersectionExampleScenario.node[75].veinsmobility  co2emission  ETV
vector 45669  IntersectionExampleScenario.node[76].veinsmobility  posx  ETV
vector 45670  IntersectionExampleScenario.node[76].veinsmobility  posy  ETV
vector 45671  IntersectionExampleScenario.node[76].veinsmobility  speed  ETV
vector 45672  IntersectionExampleScenario.node[76].veinsmobility  acceleration  ETV
vector 45673  IntersectionExampleScenario.node[76].veinsmobility  co2emission  ETV
vector 45676  IntersectionExampleScenario.node[77].veinsmobility  posx  ETV
vector 45677  IntersectionExampleScenario.node[77].veinsmobility  posy  ETV
vector 45678  IntersectionExampleScenario.node[77].veinsmobility  speed  ETV
vector 45679  IntersectionExampleScenario.node[77].veinsmobility  acceleration  ETV
vector 45680  IntersectionExampleScenario.node[77].veinsmobility  co2emission  ETV
vector 45683  IntersectionExampleScenario.node[78].veinsmobility  posx  ETV
vector 45684  IntersectionExampleScenario.node[78].veinsmobility  posy  ETV
vector 45685  IntersectionExampleScenario.node[78].veinsmobility  speed  ETV
vector 45686  IntersectionExampleScenario.node[78].veinsmobility  acceleration  ETV
vector 45687  IntersectionExampleScenario.node[78].veinsmobility  co2emission  ETV
45512	2655952 10152 20581 29451 204.5 292.25 352 0.973 11.821710027883 744.92254923695 3584.5283932624
45511	2666104 9188 20581 29451 204.5 292.25 352 -23.018665313721 4 38.511121749878 966.30947757379
45510	2675292 9366 20550 29451 204.25 292.25 353 0 15.891135215759 2184.5512275696 31032.404605634
45509	2684658 12368 20519 29451 204 292.25 354 184.17810058594 483.36395263672 154973.7618103 70068833.205365
45508	2697026 12316 20519 29451 204 292.25 354 486.85000610352 734.25172424316 180573.09587097 93271496.307804
45533	2709342 10263 21212 29526 209.5 293 335 0.973 11.990504229548 716.14057037504 3218.183985253
45532	2719605 10078 21212 29526 209.5 293 335 -3.8718299865723 2.5 39.869146347046 405.97145666728
45531	2729683 10097 21181 29526 209.25 293 336 0 16.125 2219.5502543906 31249.45410411
45530	2739780 11634 21150 29526 209 293 337 184.17810058594 734.04472351074 153919.7119751 74412851.017063
45529	2751414 11793 21150 29526 209 293 337 486.85000610352 486.85000610352 164068.45205688 79876726.885289
45610	2763207 6007 25819 29736 249.5 295.25 184 0.973 11.648172402475 542.59657912635 2807.2844036268
45609	2769214 6149 25819 29736 249.5 295.25 184 -2.1422348022461 2.5 38.511121749878 285.01290493829
45608	2775363 6325 25794 29736 249.25 295.25 185 3.0032560825348 15.64999961853 2217.8112707138 29763.26758325
45607	2781688 6466 25769 29736 249 295.25 186 184.17810058594 733.42622375488 83164.827835083 41334128.455607
45606	2788154 6509 25769 29736 249 295.25 186 486.85000610352 486.85000610352 90554.101135254 44086264.690397
vector 45690  IntersectionExampleScenario.node[79].veinsmobility  posx  ETV
vector 45691  IntersectionExampleScenario.node[79].veinsmobility  posy  ETV
vector 45692  IntersectionExampleScenario.node[79].veinsmobility  speed  ETV
vector 45693  IntersectionExampleScenario.node[79].veinsmobility  acceleration  ETV
vector 45694  IntersectionExampleScenario.node[79].veinsmobility  co2emission  ETV
vector 45697  IntersectionExampleScenario.node[80].veinsmobility  posx  ETV
vector 45698  IntersectionExampleScenario.node[80].veinsmobility  posy  ETV
vector 45699  IntersectionExampleScenario.node[80].veinsmobility  speed  ETV
vector 45700  IntersectionExampleScenario.node[80].veinsmobility  acceleration  ETV
vector 45701  IntersectionExampleScenario.node[80].veinsmobility  co2emission  ETV
45589	2795465 9357 23632 30984 229.5 308.25 316 0.973 11.648172402475 682.13096353784 3024.9416460903
45588	2804822 8307 23632 30984 229.5 308.25 316 -7.0929417610168 4 38.341367721558 476.74127862336
45587	2813129 8690 23601 30984 229.25 308.25 317 0 15.64999961853 2177.7517205477 30631.668074955
45586	2821819 11064 23570 30984 229 308.25 318 236.95220947266 483.14999389648 145459.95037842 67664353.315556
45585	2832883 11103 23570 30984 229 308.25 318 184.17810058594 483.36395263672 137983.73519897 62048950.183017
vector 45704  IntersectionExampleScenario.node[81].veinsmobility  posx  ETV
vector 45705  IntersectionExampleScenario.node[81].veinsmobility  posy  ETV
vector 45706  IntersectionExampleScenario.node[81].veinsmobility  speed  ETV
vector 45707  IntersectionExampleScenario.node[81].veinsmobility  acceleration  ETV
vector 45708  IntersectionExampleScenario.node[81].veinsmobility  co2emission  ETV
45596	2844387 8849 24756 31081 239.5 309.25 280 0.973 12.099024792222 657.2569042476 3242.6062753303
45595	2853236 9261 24756 31081 239.5 309.25 280 -3.760924577713 2.5 40.038900375366 360.9566003452
45594	2862497 9188 24727 31081 239.25 309.25 281 0 16.27499961853 2209.1385203758 29922.057198287
45593	2871685 9848 24698 31081 239 309.25 282 483.14999389648 733.42584228516 144454.6940918 75125923.215289
45592	2881533 9837 24698 31081 239 309.25 282 184.17810058594 486.86560058594 119990.86050415 53091670.710831
vector 45711  IntersectionExampleScenario.node[82].veinsmobility  posx  ETV
vector 45712  IntersectionExampleScenario.node[82].veinsmobility  posy  ETV
vector 45713  IntersectionExampleScenario.node[82].veinsmobility  speed  ETV
vector 45714  IntersectionExampleScenario.node[82].veinsmobility  acceleration  ETV
vector 45715  IntersectionExampleScenario.node[82].veinsmobility  co2emission  ETV
vector 45718  IntersectionExampleScenario.node[83].veinsmobility  posx  ETV
vector 45719  IntersectionExampleScenario.node[83].veinsmobility  posy  ETV
vector 45720  IntersectionExampleScenario.node[83].veinsmobility  speed  ETV
vector 45721  IntersectionExampleScenario.node[83].veinsmobility  acceleration  ETV
vector 45722  IntersectionExampleScenario.node[83].veinsmobility  co2emission  ETV
45617	2892172 7593 26275 31531 254.5 313.75 238 0.973 11.200708441096 577.85320578729 2683.1312897429
45616	2899765 7843 26275 31531 254.5 313.75 238 -3.909389257431 2.5 35.285810470581 339.75791893377
45615	2907608 7981 26252 31531 254.25 313.75 239 0 15.02499961853 2192.5691476669 27562.110636938
45614	2915589 8396 26229 31531 254 313.75 240 234.96752929688 483.14999389648 107226.57925415 49029932.521589
45613	2923985 8364 26229 31531 254 313.75 240 184.17810058594 483.1828918457 99288.54574585 43016918.570021
vector 45725  IntersectionExampleScenario.node[84].veinsmobility  posx  ETV
vector 45726  IntersectionExampleScenario.node[84].veinsmobility  posy  ETV
vector 45727  IntersectionExampleScenario.node[84].veinsmobility  speed  ETV
vector 45728  IntersectionExampleScenario.node[84].veinsmobility  acceleration  ETV
vector 45729  IntersectionExampleScenario.node[84].veinsmobility  co2emission  ETV
45652	2932750 7032 27469 32579 269.75 324.75 221 0.973 11.200708441096 573.81652694315 2713.6068800912
45651	2939782 6447 27469 32579 269.75 324.75 221 -8.6810245513916 4 36.134572982788 471.49787660457
45650	2946229 6819 27446 32579 269.5 324.75 222 0 15.02499961853 2208.198925972 30342.014239896
45649	2953048 7789 27423 32579 269.25 324.75 223 237.11944580078 785.82187652588 114762.75058746 63326239.461036
45648	2960837 7807 27423 32579 269.25 324.75 223 483.14999389648 483.14999389648 107742.44863892 52055763.402284
vector 45732  IntersectionExampleScenario.node[85].veinsmobility  posx  ETV
vector 45733  IntersectionExampleScenario.node[85].veinsmobility  posy  ETV
vector 45734  IntersectionExampleScenario.node[85].veinsmobility  speed  ETV
vector 45735  IntersectionExampleScenario.node[85].veinsmobility  acceleration  ETV
vector 45736  IntersectionExampleScenario.node[85].veinsmobility  co2emission  ETV
45666	2969045 5802 28695 32829 284 327.5 175 0.973 11.200708441096 526.60187885902 2772.5067985918
45665	2974847 5620 28695 32829 284 327.5 175 -2.5652732849121 2.5000019073486 36.134572982788 287.11666458477
45664	2980467 5880 28674 32829 283.75 327.5 176 5.6500000953674 15.02499961853 2215.892645359 29371.279523285
45663	2986347 6180 28653 32829 283.5 327.5 177 483.11904907227 785.82187652588 100704.64389801 59125159.354336
45662	2992527 6182 28653 32829 283.5 327.5 177 483.14999389648 735.19390869141 94365.145904541 51354262.632037
45680	2998709 5261 29173 32916 289.5 328.5 157 0.973 11.62752983205 541.70283006781 3159.1307225357
45679	3003970 5046 29173 32916 289.5 328.5 157 -3.7332382202148 2.5 39.699392318726 304.5407484585
45678	3009016 5315 29148 32916 289.25 328.5 158 5.6500000953674 15.621269226074 2220.4494953156 31962.115490382
45677	3014331 5546 29123 32916 289 328.5 159 235.95361328125 785.82187652588 83151.247001648 47599120.507563
45676	3019877 5564 29123 32916 289 328.5 159 483.14999389648 483.14999389648 76820.849029541 37115992.739745
45687	3025441 5599 29401 33232 291.75 332.5 164 0.973 11.498074617101 518.71480905645 2784.7024337382
45686	3031040 5296 29401 33232 291.75 332.5 164 -4.010383605957 2.5 37.15309715271 273.97175714682
45685	3036336 5505 29375 33232 291.5 332.5 165 5.6500000953674 15.440866470337 2271.8428726196 32120.590808508
45684	3041841 5802 29348 33232 291.25 332.5 166 483.14999389648 802.70781707764 96046.710105896 57630626.0969
45683	3047643 5806 29348 33232 291.25 332.5 166 483.14999389648 732.15013122559 88705.305755615 48376505.685514
vector 45739  IntersectionExampleScenario.node[86].veinsmobility  posx  ETV
vector 45740  IntersectionExampleScenario.node[86].veinsmobility  posy  ETV
vector 45741  IntersectionExampleScenario.node[86].veinsmobility  speed  ETV
vector 45742  IntersectionExampleScenario.node[86].veinsmobility  acceleration  ETV
vector 45743  IntersectionExampleScenario.node[86].veinsmobility  co2emission  ETV
vector 45746  IntersectionExampleScenario.node[87].veinsmobility  posx  ETV
vector 45747  IntersectionExampleScenario.node[87].veinsmobility  posy  ETV
vector 45753  IntersectionExampleScenario.node[88].veinsmobility  posx  ETV
vector 45754  IntersectionExampleScenario.node[88].veinsmobility  posy  ETV
vector 45748  IntersectionExampleScenario.node[87].veinsmobility  speed  ETV
vector 45749  IntersectionExampleScenario.node[87].veinsmobility  acceleration  ETV
vector 45750  IntersectionExampleScenario.node[87].veinsmobility  co2emission  ETV
vector 45755  IntersectionExampleScenario.node[88].veinsmobility  speed  ETV
vector 45756  IntersectionExampleScenario.node[88].veinsmobility  acceleration  ETV
vector 45757  IntersectionExampleScenario.node[88].veinsmobility  co2emission  ETV
vector 45760  IntersectionExampleScenario.node[89].veinsmobility  posx  ETV
vector 45761  IntersectionExampleScenario.node[89].veinsmobility  posy  ETV
45638	3054806 8925 27131 33905 265.5 340.5 301 0.973 11.450879080643 651.16606183991 2868.868845464
45637	3063731 8060 27131 33905 265.5 340.5 301 -7.0611100196838 4 37.15309715271 464.62119604719
45636	3071791 8334 27110 33905 265.25 340.5 302 0 15.375 2090.0884906054 28944.459586881
45635	3080125 10598 27089 33905 265 340.5 303 237.33026123047 486.85000610352 138989.10906982 64934410.648671
45634	3090723 10580 27089 33905 265 340.5 303 483.14999389648 758.8203125 160728.14028168 86968185.285815
vector 45762  IntersectionExampleScenario.node[89].veinsmobility  speed  ETV
45624	3101381 9142 27070 33928 264.75 340.75 305 0.973 12.717865293408 708.58204651946 3409.9626738179
45623	3110523 8500 27070 33928 264.75 340.75 305 -4.5 2.5000019073486 43.773473739624 513.47888351399
45622	3119023 8622 27051 33928 264.5 340.75 306 0 17.125 2189.590741599 31851.70483052
45621	3127645 10724 27034 33928 264.25 340.75 307 486.85000610352 734.50016784668 157095.81433105 81451556.256149
45620	3138369 10728 27034 33928 264.25 340.75 307 486.85000610352 785.82187652588 166555.85881042 92581822.96827
vector 45763  IntersectionExampleScenario.node[89].veinsmobility  acceleration  ETV
vector 45764  IntersectionExampleScenario.node[89].veinsmobility  co2emission  ETV
vector 45767  IntersectionExampleScenario.node[90].veinsmobility  posx  ETV
vector 45768  IntersectionExampleScenario.node[90].veinsmobility  posy  ETV
vector 45769  IntersectionExampleScenario.node[90].veinsmobility  speed  ETV
vector 45770  IntersectionExampleScenario.node[90].veinsmobility  acceleration  ETV
vector 45771  IntersectionExampleScenario.node[90].veinsmobility  co2emission  ETV
45631	3149667 10148 27089 34272 265 344.5 319 0.973 11.00486315618 673.0739118836 2606.9237842139
45630	3159815 10091 27089 34272 265 344.5 319 -4.5 2.5000019073486 35.795072555542 368.2144203003
45629	3169906 10097 27070 34272 264.75 344.5 320 0 14.862331390381 2299.6905552344 30089.501361247
45628	3180003 11234 27051 34272 264.5 344.5 321 238.38360595703 486.85000610352 147626.82376099 69093107.790962
45627	3191237 11198 27051 34272 264.5 344.5 321 483.14999389648 810.23281097412 177332.81956482 100770496.12952
45645	3202435 9890 27469 34410 269.75 346 306 0.973 11.54047740176 681.97768123252 2965.4716362777
45644	3212325 9730 27469 34410 269.75 346 306 -4.5 2.5 38.341367721558 371.46359944962
45643	3222055 10178 27446 34410 269.5 346 307 0 15.5 2295.7747319546 30735.898031347
45642	3232233 10780 27423 34410 269.25 346 308 486.85000610352 486.85000610352 149949.80187988 73003061.960442
45641	3243013 10755 27423 34410 269.25 346 308 235.25140380859 803.93326568604 161921.62465668 89735821.390099
vector 45774  IntersectionExampleScenario.node[91].veinsmobility  posx  ETV
vector 45775  IntersectionExampleScenario.node[91].veinsmobility  posy  ETV
vector 45776  IntersectionExampleScenario.node[91].veinsmobility  speed  ETV
vector 45777  IntersectionExampleScenario.node[91].veinsmobility  acceleration  ETV
vector 45778  IntersectionExampleScenario.node[91].veinsmobility  co2emission  ETV
45659	3254169 9425 28045 34667 276 348.75 292 0.973 11.200708441096 649.2716355649 2840.6247371451
45658	3263594 9963 28045 34667 276 348.75 292 -3.8660950660706 2.5000019073486 37.32285118103 349.3535299537
45657	3273557 9969 28022 34667 275.75 348.75 293 0 15.039176940918 2202.8514207462 28154.864649665
45656	3283526 10272 27998 34667 275.5 348.75 294 238.04077148438 486.85000610352 134669.83978271 62846672.518203
45655	3293798 10257 27998 34667 275.5 348.75 294 483.1203918457 785.82187652588 162593.70070648 91860007.88484
vector 45781  IntersectionExampleScenario.node[92].veinsmobility  posx  ETV
vector 45782  IntersectionExampleScenario.node[92].veinsmobility  posy  ETV
vector 45783  IntersectionExampleScenario.node[92].veinsmobility  speed  ETV
vector 45784  IntersectionExampleScenario.node[92].veinsmobility  acceleration  ETV
vector 45785  IntersectionExampleScenario.node[92].veinsmobility  co2emission  ETV
vector 45788  IntersectionExampleScenario.node[93].veinsmobility  posx  ETV
vector 45789  IntersectionExampleScenario.node[93].veinsmobility  posy  ETV
vector 45790  IntersectionExampleScenario.node[93].veinsmobility  speed  ETV
vector 45791  IntersectionExampleScenario.node[93].veinsmobility  acceleration  ETV
[...]
vector 48666  IntersectionExampleScenario.node[504].veinsmobility  posy  ETV
vector 48667  IntersectionExampleScenario.node[504].veinsmobility  speed  ETV
48515	21067338 10333 188326 195839 1666.75 1748.5 328 0.973 11.36141391502 681.75240770487 2891.4244810374
48514	21077671 9325 188326 195839 1666.75 1748.5 328 -6.7711477279663 4 36.98334312439 450.59403005823
48513	21086996 9642 188305 195839 1666.5 1748.5 329 0 15.25 2175.7520129681 29985.058215833
48512	21096638 12144 188284 195839 1666.25 1748.5 330 486.85000610352 732.63011169434 168984.35037231 87683246.929769
48511	21108782 12204 188284 195839 1666.25 1748.5 330 486.63604736328 785.82187652588 176647.73459625 96771441.276249
vector 48668  IntersectionExampleScenario.node[504].veinsmobility  acceleration  ETV
vector 48669  IntersectionExampleScenario.node[504].veinsmobility  co2emission  ETV
48571	21121157 7700 190427 195868 1692.5 1748.75 226 0.973 12.099024792222 608.45141276977 3225.0724531681
48570	21128857 8015 190427 195868 1692.5 1748.75 226 -3.9311535358429 2.5000019073486 41.057416915894 362.83736703261
48569	21136872 8241 190400 195868 1692.25 1748.75 227 0 16.27499961853 2219.7384603638 30656.812472309
48568	21145113 8436 190373 195868 1692 1748.75 228 486.85000610352 486.85000610352 111001.8013916 54041227.685002
48567	21153549 8410 190373 195868 1692 1748.75 228 236.01739501953 785.82187652588 118418.45738983 65556711.681928
vector 48672  IntersectionExampleScenario.node[505].veinsmobility  posx  ETV
vector 48673  IntersectionExampleScenario.node[505].veinsmobility  posy  ETV
vector 48674  IntersectionExampleScenario.node[505].veinsmobility  speed  ETV
vector 48675  IntersectionExampleScenario.node[505].veinsmobility  acceleration  ETV
vector 48676  IntersectionExampleScenario.node[505].veinsmobility  co2emission  ETV
vector 48679  IntersectionExampleScenario.node[506].veinsmobility  posx  ETV
vector 48680  IntersectionExampleScenario.node[506].veinsmobility  posy  ETV
vector 48681  IntersectionExampleScenario.node[506].veinsmobility  speed  ETV
vector 48682  IntersectionExampleScenario.node[506].veinsmobility  acceleration  ETV
vector 48683  IntersectionExampleScenario.node[506].veinsmobility  co2emission  ETV
48557	21162771 9486 190087 197402 1689 1763.5 299 0.973 12.099024792222 691.36461025536 3332.6666604628
48556	21172257 8350 190087 197402 1689 1763.5 299 -9.2126979827881 4 41.396924972534 521.82273223514
48555	21180607 8875 190063 197402 1688.75 1763.5 300 0 16.27499961853 2194.9300296307 32233.511931395
48554	21189482 11105 190038 197402 1688.5 1763.5 301 184.17810058594 486.85000610352 130523.0027771 58739720.357469
48553	21200587 11133 190038 197402 1688.5 1763.5 301 239.17236328125 486.85000610352 138660.28204346 64968277.070127
48564	21211720 10110 190298 197671 1691.25 1766.25 301 0.973 11.90022389248 686.11677709462 3168.2809491947
48563	21221830 9954 190298 197671 1691.25 1766.25 301 -4.5 2.5 39.699392318726 438.31281616835
48562	21231784 10061 190273 197671 1691 1766.25 302 0 16 2267.2431016844 32153.50516124
48561	21241845 11112 190248 197671 1690.75 1766.25 303 167.29217529297 486.88519287109 128884.86834717 57244199.712062
48560	21252957 11193 190248 197671 1690.75 1766.25 303 238.63659667969 486.85000610352 139405.0581665 65262061.672539
48578	21264150 10300 190566 197892 1693.75 1768.75 301 0.973 11.54047740176 668.29289844337 2923.2150277462
48577	21274450 10557 190566 197892 1693.75 1768.75 301 -3.9711108207703 2.5000004768372 37.32285118103 355.36493443382
48576	21285007 10738 190537 197892 1693.5 1768.75 302 0 15.5 2315.3925051028 30651.189167475
48575	21295745 11183 190508 197892 1693.25 1768.75 303 160.14141845703 734.33290100098 134892.48519897 64865852.281877
48574	21306928 11213 190508 197892 1693.25 1768.75 303 486.85000610352 486.85000610352 147515.55184937 71817947.318227
vector 48686  IntersectionExampleScenario.node[507].veinsmobility  posx  ETV
vector 48687  IntersectionExampleScenario.node[507].veinsmobility  posy  ETV
vector 48688  IntersectionExampleScenario.node[507].veinsmobility  speed  ETV
vector 48689  IntersectionExampleScenario.node[507].veinsmobility  acceleration  ETV
vector 48690  IntersectionExampleScenario.node[507].veinsmobility  co2emission  ETV
vector 48693  IntersectionExampleScenario.node[508].veinsmobility  posx  ETV
vector 48694  IntersectionExampleScenario.node[508].veinsmobility  posy  ETV
vector 48695  IntersectionExampleScenario.node[508].veinsmobility  speed  ETV
vector 48696  IntersectionExampleScenario.node[508].veinsmobility  acceleration  ETV
vector 48697  IntersectionExampleScenario.node[508].veinsmobility  co2emission  ETV
vector 48700  IntersectionExampleScenario.node[509].veinsmobility  posx  ETV
vector 48701  IntersectionExampleScenario.node[509].veinsmobility  posy  ETV
vector 48702  IntersectionExampleScenario.node[509].veinsmobility  speed  ETV
48627	21319188 5852 194219 198230 1731.75 1772.5 164 0.973 11.200708441096 521.65697541696 2959.6051191068
48626	21325040 5521 194219 198230 1731.75 1772.5 164 -3.4401473999023 2.5 35.795072555542 283.9084546619
48625	21330561 5830 194195 198230 1731.5 1772.5 165 5.6500000953674 15.02499961853 2214.2986097336 30461.957856915
48624	21336391 6120 194172 198230 1731.25 1772.5 166 184.17810058594 486.85000610352 66168.394256592 28192808.012934
48623	21342511 6140 194172 198230 1731.25 1772.5 166 235.33081054688 486.85000610352 71956.369018555 32204305.921725
vector 48703  IntersectionExampleScenario.node[509].veinsmobility  acceleration  ETV
vector 48704  IntersectionExampleScenario.node[509].veinsmobility  co2emission  ETV
vector 48707  IntersectionExampleScenario.node[510].veinsmobility  posx  ETV
vector 48708  IntersectionExampleScenario.node[510].veinsmobility  posy  ETV
vector 48709  IntersectionExampleScenario.node[510].veinsmobility  speed  ETV
vector 48710  IntersectionExampleScenario.node[510].veinsmobility  acceleration  ETV
vector 48711  IntersectionExampleScenario.node[510].veinsmobility  co2emission  ETV
48592	21349228 9768 191816 199015 1704.5 1780.75 306 0.973 11.200708441096 652.04000711182 2757.9219933697
48591	21358996 8850 191816 199015 1704.5 1780.75 306 -6.8669724464417 4 35.625318527222 447.70992636987
48590	21367846 9205 191789 199015 1704.25 1780.75 307 0 15.02499961853 2191.2542022467 29792.981060611
48589	21377051 11387 191761 199015 1704 1780.75 308 483.14999389648 735.54794311523 157747.39060974 82039511.217079
48588	21388438 11376 191761 199015 1704 1780.75 308 184.17810058594 486.85000610352 133179.32937622 59809544.776261
vector 48714  IntersectionExampleScenario.node[511].veinsmobility  posx  ETV
vector 48715  IntersectionExampleScenario.node[511].veinsmobility  posy  ETV
vector 48716  IntersectionExampleScenario.node[511].veinsmobility  speed  ETV
vector 48717  IntersectionExampleScenario.node[511].veinsmobility  acceleration  ETV
vector 48718  IntersectionExampleScenario.node[511].veinsmobility  co2emission  ETV
48599	21400220 9365 192701 199133 1713.5 1782 275 0.973 11.36141391502 625.17727410037 2813.8394597896
48598	21409585 9750 192701 199133 1713.5 1782 275 -3.8494310379028 2.5 37.15309715271 331.29506828093
48597	21419335 9671 192678 199133 1713.25 1782 276 0 15.25 2184.2301588813 28351.878106729
48596	21429006 10216 192655 199133 1713 1782 277 236.837890625 483.14999389648 125497.01177979 57972368.620515
48595	21439222 10211 192655 199133 1713 1782 277 184.17810058594 483.14999389648 117132.65493774 51565539.813031
vector 48721  IntersectionExampleScenario.node[512].veinsmobility  posx  ETV
vector 48722  IntersectionExampleScenario.node[512].veinsmobility  posy  ETV
vector 48723  IntersectionExampleScenario.node[512].veinsmobility  speed  ETV
vector 48724  IntersectionExampleScenario.node[512].veinsmobility  acceleration  ETV
vector 48725  IntersectionExampleScenario.node[512].veinsmobility  co2emission  ETV
vector 48728  IntersectionExampleScenario.node[513].veinsmobility  posx  ETV
vector 48729  IntersectionExampleScenario.node[513].veinsmobility  posy  ETV
vector 48730  IntersectionExampleScenario.node[513].veinsmobility  speed  ETV
48613	21450074 8101 193552 199258 1723.75 1783.25 239 0.973 11.990504229548 607.36235689782 3084.2571341981
48612	21458175 8475 193552 199258 1723.75 1783.25 239 -3.7547626495361 2.5 39.699392318726 344.57575419589
48611	21466650 8656 193533 199258 1723.5 1783.25 240 0 16.125 2217.3426400255 29686.226549391
48610	21475306 8918 193514 199258 1723.25 1783.25 241 483.14999389648 483.14999389648 116439.14852905 56257573.901123
48609	21484224 8871 193514 199258 1723.25 1783.25 241 184.17810058594 733.35498046875 108036.06306458 52538953.879049
vector 48731  IntersectionExampleScenario.node[513].veinsmobility  acceleration  ETV
vector 48732  IntersectionExampleScenario.node[513].veinsmobility  co2emission  ETV
48634	21493266 7454 194242 199636 1732 1786.75 220 0.973 11.200708441096 557.75155268805 2664.0928537474
48633	21500720 7543 194242 199636 1732 1786.75 220 -3.9080312252045 2.5000009536743 36.813589096069 318.4451845547
48632	21508263 7952 194219 199636 1731.75 1786.75 221 0 15.02499961853 2225.4747472834 28935.218483608
48631	21516215 8215 194195 199636 1731.5 1786.75 222 483.14999389648 483.14999389648 107259.29864502 51822329.485682
48630	21524430 8176 194195 199636 1731.5 1786.75 222 184.17810058594 735.42932128906 99432.227539062 48826184.117487
48641	21532606 6687 194930 199879 1740 1789 197 0.973 11.648172402475 556.01112848579 2970.1602887778
48640	21539293 6760 194930 199879 1740 1789 197 -2.5514869689941 2.5 38.511121749878 341.05275407532
48639	21546053 7042 194906 199879 1739.75 1789 198 1.7426024675369 15.64999961853 2211.5792273283 28919.439721908
48638	21553095 7353 194883 199879 1739.5 1789 199 483.14999389648 733.44105529785 104556.36381531 55981015.896408
48637	21560448 7331 194883 199879 1739.5 1789 199 184.17810058594 486.85000610352 80553.038726807 34434277.223119
48606	21567779 9726 193158 200577 1718.75 1795.75 309 0.973 12.099024792222 689.87151359831 3282.0673836163
48605	21577505 8934 193158 200577 1718.75 1795.75 309 -7.8776445388794 4 40.038900375366 507.6300871309
48604	21586439 9098 193137 200577 1718.5 1795.75 310 0 16.27499961853 2168.8225958347 31233.1102877
48603	21595537 11493 193116 200577 1718.25 1795.75 311 486.63604736328 785.82187652588 166783.11127472 91585158.028661
48602	21607030 11438 193116 200577 1718.25 1795.75 311 239.04711914062 483.14999389648 142421.00421143 66293830.123765
vector 48735  IntersectionExampleScenario.node[514].veinsmobility  posx  ETV
vector 48736  IntersectionExampleScenario.node[514].veinsmobility  posy  ETV
vector 48737  IntersectionExampleScenario.node[514].veinsmobility  speed  ETV
vector 48738  IntersectionExampleScenario.node[514].veinsmobility  acceleration  ETV
vector 48739  IntersectionExampleScenario.node[514].veinsmobility  co2emission  ETV
48669	21618874 6735 195868 200790 1748.75 1798 198 0.973 11.450879080643 543.83437469624 2742.6400296054
48668	21625609 6940 195868 200790 1748.75 1798 198 -2.1334800720215 2.5 36.98334312439 300.7180543562
48667	21632549 7121 195839 200790 1748.5 1798 199 1.301518201828 15.375 2210.9849750996 28938.65542105
48666	21639670 7391 195809 200790 1748.25 1798 200 482.97741699219 785.82187652588 112422.42829132 65081409.748877
48665	21647061 7392 195809 200790 1748.25 1798 200 483.14999389648 734.88912963867 105328.62431335 56553011.408411
vector 48742  IntersectionExampleScenario.node[515].veinsmobility  posx  ETV
vector 48743  IntersectionExampleScenario.node[515].veinsmobility  posy  ETV
vector 48744  IntersectionExampleScenario.node[515].veinsmobility  speed  ETV
vector 48745  IntersectionExampleScenario.node[515].veinsmobility  acceleration  ETV
vector 48746  IntersectionExampleScenario.node[515].veinsmobility  co2emission  ETV
48620	21654859 9076 193689 200980 1725.5 1800 299 0.973 11.648172402475 613.95600815801 2861.2888936296
48619	21663935 7867 193689 200980 1725.5 1800 299 -24.066959381104 4 38.580327987671 992.9259874005
48618	21671802 8208 193668 200980 1725.25 1800 300 0 15.64999961853 1453.7557268143 20115.144975995
48617	21680010 11133 193647 200980 1725 1800 301 423.92938232422 486.85000610352 145915.75372314 70759250.461208
48616	21691143 11124 193647 200980 1725 1800 301 483.14999389648 785.82187652588 162442.72403717 89773267.460201
48648	21702267 7707 195118 200980 1742 1800 233 0.973 11.200708441096 522.08756736272 2508.3949986882
48647	21709974 8200 195118 200980 1742 1800 233 -3.9810762405396 2.5 36.840921401978 330.80958770587
48646	21718174 8041 195093 200980 1741.75 1800 234 0 15.02499961853 1402.1635224884 16926.743134134
48645	21726215 8694 195068 200980 1741.5 1800 235 486.85000610352 486.85000610352 114409.75143433 55700388.184103
48644	21734909 8672 195068 200980 1741.5 1800 235 439.89761352539 785.82187652588 131048.39902496 74965990.137918
48655	21743581 7770 195222 200980 1743 1800 229 0.973 11.200708441096 457.5201813324 1748.646761425
48654	21751351 8209 195222 200980 1743 1800 229 -4.5 2.5 8.3999996185303 383.88504830987
48653	21759560 8269 195195 200980 1742.75 1800 230 0 15.373108863831 1327.1672730315 15622.870589782
48652	21767829 8545 195168 200980 1742.5 1800 231 486.85000610352 499.54507446289 112520.79425049 54809692.325292
48651	21776374 8512 195168 200980 1742.5 1800 231 486.85000610352 807.99687957764 132440.38611603 77945457.569442
48662	21784886 6492 195577 200980 1746.25 1800 216 0.973 12.099024792222 398.00300124362 1707.2981054791
48661	21791378 6063 195577 200980 1746.25 1800 216 -9.4888124465942 2.5 -22.60000038147 369.31784741642
48660	21797441 6173 195548 200980 1746 1800 217 0 16.27499961853 1148.0594949722 16637.149405997
48659	21803614 8044 195519 200980 1745.75 1800 218 184.17810058594 471.60000610352 90291.430328369 39245164.052553
48658	21811658 8065 195519 200980 1745.75 1800 218 486.85000610352 486.85000610352 106133.30133057 51670998.400572
48676	21819723 5882 196617 200980 1755.75 1800 178 0.973 12.099024792222 351.60331487486 1631.7307450644
48675	21825605 6670 196617 200980 1755.75 1800 178 -3.8457043170929 2.5 -22.549488153309 206.14961486042
48674	21832275 6559 196591 200980 1755.5 1800 179 0 16.27499961853 1123.2010295475 14418.436728455
48673	21838834 6624 196564 200980 1755.25 1800 180 184.17810058594 465.19506835938 71046.368835449 29580257.0588
48672	21845458 6660 196564 200980 1755.25 1800 180 486.85000610352 486.85000610352 87633.001098633 42664127.119739
48683	21852118 4684 197321 200980 1762.75 1800 150 0.973 12.099024792222 332.97357235738 1642.740397013
48682	21856802 4546 197321 200980 1762.75 1800 150 -7.2880620956421 2.5 -22.60000038147 328.44024444759
48681	21861348 4662 197294 200980 1762.5 1800 151 0 16.27499961853 1146.85648489 16607.342126703
48680	21866010 5624 197267 200980 1762.25 1800 152 483.14999389648 483.14999389648 73438.799072266 35481955.32353
48679	21871634 5599 197267 200980 1762.25 1800 152 184.17810058594 471.60000610352 59171.808013916 24569662.027907
48690	21877233 4447 197959 200980 1769.5 1800 123 0.973 11.648172402475 403.4454053623 2316.6988911686
48689	21881680 4156 197959 200980 1769.5 1800 123 -3.1964340209961 2.5 38.342153549194 191.50698180989
48688	21885836 4361 197936 200980 1769.25 1800 124 5.6500000953674 15.64999961853 1744.8370380402 25154.531110955
48687	21890197 4619 197913 200980 1769 1800 125 354.80853271484 785.82187652588 72227.491081238 43834833.757865
48686	21894816 4623 197913 200980 1769 1800 125 483.14999389648 483.14999389648 60393.749237061 29179239.575272
48697	21899439 3803 198159 200980 1771.75 1800 114 0.973 11.200708441096 298.20265524185 1454.3686306775
48696	21903242 4130 198159 200980 1771.75 1800 114 -2.9535293579102 2.5 5.3999996185303 215.63537567314
48695	21907372 4189 198136 200980 1771.5 1800 115 3.8298437595367 15.02499961853 1169.0131547451 13725.90479655
48694	21911561 4292 198113 200980 1771.25 1800 116 486.85000610352 487.18185424805 56475.008117676 27495056.510019
48693	21915853 4283 198113 200980 1771.25 1800 116 496.08569335938 785.82187652588 71976.610694885 45657033.402437
48704	21920136 3810 198255 200980 1772.75 1800 110 0.973 11.200708441096 332.06006548042 1611.3131431912
48703	21923946 3769 198255 200980 1772.75 1800 110 -4.5 2.5 7.9191379547119 345.89594523987
48702	21927715 4091 198230 200980 1772.5 1800 111 2.1647458076477 16.616271972656 1194.6331381798 15604.14174043
48701	21931806 4144 198205 200980 1772.25 1800 112 486.85000610352 486.85000610352 54527.200683594 26546567.985615
48700	21935950 4121 198205 200980 1772.25 1800 112 511.607421875 807.99687957764 71508.065757751 46700222.630049
48711	21940071 3028 198674 200980 1777.25 1800 92 0.973 11.648172402475 254.47226742708 1406.1259109533
48710	21943099 3372 198674 200980 1777.25 1800 92 -2.1371688842773 2.5 -9.289867401123 173.89514218776
48709	21946471 3418 198649 200980 1777 1800 93 3.3275332450867 15.64999961853 1075.3287787437 14121.696778162
48708	21949889 3477 198624 200980 1776.75 1800 94 483.14999389648 483.14999389648 45416.09942627 21942788.160604
48707	21953366 3452 198624 200980 1776.75 1800 94 184.17810058594 451.896484375 31062.50567627 11017895.31451
48718	21956818 2527 199087 200980 1781.5 1800 75 0.973 12.099024792222 241.01689898169 1509.551726202
48717	21959345 2655 199087 200980 1781.5 1800 75 -2.1975021362305 2.5 2.6215782165527 173.39074980837
48716	21962000 2794 199063 200980 1781.25 1800 76 5.6500000953674 16.27499961853 982.86471652985 13593.448361448
48715	21964794 2822 199038 200980 1781 1800 77 184.17810058594 427.87948608398 23600.119750977 7724566.1064238
48714	21967616 2847 199038 200980 1781 1800 77 486.85000610352 486.85000610352 37487.450469971 18250765.49011
48725	21970463 2481 199206 200980 1782.75 1800 70 0.973 11.200708441096 222.44180700463 1244.9933933077
48724	21972944 2537 199206 200980 1782.75 1800 70 -4.5 2.5 12.799551010132 178.59362952802
48723	21975481 2611 199181 200980 1782.5 1800 71 5.6500000953674 15.02499961853 944.13638305664 12949.423196506
48722	21978092 2646 199156 200980 1782.25 1800 72 162.90466308594 395.9250793457 19604.102325439 5721961.7833105
48721	21980738 2664 199156 200980 1782.25 1800 72 486.85000610352 486.85000610352 35053.200439453 17065650.847895
48732	21983402 2471 199285 200980 1783.5 1800 67 2.0947737808434 11.648172402475 246.74690701446 1437.0279609234
48731	21985873 2166 199285 200980 1783.5 1800 67 -0.03271484375 2.5 39.869146347046 100.00243678713
48730	21988039 2503 199258 200980 1783.25 1800 68 5.6500000953674 15.64999961853 977.62969303131 14529.503959208
48729	21990542 2544 199231 200980 1783 1800 69 546.64514160156 785.82187652588 46714.092430115 32007342.908606
48728	21993086 2551 199231 200980 1783 1800 69 483.14999389648 483.14999389648 33337.349578857 16106940.24555
48739	21995637 367 200767 200980 1797.75 1800 10 5.2162187258585 9.0094788378334 71.010429736213 518.89513016095
48738	21996004 261 200767 200980 1797.75 1800 10 2.4999980926514 2.5 24.999998092651 62.49999046326
48737	21996265 402 200744 200980 1797.5 1800 11 5.6500000953674 11.89999961853 96.524997711182 889.97557648659
48736	21996667 444 200720 200980 1797.25 1800 12 765.44688415527 785.82187652588 9330.6907196045 7255685.5076577
48735	21997111 444 200720 200980 1797.25 1800 12 483.14999389648 483.14999389648 5797.7999267578 2801206.9992261
48746	21997555 110 200932 200980 1799.5 1800 3 5.2162187258585 6.0461819274774 16.892854010144 95.467258699338
48745	21997665 74 200932 200980 1799.5 1800 3 2.5 2.5 7.5 18.75
48744	21997739 148 200907 200980 1799.25 1800 4 5.6500000953674 7.5250000953674 26.35000038147 175.53375502586
48743	21997887 183 200882 200980 1799 1800 5 184.17810058594 188.65002441406 929.52185058594 172817.03356194
48742	21998070 183 200882 200980 1799 1800 5 486.85000610352 486.85000610352 2434.2500305176 1185114.642215
45133	21998253 640 0 200979 0 1800 31 0 27 552 10760
45134	21998893 656 0 200979 0 1800 31 0 216 3421 516593
