file 21345331 1591490801                                        
version 2
run nodebug-43-20200606-20:42:48-18208
attr configname nodebug
attr datetime 20200606-20:42:48
attr experiment nodebug
attr inifile omnetpp.ini
attr iterationvars ""
attr iterationvars2 $repetition=43
attr measurement ""
attr network "\"org.car2x.veins.modules.application.ExtTraCIScenarioManagerLaunchd.IntersectionExampleScenario\""
attr processid 18208
attr repetition 43
attr replication #43
attr resultdir results
attr runnumber 43
attr seedset 43
param **.coreDebug false
param **.debug false
param *.**.nic.mac1609_4.bitrate 18Mbps
param *.**.nic.mac1609_4.txPower 20mW
param *.**.nic.mac1609_4.useServiceChannel false
param *.**.nic.phy80211p.analogueModels "xmldoc(\"config.xml\")"
param *.**.nic.phy80211p.decider "xmldoc(\"config.xml\")"
param *.**.nic.phy80211p.sensitivity -89dBm
param *.**.nic.phy80211p.thermalNoise -110dBm
param *.**.nic.phy80211p.usePropagationDelay true
param *.**.nic.phy80211p.useThermalNoise true
param *.annotations.draw false
param *.connectionManager.alpha 2.0
param *.connectionManager.carrierFrequency "5.890e9 Hz"
param *.connectionManager.pMax 20mW
param *.connectionManager.sat -89dBm
param *.connectionManager.sendDirect true
param *.manager.autoShutdown true
param *.manager.host "\"localhost\""
param *.manager.launchConfig "xmldoc(\"paramics.launchd.xml\")"
param *.manager.margin 25
param *.manager.moduleDisplayString "\"\""
param *.manager.moduleName "\"node\""
param *.manager.moduleType "\"org.car2x.veins.nodes.Car\""
param *.manager.port 9999
param *.manager.updateInterval 250ms
param *.node[*0].veinsmobility.accidentCount 0
param *.node[*0].veinsmobility.accidentDuration 30s
param *.node[*0].veinsmobility.accidentStart 75s
param *.node[*].appl.LiderSelectZoneRadio 55.0
param *.node[*].appl.ShareDataZoneRadio 110.0
param *.node[*].appl.TiempoSemaforo 30.0
param *.node[*].appl.beaconInterval 1s
param *.node[*].appl.beaconPriority 3
param *.node[*].appl.dataOnSch false
param *.node[*].appl.dataPriority 2
param *.node[*].appl.debug false
param *.node[*].appl.headerLength "256 bit"
param *.node[*].appl.maxOffset 0.005s
param *.node[*].appl.sendBeacons false
param *.node[*].appl.sendData true
param *.node[*].applType "\"Dummy\""
param *.node[*].mobilityType "\"TraCIMobility\""
param *.node[*].mobilityType.debug true
param *.node[*].veinsmobility.x 0
param *.node[*].veinsmobility.y 0
param *.node[*].veinsmobility.z 1.895
param *.node[*].veinsmobilityType "\"org.car2x.veins.modules.mobility.traci.TraCIMobility\""
param *.node[*].veinsmobilityType.debug true
param *.playgroundSizeX 8500m
param *.playgroundSizeY 8500m
param *.playgroundSizeZ 50m
param *.world.use2D false
param *.world.useTorus false

vector 41617  IntersectionExampleScenario.manager  vehiclesinsim  ETV
attr type  int
vector 41618  IntersectionExampleScenario.manager  realtime  ETV
attr type  int
attr unit  s
vector 41621  IntersectionExampleScenario.node[0].veinsmobility  posx  ETV
vector 41622  IntersectionExampleScenario.node[0].veinsmobility  posy  ETV
vector 41623  IntersectionExampleScenario.node[0].veinsmobility  speed  ETV
vector 41624  IntersectionExampleScenario.node[0].veinsmobility  acceleration  ETV
vector 41625  IntersectionExampleScenario.node[0].veinsmobility  co2emission  ETV
vector 41628  IntersectionExampleScenario.node[1].veinsmobility  posx  ETV
vector 41629  IntersectionExampleScenario.node[1].veinsmobility  posy  ETV
vector 41630  IntersectionExampleScenario.node[1].veinsmobility  speed  ETV
vector 41631  IntersectionExampleScenario.node[1].veinsmobility  acceleration  ETV
vector 41632  IntersectionExampleScenario.node[1].veinsmobility  co2emission  ETV
vector 41635  IntersectionExampleScenario.node[2].veinsmobility  posx  ETV
vector 41636  IntersectionExampleScenario.node[2].veinsmobility  posy  ETV
vector 41637  IntersectionExampleScenario.node[2].veinsmobility  speed  ETV
vector 41638  IntersectionExampleScenario.node[2].veinsmobility  acceleration  ETV
vector 41639  IntersectionExampleScenario.node[2].veinsmobility  co2emission  ETV
vector 41642  IntersectionExampleScenario.node[3].veinsmobility  posx  ETV
vector 41643  IntersectionExampleScenario.node[3].veinsmobility  posy  ETV
vector 41644  IntersectionExampleScenario.node[3].veinsmobility  speed  ETV
vector 41649  IntersectionExampleScenario.node[4].veinsmobility  posx  ETV
vector 41650  IntersectionExampleScenario.node[4].veinsmobility  posy  ETV
vector 41645  IntersectionExampleScenario.node[3].veinsmobility  acceleration  ETV
vector 41646  IntersectionExampleScenario.node[3].veinsmobility  co2emission  ETV
vector 41651  IntersectionExampleScenario.node[4].veinsmobility  speed  ETV
vector 41652  IntersectionExampleScenario.node[4].veinsmobility  acceleration  ETV
vector 41653  IntersectionExampleScenario.node[4].veinsmobility  co2emission  ETV
vector 41656  IntersectionExampleScenario.node[5].veinsmobility  posx  ETV
vector 41657  IntersectionExampleScenario.node[5].veinsmobility  posy  ETV
vector 41658  IntersectionExampleScenario.node[5].veinsmobility  speed  ETV
vector 41659  IntersectionExampleScenario.node[5].veinsmobility  acceleration  ETV
vector 41660  IntersectionExampleScenario.node[5].veinsmobility  co2emission  ETV
vector 41663  IntersectionExampleScenario.node[6].veinsmobility  posx  ETV
vector 41664  IntersectionExampleScenario.node[6].veinsmobility  posy  ETV
vector 41665  IntersectionExampleScenario.node[6].veinsmobility  speed  ETV
vector 41666  IntersectionExampleScenario.node[6].veinsmobility  acceleration  ETV
vector 41667  IntersectionExampleScenario.node[6].veinsmobility  co2emission  ETV
vector 41670  IntersectionExampleScenario.node[7].veinsmobility  posx  ETV
vector 41671  IntersectionExampleScenario.node[7].veinsmobility  posy  ETV
vector 41677  IntersectionExampleScenario.node[8].veinsmobility  posx  ETV
vector 41678  IntersectionExampleScenario.node[8].veinsmobility  posy  ETV
vector 41672  IntersectionExampleScenario.node[7].veinsmobility  speed  ETV
vector 41673  IntersectionExampleScenario.node[7].veinsmobility  acceleration  ETV
vector 41674  IntersectionExampleScenario.node[7].veinsmobility  co2emission  ETV
vector 41679  IntersectionExampleScenario.node[8].veinsmobility  speed  ETV
vector 41680  IntersectionExampleScenario.node[8].veinsmobility  acceleration  ETV
vector 41681  IntersectionExampleScenario.node[8].veinsmobility  co2emission  ETV
vector 41684  IntersectionExampleScenario.node[9].veinsmobility  posx  ETV
vector 41685  IntersectionExampleScenario.node[9].veinsmobility  posy  ETV
vector 41686  IntersectionExampleScenario.node[9].veinsmobility  speed  ETV
vector 41687  IntersectionExampleScenario.node[9].veinsmobility  acceleration  ETV
vector 41688  IntersectionExampleScenario.node[9].veinsmobility  co2emission  ETV
vector 41691  IntersectionExampleScenario.node[10].veinsmobility  posx  ETV
vector 41692  IntersectionExampleScenario.node[10].veinsmobility  posy  ETV
vector 41693  IntersectionExampleScenario.node[10].veinsmobility  speed  ETV
vector 41694  IntersectionExampleScenario.node[10].veinsmobility  acceleration  ETV
vector 41695  IntersectionExampleScenario.node[10].veinsmobility  co2emission  ETV
41632	7297 4936 82 1785 14.75 54 158 0.973 11.810082123732 514.96934216915 2895.6602624812
41631	12233 4659 82 1785 14.75 54 158 -3.5089702606201 2.5 39.190130233765 298.23360947585
41630	16892 4800 77 1785 14.5 54 159 5.6500000953674 15.875 2183.7726330757 31409.967096091
41629	21692 5160 72 1785 14.25 54 160 236.93902587891 483.14999389648 69229.359191895 30867368.983294
41628	26852 5145 72 1785 14.25 54 160 184.17810058594 483.16314697266 63587.3152771 27003015.386949
vector 41698  IntersectionExampleScenario.node[11].veinsmobility  posx  ETV
vector 41699  IntersectionExampleScenario.node[11].veinsmobility  posy  ETV
vector 41700  IntersectionExampleScenario.node[11].veinsmobility  speed  ETV
vector 41701  IntersectionExampleScenario.node[11].veinsmobility  acceleration  ETV
vector 41702  IntersectionExampleScenario.node[11].veinsmobility  co2emission  ETV
vector 41705  IntersectionExampleScenario.node[12].veinsmobility  posx  ETV
vector 41706  IntersectionExampleScenario.node[12].veinsmobility  posy  ETV
vector 41707  IntersectionExampleScenario.node[12].veinsmobility  speed  ETV
vector 41708  IntersectionExampleScenario.node[12].veinsmobility  acceleration  ETV
vector 41709  IntersectionExampleScenario.node[12].veinsmobility  co2emission  ETV
41639	32799 4776 311 2512 26 63.25 150 0.973 12.099024792222 486.80309094712 2748.466476769
41638	37575 4491 311 2512 26 63.25 150 -3.3090476989746 2.5 40.717908859253 211.49432491264
41637	42066 4682 304 2512 25.75 63.25 151 5.6500000953674 16.27499961853 2221.5656957626 33460.296972003
41636	46748 4954 297 2512 25.5 63.25 152 483.14999389648 483.14999389648 73438.799072266 35481955.32353
41635	51702 4925 297 2512 25.5 63.25 152 184.17810058594 734.25411987305 68138.631774902 34594187.259478
vector 41712  IntersectionExampleScenario.node[13].veinsmobility  posx  ETV
vector 41713  IntersectionExampleScenario.node[13].veinsmobility  posy  ETV
vector 41714  IntersectionExampleScenario.node[13].veinsmobility  speed  ETV
vector 41715  IntersectionExampleScenario.node[13].veinsmobility  acceleration  ETV
vector 41716  IntersectionExampleScenario.node[13].veinsmobility  co2emission  ETV
41660	57028 4930 531 3159 32 70.5 155 0.973 11.90022389248 497.11489405223 2767.2158186651
41659	61958 4594 531 3159 32 70.5 155 -3.3288497924805 2.5 39.359884262085 243.92842118093
41658	66552 4803 518 3159 31.75 70.5 156 5.6500000953674 16 2203.7838602066 32129.12094659
41657	71355 5132 505 3159 31.5 70.5 157 483.14999389648 785.82187652588 89845.741203308 53174914.640994
41656	76487 5136 505 3159 31.5 70.5 157 483.14999389648 732.11985778809 84059.81729126 45938637.583083
vector 41719  IntersectionExampleScenario.node[14].veinsmobility  posx  ETV
vector 41720  IntersectionExampleScenario.node[14].veinsmobility  posy  ETV
vector 41721  IntersectionExampleScenario.node[14].veinsmobility  speed  ETV
vector 41722  IntersectionExampleScenario.node[14].veinsmobility  acceleration  ETV
vector 41723  IntersectionExampleScenario.node[14].veinsmobility  co2emission  ETV
vector 41726  IntersectionExampleScenario.node[15].veinsmobility  posx  ETV
vector 41727  IntersectionExampleScenario.node[15].veinsmobility  posy  ETV
vector 41728  IntersectionExampleScenario.node[15].veinsmobility  speed  ETV
vector 41733  IntersectionExampleScenario.node[16].veinsmobility  posx  ETV
vector 41734  IntersectionExampleScenario.node[16].veinsmobility  posy  ETV
vector 41729  IntersectionExampleScenario.node[15].veinsmobility  acceleration  ETV
vector 41730  IntersectionExampleScenario.node[15].veinsmobility  co2emission  ETV
vector 41735  IntersectionExampleScenario.node[16].veinsmobility  speed  ETV
vector 41736  IntersectionExampleScenario.node[16].veinsmobility  acceleration  ETV
vector 41737  IntersectionExampleScenario.node[16].veinsmobility  co2emission  ETV
vector 41740  IntersectionExampleScenario.node[17].veinsmobility  posx  ETV
vector 41741  IntersectionExampleScenario.node[17].veinsmobility  posy  ETV
vector 41747  IntersectionExampleScenario.node[18].veinsmobility  posx  ETV
vector 41748  IntersectionExampleScenario.node[18].veinsmobility  posy  ETV
vector 41742  IntersectionExampleScenario.node[17].veinsmobility  speed  ETV
vector 41743  IntersectionExampleScenario.node[17].veinsmobility  acceleration  ETV
vector 41744  IntersectionExampleScenario.node[17].veinsmobility  co2emission  ETV
vector 41749  IntersectionExampleScenario.node[18].veinsmobility  speed  ETV
vector 41750  IntersectionExampleScenario.node[18].veinsmobility  acceleration  ETV
vector 41751  IntersectionExampleScenario.node[18].veinsmobility  co2emission  ETV
vector 41754  IntersectionExampleScenario.node[19].veinsmobility  posx  ETV
vector 41755  IntersectionExampleScenario.node[19].veinsmobility  posy  ETV
vector 41756  IntersectionExampleScenario.node[19].veinsmobility  speed  ETV
vector 41757  IntersectionExampleScenario.node[19].veinsmobility  acceleration  ETV
vector 41758  IntersectionExampleScenario.node[19].veinsmobility  co2emission  ETV
vector 41761  IntersectionExampleScenario.node[20].veinsmobility  posx  ETV
vector 41762  IntersectionExampleScenario.node[20].veinsmobility  posy  ETV
vector 41763  IntersectionExampleScenario.node[20].veinsmobility  speed  ETV
vector 41764  IntersectionExampleScenario.node[20].veinsmobility  acceleration  ETV
vector 41765  IntersectionExampleScenario.node[20].veinsmobility  co2emission  ETV
vector 41768  IntersectionExampleScenario.node[21].veinsmobility  posx  ETV
vector 41769  IntersectionExampleScenario.node[21].veinsmobility  posy  ETV
vector 41770  IntersectionExampleScenario.node[21].veinsmobility  speed  ETV
vector 41775  IntersectionExampleScenario.node[22].veinsmobility  posx  ETV
vector 41776  IntersectionExampleScenario.node[22].veinsmobility  posy  ETV
vector 41771  IntersectionExampleScenario.node[21].veinsmobility  acceleration  ETV
vector 41772  IntersectionExampleScenario.node[21].veinsmobility  co2emission  ETV
vector 41777  IntersectionExampleScenario.node[22].veinsmobility  speed  ETV
vector 41778  IntersectionExampleScenario.node[22].veinsmobility  acceleration  ETV
vector 41779  IntersectionExampleScenario.node[22].veinsmobility  co2emission  ETV
vector 41782  IntersectionExampleScenario.node[23].veinsmobility  posx  ETV
vector 41783  IntersectionExampleScenario.node[23].veinsmobility  posy  ETV
vector 41784  IntersectionExampleScenario.node[23].veinsmobility  speed  ETV
vector 41785  IntersectionExampleScenario.node[23].veinsmobility  acceleration  ETV
vector 41786  IntersectionExampleScenario.node[23].veinsmobility  co2emission  ETV
41709	85633 5041 2196 6586 59.5 98.5 157 0.973 11.648172402475 489.93848290835 2630.9394071346
41708	90674 4608 2196 6586 59.5 98.5 157 -3.2447280883789 2.5 38.341367721558 231.96890981277
41707	95282 4932 2175 6586 59.25 98.5 158 5.6500000953674 15.64999961853 2204.4889039993 31683.154117764
41706	100214 5232 2154 6586 59 98.5 159 237.70812988281 486.85000610352 69056.387145996 30939670.996897
41705	105446 5237 2154 6586 59 98.5 159 483.14999389648 785.82187652588 90941.229881287 53788234.538224
vector 41789  IntersectionExampleScenario.node[24].veinsmobility  posx  ETV
vector 41790  IntersectionExampleScenario.node[24].veinsmobility  posy  ETV
vector 41791  IntersectionExampleScenario.node[24].veinsmobility  speed  ETV
41625	110915 9270 57 6753 13 99.75 348 0.93438186594183 12.26218747632 740.01730842082 3474.4196731903
41624	120185 8225 57 6753 13 99.75 348 -25.491924285889 4 41.057416915894 1061.0188554296
41623	128410 8386 54 6753 12.75 99.75 349 0 16.5 2185.4175977707 32215.157061312
41622	136796 11393 51 6753 12.5 99.75 350 184.17810058594 483.36395263672 153416.85098267 69433303.425947
41621	148189 11337 51 6753 12.5 99.75 350 486.85000610352 734.55892944336 178336.42515564 91994019.753405
vector 41792  IntersectionExampleScenario.node[24].veinsmobility  acceleration  ETV
vector 41793  IntersectionExampleScenario.node[24].veinsmobility  co2emission  ETV
41646	159695 8292 406 6788 29.25 100 284 0.973 12.553400930962 692.78072586209 3611.7228396028
41645	167987 8512 406 6788 29.25 100 284 -3.8439748287201 2.5 44.112981796265 383.3576141274
41644	176499 8573 397 6788 29 100 285 0 16.89999961853 2208.4720199686 31467.511642401
41643	185072 9356 388 6788 28.75 100 286 184.17810058594 731.00675964355 129378.52830505 62413195.674183
41642	194428 9389 388 6788 28.75 100 286 486.85000610352 486.85000610352 139239.10174561 67788557.534696
vector 41796  IntersectionExampleScenario.node[25].veinsmobility  posx  ETV
vector 41797  IntersectionExampleScenario.node[25].veinsmobility  posy  ETV
vector 41798  IntersectionExampleScenario.node[25].veinsmobility  speed  ETV
vector 41799  IntersectionExampleScenario.node[25].veinsmobility  acceleration  ETV
vector 41800  IntersectionExampleScenario.node[25].veinsmobility  co2emission  ETV
41653	204218 9199 428 7503 29.75 105.5 304 0.973 11.025629246417 649.43840453837 2646.850007122
41652	213417 9731 428 7503 29.75 105.5 304 -4.426685333252 2.5 34.267293930054 357.6426062338
41651	223148 9641 417 7503 29.5 105.5 305 0 14.779200553894 2282.6975684706 27864.077202872
41650	232789 10039 406 7503 29.25 105.5 306 160.43438720703 483.14999389648 126559.26828003 54929616.910608
41649	242828 10066 406 7503 29.25 105.5 306 486.85000610352 734.66352844238 157820.48487854 82600125.467435
41667	252894 8587 769 7564 36.5 106 279 0.973 11.54047740176 644.68150030964 2835.6477239197
41666	261481 8779 769 7564 36.5 106 279 -4.5 2.5000009536743 38.511121749878 395.04285063037
41665	270260 9023 754 7564 36.25 106 280 0 15.5 2223.8954437934 29379.864577807
41664	279283 9235 739 7564 36 106 281 184.17810058594 734.76832580566 125754.3216095 60482094.421708
41663	288518 9276 739 7564 36 106 281 486.85000610352 486.85000610352 136804.85171509 66603442.892481
vector 41803  IntersectionExampleScenario.node[26].veinsmobility  posx  ETV
vector 41804  IntersectionExampleScenario.node[26].veinsmobility  posy  ETV
vector 41805  IntersectionExampleScenario.node[26].veinsmobility  speed  ETV
vector 41806  IntersectionExampleScenario.node[26].veinsmobility  acceleration  ETV
vector 41807  IntersectionExampleScenario.node[26].veinsmobility  co2emission  ETV
vector 41810  IntersectionExampleScenario.node[27].veinsmobility  posx  ETV
vector 41811  IntersectionExampleScenario.node[27].veinsmobility  posy  ETV
vector 41812  IntersectionExampleScenario.node[27].veinsmobility  speed  ETV
vector 41813  IntersectionExampleScenario.node[27].veinsmobility  acceleration  ETV
vector 41814  IntersectionExampleScenario.node[27].veinsmobility  co2emission  ETV
vector 41817  IntersectionExampleScenario.node[28].veinsmobility  posx  ETV
vector 41818  IntersectionExampleScenario.node[28].veinsmobility  posy  ETV
vector 41819  IntersectionExampleScenario.node[28].veinsmobility  speed  ETV
vector 41820  IntersectionExampleScenario.node[28].veinsmobility  acceleration  ETV
vector 41821  IntersectionExampleScenario.node[28].veinsmobility  co2emission  ETV
vector 41824  IntersectionExampleScenario.node[29].veinsmobility  posx  ETV
vector 41825  IntersectionExampleScenario.node[29].veinsmobility  posy  ETV
vector 41826  IntersectionExampleScenario.node[29].veinsmobility  speed  ETV
vector 41827  IntersectionExampleScenario.node[29].veinsmobility  acceleration  ETV
vector 41828  IntersectionExampleScenario.node[29].veinsmobility  co2emission  ETV
41674	299398 7769 1343 8698 47.25 115.75 275 0.973 12.099024792222 660.14357379842 3297.40075463
41673	307167 7140 1343 8698 47.25 115.75 275 -7.8777370452881 4 40.038900375366 513.03967753048
41672	314307 7329 1326 8698 47 115.75 276 0 16.27499961853 2205.5867056847 32071.417647521
41671	321636 9206 1311 8698 46.75 115.75 277 483.14999389648 483.14999389648 133832.54830933 64661194.898802
41670	330842 9179 1311 8698 46.75 115.75 277 184.17810058594 731.70051574707 126903.67785645 62202675.353999
41681	340021 7936 1360 8835 47.5 116.75 278 0.93438186594183 12.26218747632 674.34190027854 3350.4891259084
41680	347957 7172 1360 8835 47.5 116.75 278 -4.5 2.5 41.057416915894 501.91413325604
41679	355129 7446 1343 8835 47.25 116.75 279 0 16.5 2273.9343541861 32747.785066987
41678	362575 9295 1326 8835 47 116.75 280 238.859375 483.14999389648 127552.7293396 59145855.252183
41677	371870 9290 1326 8835 47 116.75 280 159.76721191406 483.2119140625 117426.32061768 51816382.880456
vector 41831  IntersectionExampleScenario.node[30].veinsmobility  posx  ETV
vector 41832  IntersectionExampleScenario.node[30].veinsmobility  posy  ETV
vector 41833  IntersectionExampleScenario.node[30].veinsmobility  speed  ETV
vector 41834  IntersectionExampleScenario.node[30].veinsmobility  acceleration  ETV
vector 41835  IntersectionExampleScenario.node[30].veinsmobility  co2emission  ETV
vector 41838  IntersectionExampleScenario.node[31].veinsmobility  posx  ETV
vector 41839  IntersectionExampleScenario.node[31].veinsmobility  posy  ETV
vector 41840  IntersectionExampleScenario.node[31].veinsmobility  speed  ETV
vector 41845  IntersectionExampleScenario.node[32].veinsmobility  posx  ETV
vector 41846  IntersectionExampleScenario.node[32].veinsmobility  posy  ETV
vector 41841  IntersectionExampleScenario.node[31].veinsmobility  acceleration  ETV
vector 41842  IntersectionExampleScenario.node[31].veinsmobility  co2emission  ETV
vector 41847  IntersectionExampleScenario.node[32].veinsmobility  speed  ETV
vector 41852  IntersectionExampleScenario.node[33].veinsmobility  posx  ETV
vector 41853  IntersectionExampleScenario.node[33].veinsmobility  posy  ETV
vector 41848  IntersectionExampleScenario.node[32].veinsmobility  acceleration  ETV
vector 41849  IntersectionExampleScenario.node[32].veinsmobility  co2emission  ETV
vector 41854  IntersectionExampleScenario.node[33].veinsmobility  speed  ETV
vector 41855  IntersectionExampleScenario.node[33].veinsmobility  acceleration  ETV
vector 41856  IntersectionExampleScenario.node[33].veinsmobility  co2emission  ETV
41688	382764 8518 1607 9432 51.5 120.75 278 0.973 11.00486315618 616.74312631572 2610.2887448687
41687	391282 8859 1607 9432 51.5 120.75 278 -3.7675857543945 2.5 34.267293930054 317.8634479801
41686	400141 8942 1590 9432 51.25 120.75 279 0 14.75 2286.4464635858 28898.519829316
41685	409083 9313 1573 9432 51 120.75 280 483.14999389648 733.37756347656 144272.48590088 75550571.964428
41684	418396 9286 1573 9432 51 120.75 280 164.42694091797 486.85000610352 116346.13641357 50800851.808418
41702	427682 8074 1964 9580 56.5 121.75 262 0.973 11.54047740176 630.25376050243 2827.3973721269
41701	435756 8409 1964 9580 56.5 121.75 262 -4.5 2.5000019073486 38.341367721558 387.66739066397
41700	444165 8530 1945 9580 56.25 121.75 263 0 15.5 2253.0724923406 29541.659090209
41699	452695 8800 1926 9580 56 121.75 264 483.14999389648 483.14999389648 127551.59838867 61626553.982973
41698	461495 8764 1926 9580 56 121.75 264 175.26574707031 733.54293823242 117225.23864746 56438954.780815
vector 41859  IntersectionExampleScenario.node[34].veinsmobility  posx  ETV
vector 41860  IntersectionExampleScenario.node[34].veinsmobility  posy  ETV
vector 41861  IntersectionExampleScenario.node[34].veinsmobility  speed  ETV
vector 41862  IntersectionExampleScenario.node[34].veinsmobility  acceleration  ETV
vector 41863  IntersectionExampleScenario.node[34].veinsmobility  co2emission  ETV
41723	470660 6568 3255 10173 71.5 125.75 218 0.973 11.00486315618 553.51967760106 2614.1011432399
41722	477228 6942 3255 10173 71.5 125.75 218 -3.7440299987793 2.5 34.437047958374 322.74414561523
41721	484170 7035 3230 10173 71.25 125.75 219 0 14.75 2211.9934909046 27419.972859376
41720	491205 7365 3205 10173 71 125.75 220 483.14999389648 734.02403259277 115304.83377075 61572410.122138
41719	498570 7339 3205 10173 71 125.75 220 184.17810058594 486.85000610352 89655.407348633 38447760.142111
vector 41866  IntersectionExampleScenario.node[35].veinsmobility  posx  ETV
vector 41867  IntersectionExampleScenario.node[35].veinsmobility  posy  ETV
vector 41868  IntersectionExampleScenario.node[35].veinsmobility  speed  ETV
vector 41869  IntersectionExampleScenario.node[35].veinsmobility  acceleration  ETV
vector 41870  IntersectionExampleScenario.node[35].veinsmobility  co2emission  ETV
41695	506310 8892 1747 11147 53.5 132.25 316 0.97223939240464 11.648172402475 685.98084855492 3053.0044269596
41694	515202 7882 1747 11147 53.5 132.25 316 -7.1630640029907 4 38.680875778198 471.71258299252
41693	523084 8248 1728 11147 53.25 132.25 317 0 15.64999961853 2204.4856579304 31271.545429211
41692	531332 10644 1709 11147 53 132.25 318 483.14999389648 785.82187652588 170195.70667267 93287865.115473
41691	541976 10648 1709 11147 53 132.25 318 483.14999389648 733.78205871582 162044.65606689 83754772.528322
vector 41873  IntersectionExampleScenario.node[36].veinsmobility  posx  ETV
vector 41874  IntersectionExampleScenario.node[36].veinsmobility  posy  ETV
vector 41875  IntersectionExampleScenario.node[36].veinsmobility  speed  ETV
vector 41876  IntersectionExampleScenario.node[36].veinsmobility  acceleration  ETV
vector 41877  IntersectionExampleScenario.node[36].veinsmobility  co2emission  ETV
41751	553025 7020 4071 11642 79 135.5 227 0.973 11.200708441096 564.56817599194 2621.9896193106
41750	560045 7337 4071 11642 79 135.5 227 -3.7010400295258 2.5 35.625318527222 310.01921471168
41749	567382 7528 4038 11642 78.75 135.5 228 0 15.02499961853 2202.4690998513 28250.00321654
41748	574910 7726 4005 11642 78.5 135.5 229 483.11456298828 785.82187652588 127190.55916595 72625430.231075
41747	582636 7733 4005 11642 78.5 135.5 229 483.14999389648 732.33952331543 119359.2364502 63329950.260497
41765	590369 6374 4799 11790 84.5 136.5 209 0.94495809607398 12.104396528356 608.58675679467 3177.1059919911
41764	596743 6825 4799 11790 84.5 136.5 209 -4.5 2.5 42.529668807983 369.25445684501
41763	603568 6878 4766 11790 84.25 136.5 210 1.1311285495758 16.383434295654 2200.3619632721 29400.837528344
41762	610446 7137 4733 11790 84 136.5 211 483.12564086914 785.82187652588 118227.3554306 68093671.723253
41761	617583 7152 4733 11790 84 136.5 211 483.14999389648 731.4679107666 110115.05979919 58506806.811849
41786	624735 5198 6454 11966 97.5 137.75 162 0.973 12.099024792222 550.06236331538 3378.8150246446
41785	629933 4998 6454 11966 97.5 137.75 162 -3.7615013122559 2.5 41.057416915894 305.74888367963
41784	634931 5348 6421 11966 97.25 137.75 163 5.6500000953674 16.27499961853 2209.9665298462 31272.419987763
41783	640279 5592 6388 11966 97 137.75 164 238.43920898438 785.82187652588 86236.893440247 49348021.645444
41782	645871 5617 6388 11966 97 137.75 164 483.14999389648 483.14999389648 79236.598999023 38283162.322756
vector 41880  IntersectionExampleScenario.node[37].veinsmobility  posx  ETV
vector 41881  IntersectionExampleScenario.node[37].veinsmobility  posy  ETV
vector 41882  IntersectionExampleScenario.node[37].veinsmobility  speed  ETV
vector 41883  IntersectionExampleScenario.node[37].veinsmobility  acceleration  ETV
vector 41884  IntersectionExampleScenario.node[37].veinsmobility  co2emission  ETV
vector 41887  IntersectionExampleScenario.node[38].veinsmobility  posx  ETV
vector 41888  IntersectionExampleScenario.node[38].veinsmobility  posy  ETV
vector 41889  IntersectionExampleScenario.node[38].veinsmobility  speed  ETV
vector 41894  IntersectionExampleScenario.node[39].veinsmobility  posx  ETV
vector 41895  IntersectionExampleScenario.node[39].veinsmobility  posy  ETV
vector 41890  IntersectionExampleScenario.node[38].veinsmobility  acceleration  ETV
vector 41891  IntersectionExampleScenario.node[38].veinsmobility  co2emission  ETV
vector 41896  IntersectionExampleScenario.node[39].veinsmobility  speed  ETV
vector 41897  IntersectionExampleScenario.node[39].veinsmobility  acceleration  ETV
vector 41898  IntersectionExampleScenario.node[39].veinsmobility  co2emission  ETV
vector 41901  IntersectionExampleScenario.node[40].veinsmobility  posx  ETV
vector 41902  IntersectionExampleScenario.node[40].veinsmobility  posy  ETV
vector 41903  IntersectionExampleScenario.node[40].veinsmobility  speed  ETV
vector 41904  IntersectionExampleScenario.node[40].veinsmobility  acceleration  ETV
vector 41905  IntersectionExampleScenario.node[40].veinsmobility  co2emission  ETV
41716	653092 9266 2768 13339 66.25 148 328 0.973 11.90022389248 707.84540992329 3225.6179146542
41715	662358 8289 2768 13339 66.25 148 328 -7.2641291618347 4 39.699392318726 488.74806203163
41714	670647 8589 2745 13339 66 148 329 0 16 2217.2994669676 32035.832177997
41713	679236 11176 2722 13339 65.75 148 330 486.85000610352 486.85000610352 160660.50201416 78217566.386188
41712	690412 11165 2722 13339 65.75 148 330 235.46020507812 785.82187652588 168048.60211945 89725621.328808
41730	701577 9180 3684 13663 75.75 150.5 300 0.973 11.200708441096 654.58350691982 2836.1471895007
41729	710757 9656 3684 13663 75.75 150.5 300 -3.713475227356 2.5 37.32285118103 323.55907134285
41728	720413 9623 3657 13663 75.5 150.5 301 0 15.35768699646 2215.8301351713 29197.899924093
41727	730036 10274 3630 13663 75.25 150.5 302 486.85000610352 486.85000610352 147028.70184326 71580924.389784
41726	740310 10241 3630 13663 75.25 150.5 302 236.5087890625 785.82187652588 155650.89012909 84450589.042125
vector 41908  IntersectionExampleScenario.node[41].veinsmobility  posx  ETV
vector 41909  IntersectionExampleScenario.node[41].veinsmobility  posy  ETV
vector 41910  IntersectionExampleScenario.node[41].veinsmobility  speed  ETV
vector 41911  IntersectionExampleScenario.node[41].veinsmobility  acceleration  ETV
vector 41912  IntersectionExampleScenario.node[41].veinsmobility  co2emission  ETV
41737	750952 9725 3742 13941 76.25 152.75 307 0.973 10.96743208541 682.78145554971 2857.209477674
41736	760677 10325 3742 13941 76.25 152.75 307 -4.5 2.5000009536743 36.98334312439 422.66024909928
41735	771002 10296 3713 13941 76 152.75 308 0 15.306635856628 2306.0884268805 29688.275727532
41734	781298 10523 3684 13941 75.75 152.75 309 486.85000610352 486.85000610352 150436.65188599 73240084.888885
41733	791821 10493 3684 13941 75.75 152.75 309 237.88189697266 809.56562805176 162983.91466522 90815617.186097
vector 41915  IntersectionExampleScenario.node[42].veinsmobility  posx  ETV
vector 41916  IntersectionExampleScenario.node[42].veinsmobility  posy  ETV
vector 41917  IntersectionExampleScenario.node[42].veinsmobility  speed  ETV
vector 41918  IntersectionExampleScenario.node[42].veinsmobility  acceleration  ETV
vector 41919  IntersectionExampleScenario.node[42].veinsmobility  co2emission  ETV
41744	802715 10024 4038 14335 78.75 156 310 0.973 11.36141391502 699.02604947849 3033.998997271
41743	812739 10179 4038 14335 78.75 156 310 -4.5 2.5 37.15309715271 489.58946817739
41742	822918 10279 4005 14335 78.5 156 311 0 15.25 2297.1716972068 29392.717114211
41741	833197 10637 3974 14335 78.25 156 312 486.85000610352 733.86808776855 160286.11936951 83497051.142472
41740	843834 10622 3974 14335 78.25 156 312 486.8166809082 813.32373809814 173726.72476959 99224659.938792
41772	854456 9086 5151 14614 87.25 158.25 285 0.973 11.450879080643 657.06420497021 3073.6892009896
41771	863542 9313 5151 14614 87.25 158.25 285 -4.5 2.5 36.813589096069 457.38790302684
41770	872855 9494 5118 14614 87 158.25 286 0 15.375 2204.7093849685 27981.184340208
41769	882349 9836 5085 14614 86.75 158.25 287 238.22888183594 486.85000610352 131209.70721436 61144906.018494
41768	892185 9817 5085 14614 86.75 158.25 287 483.14999389648 785.82187652588 159026.11487579 90072058.21233
vector 41922  IntersectionExampleScenario.node[43].veinsmobility  posx  ETV
vector 41923  IntersectionExampleScenario.node[43].veinsmobility  posy  ETV
vector 41924  IntersectionExampleScenario.node[43].veinsmobility  speed  ETV
vector 41925  IntersectionExampleScenario.node[43].veinsmobility  acceleration  ETV
vector 41926  IntersectionExampleScenario.node[43].veinsmobility  co2emission  ETV
41793	902403 7720 6788 14930 100 160.75 244 0.973 11.648172402475 629.41506995609 3175.5907037316
41792	910123 7881 6788 14930 100 160.75 244 -4.3485107421875 2.5000019073486 38.341367721558 418.01660365493
41791	918004 8146 6753 14930 99.75 160.75 245 0 15.64999961853 2185.7974969707 27939.721699188
41790	926150 8499 6718 14930 99.5 160.75 246 486.85000610352 733.3081817627 127965.42861938 67634965.431273
41789	934649 8497 6718 14930 99.5 160.75 246 486.81451416016 785.82187652588 138060.01064301 79304682.956781
41800	943146 7541 6957 15095 101.25 162 244 0.973 11.648172402475 646.02419988749 3279.2738456909
41799	950687 7423 6957 15095 101.25 162 244 -4.5 2.5000019073486 39.869146347046 461.85311348226
41798	958110 7702 6924 15095 101 162 245 0 15.657984733582 2294.6727915406 30617.022744568
41797	965812 8507 6890 15095 100.75 162 246 236.93988037109 486.85000610352 111553.91113281 51678156.908491
41796	974319 8507 6890 15095 100.75 162 246 483.14797973633 807.09531402588 139713.00240326 81527801.044102
vector 41929  IntersectionExampleScenario.node[44].veinsmobility  posx  ETV
vector 41930  IntersectionExampleScenario.node[44].veinsmobility  posy  ETV
vector 41931  IntersectionExampleScenario.node[44].veinsmobility  speed  ETV
vector 41932  IntersectionExampleScenario.node[44].veinsmobility  acceleration  ETV
vector 41933  IntersectionExampleScenario.node[44].veinsmobility  co2emission  ETV
41758	983227 9343 4504 15362 82.25 164 328 0.973 12.099024792222 712.53784616319 3256.8699011996
41757	992570 8267 4504 15362 82.25 164 328 -7.8777389526367 4 40.038900375366 506.85292962587
41756	1000837 8714 4469 15362 82 164 329 0 16.27499961853 2219.4680054188 32260.750761104
41755	1009551 11277 4434 15362 81.75 164 330 184.17810058594 735.19641113281 152140.64845276 74281207.572296
41754	1020828 11304 4434 15362 81.75 164 330 486.85000610352 486.85000610352 160660.50201416 78217566.386188
41779	1032132 9445 5221 15527 87.75 165.25 311 0.973 11.90022389248 684.6958616517 3156.6175827529
41778	1041577 9527 5221 15527 87.75 165.25 311 -3.6724753379822 2.5 39.869146347046 368.39931870154
41777	1051104 9459 5186 15527 87.5 165.25 312 0 16 2206.8121298673 30474.379931153
41776	1060563 10723 5151 15527 87.25 165.25 313 184.17810058594 486.86566162109 134673.55926514 60039236.309225
41775	1071286 10747 5151 15527 87.25 165.25 313 237.08081054688 486.85000610352 144190.06564331 67572731.025647
vector 41936  IntersectionExampleScenario.node[45].veinsmobility  posx  ETV
vector 41937  IntersectionExampleScenario.node[45].veinsmobility  posy  ETV
41807	1082187 7209 8318 15999 112.75 169 226 0.973 10.916047529558 559.13596396846 2549.8333724537
41806	1089396 7395 8318 15999 112.75 169 226 -3.8227381706238 2.5 34.77654838562 322.85180029326
41805	1096791 7557 8289 15999 112.5 169 227 0 14.625 2183.3679950684 27280.451766847
41804	1104348 7901 8260 15999 112.25 169 228 184.17810058594 483.18362426758 93722.759216309 40451387.433834
41803	1112249 7922 8260 15999 112.25 169 228 486.85000610352 732.91354370117 119653.32852173 63881894.782346
vector 41938  IntersectionExampleScenario.node[45].veinsmobility  speed  ETV
vector 41939  IntersectionExampleScenario.node[45].veinsmobility  acceleration  ETV
vector 41940  IntersectionExampleScenario.node[45].veinsmobility  co2emission  ETV
41835	1120418 6827 8938 16197 117.5 170.5 213 0.973 10.916047529558 574.74787606889 2673.3535317337
41834	1127245 7212 8938 16197 117.5 170.5 213 -4.5 2.5 39.164861679077 348.58396703671
41833	1134457 7157 8903 16197 117.25 170.5 214 1.2320263385773 15.610942840576 2187.6307471991 28214.740403898
41832	1141614 7468 8868 16197 117 170.5 215 184.17810058594 483.14999389648 87466.684875488 37409078.800812
41831	1149082 7485 8868 16197 117 170.5 215 486.85000610352 733.86753845215 112847.14398193 60258837.147831
vector 41943  IntersectionExampleScenario.node[46].veinsmobility  posx  ETV
vector 41944  IntersectionExampleScenario.node[46].veinsmobility  posy  ETV
vector 41945  IntersectionExampleScenario.node[46].veinsmobility  speed  ETV
vector 41946  IntersectionExampleScenario.node[46].veinsmobility  acceleration  ETV
vector 41947  IntersectionExampleScenario.node[46].veinsmobility  co2emission  ETV
vector 41950  IntersectionExampleScenario.node[47].veinsmobility  posx  ETV
vector 41951  IntersectionExampleScenario.node[47].veinsmobility  posy  ETV
vector 41952  IntersectionExampleScenario.node[47].veinsmobility  speed  ETV
vector 41953  IntersectionExampleScenario.node[47].veinsmobility  acceleration  ETV
vector 41954  IntersectionExampleScenario.node[47].veinsmobility  co2emission  ETV
41814	1157369 8186 8467 17721 114 181 269 0.973 11.200708441096 613.9893390446 2702.9529217063
41813	1165555 7352 8467 17721 114 181 269 -7.2451009750366 4 35.455564498901 448.19107443402
41812	1172907 7756 8436 17721 113.75 181 270 0 15.02499961853 2181.8694725037 29453.478786619
41811	1180663 9375 8405 17721 113.5 181 271 235.55383300781 483.14999389648 122274.50024414 56319949.088894
41810	1190038 9409 8405 17721 113.5 181 271 184.17810058594 483.36395263672 115461.37792969 51323793.689028
41856	1199447 8355 9237 17986 119.5 183 255 0.973 11.200708441096 610.93745828208 2716.8828707913
41855	1207802 8457 9237 17986 119.5 183 255 -3.9548857212067 2.5 37.492597579956 338.6033947358
41854	1216259 8637 9198 17986 119.25 183 256 0 15.039185523987 2192.4429056682 29337.049113729
41853	1224896 8961 9159 17986 119 183 257 234.99566650391 483.14999389648 115737.98617554 53234569.970985
41852	1233857 8930 9159 17986 119 183 257 184.17810058594 483.30020141602 108263.39434814 47620283.896189
vector 41957  IntersectionExampleScenario.node[48].veinsmobility  posx  ETV
vector 41958  IntersectionExampleScenario.node[48].veinsmobility  posy  ETV
vector 41959  IntersectionExampleScenario.node[48].veinsmobility  speed  ETV
vector 41960  IntersectionExampleScenario.node[48].veinsmobility  acceleration  ETV
vector 41961  IntersectionExampleScenario.node[48].veinsmobility  co2emission  ETV
41828	1243188 9365 8698 19419 115.75 195.5 320 0.973 12.099024792222 711.15164310478 3369.1922690884
41827	1252553 8409 8698 19419 115.75 195.5 320 -6.9978852272034 4 41.227170944214 492.65880119239
41826	1260962 8704 8663 19419 115.5 195.5 321 0 16.27499961853 2205.6507912874 32465.664712985
41825	1269666 11218 8628 19419 115.25 195.5 322 238.59759521484 785.82187652588 164277.14588165 87829317.006042
41824	1280884 11233 8628 19419 115.25 195.5 322 483.14999389648 483.14999389648 155574.29803467 75165721.1459
41842	1292117 9926 9082 19645 118.5 198 319 0.973 11.36141391502 679.44315123542 2894.205180273
41841	1302043 9577 9082 19645 118.5 198 319 -4.0037384033203 2.5 37.492597579956 374.11243461756
41840	1311620 9775 9045 19645 118.25 198 320 0 15.25 2244.9264640324 30424.313913519
41839	1321395 11187 9008 19645 118 198 321 486.85000610352 800.04531860352 174465.57847595 97218393.238399
41838	1332582 11184 9008 19645 118 198 321 235.78131103516 483.14999389648 146728.6366272 68227392.718279
41870	1343766 8797 10991 19771 131.25 199.5 274 0.973 12.099024792222 658.69171729846 3172.5212674906
41869	1352563 9356 10991 19771 131.25 199.5 274 -3.7198944091797 2.5 41.396924972534 348.22307717238
41868	1361919 9220 10952 19771 131 199.5 275 0 16.27499961853 2189.3184153112 29534.737644716
41867	1371139 9647 10913 19771 130.75 199.5 276 486.85000610352 785.82187652588 151467.18901825 85059526.393301
41866	1380786 9658 10913 19771 130.75 199.5 276 236.09942626953 483.14999389648 125467.3671875 58101972.110588
vector 41964  IntersectionExampleScenario.node[49].veinsmobility  posx  ETV
vector 41965  IntersectionExampleScenario.node[49].veinsmobility  posy  ETV
vector 41966  IntersectionExampleScenario.node[49].veinsmobility  speed  ETV
vector 41967  IntersectionExampleScenario.node[49].veinsmobility  acceleration  ETV
vector 41968  IntersectionExampleScenario.node[49].veinsmobility  co2emission  ETV
41877	1390845 9136 11300 20026 133.25 202.75 279 0.973 11.648172402475 653.1487469123 2993.5737435075
41876	1399981 9290 11300 20026 133.25 202.75 279 -4.5 2.5 38.341367721558 400.0435413489
41875	1409271 9447 11261 20026 133 202.75 280 0 15.64999961853 2259.4676639102 29315.183510328
41874	1418718 9816 11222 20026 132.75 202.75 281 486.85000610352 803.92188262939 156593.57514191 89512007.580525
41873	1428534 9835 11222 20026 132.75 202.75 281 236.11029052734 483.14999389648 127523.2086792 58982964.756401
41905	1438369 7535 13094 20209 146.25 205.25 237 0.973 11.648172402475 591.32894969616 2912.3481129674
41904	1445904 7810 13094 20209 146.25 205.25 237 -3.7911281585693 2.5 38.341367721558 327.66616803596
41903	1453714 7993 13058 20209 146 205.25 238 0 15.64999961853 2187.6090163365 28065.468866555
41902	1461707 8354 13021 20209 145.75 205.25 239 486.8166809082 785.82187652588 133775.82826996 76724048.768769
41901	1470061 8346 13021 20209 145.75 205.25 239 236.24267578125 483.14999389648 107240.23239136 49185571.62132
41912	1478407 7131 13879 20323 152.25 207 220 0.973 11.648172402475 586.44237143584 2953.8212074297
41911	1485538 7373 13879 20323 152.25 207 220 -3.7450659275055 2.5 39.869146347046 374.09047799914
41910	1492911 7397 13848 20323 152 207 221 0 15.666422843933 2177.6492226925 28760.72609728
41909	1500308 7758 13817 20323 151.75 207 222 486.85000610352 785.82187652588 124904.35883331 72070969.400417
41908	1508066 7763 13817 20323 151.75 207 222 238.93933105469 483.14999389648 99381.334533691 45485789.469138
vector 41971  IntersectionExampleScenario.node[50].veinsmobility  posx  ETV
vector 41972  IntersectionExampleScenario.node[50].veinsmobility  posy  ETV
41919	1515983 6961 14273 20443 155.5 209 215 0.973 11.093806525473 587.67416828818 2838.4312571086
41918	1522944 6720 14273 20443 155.5 209 215 -4.4642143249512 2.5 36.813589096069 447.49139555592
41917	1529664 7142 14242 20443 155.25 209 216 0 14.875 2268.5248343349 30187.763230113
41916	1536806 7574 14211 20443 155 209 217 235.27032470703 797.07032012939 114977.0639801 65459871.366609
41915	1544380 7593 14211 20443 155 209 217 483.14999389648 483.14999389648 104843.54867554 50655159.902671
vector 41973  IntersectionExampleScenario.node[50].veinsmobility  speed  ETV
vector 41974  IntersectionExampleScenario.node[50].veinsmobility  acceleration  ETV
vector 41975  IntersectionExampleScenario.node[50].veinsmobility  co2emission  ETV
vector 41978  IntersectionExampleScenario.node[51].veinsmobility  posx  ETV
vector 41979  IntersectionExampleScenario.node[51].veinsmobility  posy  ETV
vector 41980  IntersectionExampleScenario.node[51].veinsmobility  speed  ETV
vector 41981  IntersectionExampleScenario.node[51].veinsmobility  acceleration  ETV
vector 41982  IntersectionExampleScenario.node[51].veinsmobility  co2emission  ETV
41821	1552621 11126 8595 20675 115 212.25 390 0.973 11.810082123732 808.2020117688 3689.3022620062
41820	1563747 10529 8595 20675 115 212.25 390 -11.043430328369 4 38.511121749878 717.21669670648
41819	1574276 10708 8562 20675 114.75 212.25 391 0 15.875 2182.2351031303 27735.001527834
41818	1584984 13606 8529 20675 114.5 212.25 392 486.85000610352 734.25172424316 199073.39610291 102278367.58864
41817	1598590 13668 8529 20675 114.5 212.25 392 486.63604736328 785.82187652588 209758.51052094 114502539.45948
41849	1612258 10744 9159 20692 119 212.5 375 0.973 11.990504229548 791.24470328722 3569.2440773192
41848	1623002 10015 9159 20692 119 212.5 375 -4.5 2.5 41.396924972534 560.65746113456
41847	1633017 10307 9121 20692 118.75 212.5 376 0 16.125 2229.7012532949 29949.890516502
41846	1643324 13170 9082 20692 118.5 212.5 377 486.85000610352 486.85000610352 183542.45230103 89357644.023009
41845	1656494 13158 9082 20692 118.5 212.5 377 239.14221191406 792.02188110352 195408.21183777 105486541.45214
41863	1669652 11155 9766 20864 123 215.25 370 0.973 11.54047740176 736.0747005888 3050.9293898261
41862	1680807 11356 9766 20864 123 215.25 370 -4.5 2.5000009536743 38.680875778198 378.89858913081
41861	1692163 11472 9729 20864 122.75 215.25 371 0 15.5 2246.5530781746 28587.350263646
41860	1703635 13011 9691 20864 122.5 215.25 372 486.85000610352 486.85000610352 181108.20227051 88172529.380794
41859	1716646 12887 9691 20864 122.5 215.25 372 238.13195800781 795.12188720703 194226.78876495 105835711.42451
vector 41985  IntersectionExampleScenario.node[52].veinsmobility  posx  ETV
vector 41986  IntersectionExampleScenario.node[52].veinsmobility  posy  ETV
vector 41987  IntersectionExampleScenario.node[52].veinsmobility  speed  ETV
vector 41988  IntersectionExampleScenario.node[52].veinsmobility  acceleration  ETV
vector 41989  IntersectionExampleScenario.node[52].veinsmobility  co2emission  ETV
41884	1729934 9421 12819 21029 144.25 218 296 0.973 11.810082123732 680.63089279882 3228.4137610123
41883	1739355 9821 12819 21029 144.25 218 296 -4.1314296722412 2.5 39.869146347046 389.08910524532
41882	1749176 9751 12787 21029 144 218 297 0 15.875 2179.3802257646 28740.183636905
41881	1758927 10419 12754 21029 143.75 218 298 486.85000610352 731.50263977051 152980.42771912 79606631.090838
41880	1769346 10397 12754 21029 143.75 218 298 486.85000610352 785.82187652588 163696.96501923 91853938.824493
vector 41992  IntersectionExampleScenario.node[53].veinsmobility  posx  ETV
vector 41993  IntersectionExampleScenario.node[53].veinsmobility  posy  ETV
vector 41994  IntersectionExampleScenario.node[53].veinsmobility  speed  ETV
vector 41995  IntersectionExampleScenario.node[53].veinsmobility  acceleration  ETV
vector 41996  IntersectionExampleScenario.node[53].veinsmobility  co2emission  ETV
vector 41999  IntersectionExampleScenario.node[54].veinsmobility  posx  ETV
vector 42000  IntersectionExampleScenario.node[54].veinsmobility  posy  ETV
vector 42001  IntersectionExampleScenario.node[54].veinsmobility  speed  ETV
vector 42002  IntersectionExampleScenario.node[54].veinsmobility  acceleration  ETV
vector 42003  IntersectionExampleScenario.node[54].veinsmobility  co2emission  ETV
vector 42006  IntersectionExampleScenario.node[55].veinsmobility  posx  ETV
vector 42007  IntersectionExampleScenario.node[55].veinsmobility  posy  ETV
vector 42008  IntersectionExampleScenario.node[55].veinsmobility  speed  ETV
vector 42009  IntersectionExampleScenario.node[55].veinsmobility  acceleration  ETV
vector 42010  IntersectionExampleScenario.node[55].veinsmobility  co2emission  ETV
41891	1780946 10014 12916 21216 145 221 305 0.973 11.810082123732 691.47933289856 3107.345929435
41890	1790960 10385 12916 21216 145 221 305 -4.5 2.5 38.511121749878 443.37089377626
41889	1801345 10342 12883 21216 144.75 221 306 0 15.875 2285.4859840441 29664.891496932
41888	1811687 10743 12850 21216 144.5 221 307 486.85000610352 735.36824035645 157770.94883728 82227582.407928
41887	1822430 10718 12850 21216 144.5 221 307 486.83627319336 808.82032012939 171390.69606018 98034874.549277
41947	1833148 6520 16366 21318 171.75 222.5 204 0.973 11.648172402475 582.40510801338 3078.7554767841
41946	1839668 6591 16366 21318 171.75 222.5 204 -4.1781558990479 2.5 38.511121749878 394.42351548485
41945	1846259 6877 16331 21318 171.5 222.5 205 1.2209146022797 15.64999961853 2211.0574419498 28693.645693381
41944	1853136 7207 16296 21318 171.25 222.5 206 236.64465332031 486.85000610352 91887.578094482 42044324.676448
41943	1860343 7192 16296 21318 171.25 222.5 206 483.14999389648 785.82187652588 116460.43004608 67660892.935912
vector 42013  IntersectionExampleScenario.node[56].veinsmobility  posx  ETV
vector 42014  IntersectionExampleScenario.node[56].veinsmobility  posy  ETV
vector 42015  IntersectionExampleScenario.node[56].veinsmobility  speed  ETV
vector 42016  IntersectionExampleScenario.node[56].veinsmobility  acceleration  ETV
vector 42017  IntersectionExampleScenario.node[56].veinsmobility  co2emission  ETV
41898	1867936 9709 12986 21705 145.5 228 331 0.973 11.810082123732 707.22128010489 3194.2060548495
41897	1877645 8958 12986 21705 145.5 228 331 -6.9611072540283 4 39.699392318726 482.75420554993
41896	1886603 8972 12951 21705 145.25 228 332 0 15.875 2181.2619338036 31239.221315064
41895	1895575 11625 12916 21705 145 228 333 184.17810058594 483.36395263672 145201.02526855 65495238.330603
41894	1907200 11584 12916 21705 145 228 333 486.85000610352 733.87629699707 170183.91285706 88102401.606332
vector 42020  IntersectionExampleScenario.node[57].veinsmobility  posx  ETV
vector 42021  IntersectionExampleScenario.node[57].veinsmobility  posy  ETV
vector 42027  IntersectionExampleScenario.node[58].veinsmobility  posx  ETV
vector 42028  IntersectionExampleScenario.node[58].veinsmobility  posy  ETV
vector 42022  IntersectionExampleScenario.node[57].veinsmobility  speed  ETV
vector 42023  IntersectionExampleScenario.node[57].veinsmobility  acceleration  ETV
vector 42024  IntersectionExampleScenario.node[57].veinsmobility  co2emission  ETV
vector 42029  IntersectionExampleScenario.node[58].veinsmobility  speed  ETV
vector 42030  IntersectionExampleScenario.node[58].veinsmobility  acceleration  ETV
vector 42031  IntersectionExampleScenario.node[58].veinsmobility  co2emission  ETV
41926	1919586 8838 14897 21804 160.5 229.25 276 0.973 11.648172402475 640.61107680127 2989.9356820846
41925	1928424 9275 14897 21804 160.5 229.25 276 -3.9498527050018 2.5 38.511121749878 346.61752053348
41924	1937699 9218 14864 21804 160.25 229.25 277 0 15.64999961853 2214.7377095306 29637.64000163
41923	1946917 9688 14831 21804 160 229.25 278 184.17810058594 733.0005645752 126026.37532043 61286572.208766
41922	1956605 9729 14831 21804 160 229.25 278 486.85000610352 486.85000610352 135344.30169678 65892374.107152
41940	1966334 8017 16065 22014 169.5 231.75 250 0.973 11.648172402475 607.42500706357 2938.1066098823
41939	1974351 8345 16065 22014 169.5 231.75 250 -3.9030423164368 2.5 38.341367721558 335.74950316429
41938	1982696 8567 16032 22014 169.25 231.75 251 0 15.64999961853 2218.9487071224 29134.866545357
41937	1991263 8758 15999 22014 169 231.75 252 184.17810058594 733.98944091797 113198.74201965 55034676.349123
41936	2000021 8820 15999 22014 169 231.75 252 486.85000610352 486.85000610352 122686.20153809 59729777.967634
41954	2008841 7759 16615 22161 173.5 233.5 241 0.973 11.648172402475 603.36388167474 2889.828319003
41953	2016600 8096 16615 22161 173.5 233.5 241 -4.2246170043945 2.5 38.850629806519 359.84562022034
41952	2024696 8281 16578 22161 173.25 233.5 242 0 15.64999961853 2236.578051839 29446.740332337
41951	2032977 8448 16541 22161 173 233.5 243 177.97814941406 731.9496307373 107634.01773071 51926409.434286
41950	2041425 8504 16541 22161 173 233.5 243 486.85000610352 486.85000610352 118304.55148315 57596571.611647
vector 42034  IntersectionExampleScenario.node[59].veinsmobility  posx  ETV
vector 42035  IntersectionExampleScenario.node[59].veinsmobility  posy  ETV
vector 42036  IntersectionExampleScenario.node[59].veinsmobility  speed  ETV
vector 42037  IntersectionExampleScenario.node[59].veinsmobility  acceleration  ETV
vector 42038  IntersectionExampleScenario.node[59].veinsmobility  co2emission  ETV
vector 42041  IntersectionExampleScenario.node[60].veinsmobility  posx  ETV
vector 42042  IntersectionExampleScenario.node[60].veinsmobility  posy  ETV
vector 42043  IntersectionExampleScenario.node[60].veinsmobility  speed  ETV
vector 42044  IntersectionExampleScenario.node[60].veinsmobility  acceleration  ETV
vector 42045  IntersectionExampleScenario.node[60].veinsmobility  co2emission  ETV
41961	2050731 6392 18511 22448 187.25 237 200 0.973 11.450879080643 561.21534541496 2896.1873374247
41960	2057123 6538 18511 22448 187.25 237 200 -4.5 2.5 36.98334312439 381.61311109047
41959	2063661 6741 18480 22448 187 237 201 1.765617609024 15.375 2215.245323658 28350.065871167
41958	2070402 7027 18449 22448 186.75 237 202 184.17810058594 486.88095092773 81701.700073242 34891909.433684
41957	2077429 7042 18449 22448 186.75 237 202 235.12115478516 486.85003662109 89643.246887207 40867601.248397
41933	2084471 9491 15329 23090 163.75 244 322 0.973 11.648172402475 687.14985801418 3040.9898720886
41932	2093962 8534 15329 23090 163.75 244 322 -7.4922709465027 4 38.171613693237 481.23647987725
41931	2102496 8829 15295 23090 163.5 244 323 0 15.64999961853 2182.438724637 30768.03517872
41930	2111325 11330 15260 23090 163.25 244 324 483.14999389648 733.1785736084 164965.24194336 85177869.670349
41929	2122655 11311 15260 23090 163.25 244 324 184.17810058594 486.85000610352 141026.02099609 63593510.485561
vector 42048  IntersectionExampleScenario.node[61].veinsmobility  posx  ETV
vector 42049  IntersectionExampleScenario.node[61].veinsmobility  posy  ETV
vector 42050  IntersectionExampleScenario.node[61].veinsmobility  speed  ETV
vector 42051  IntersectionExampleScenario.node[61].veinsmobility  acceleration  ETV
vector 42052  IntersectionExampleScenario.node[61].veinsmobility  co2emission  ETV
41982	2134367 5453 20566 23601 210.75 250.5 160 0.973 11.450879080643 483.55874724144 2498.9327372035
41981	2139820 4970 20566 23601 210.75 250.5 160 -3.2029228210449 2.5 36.98334312439 225.3128650685
41980	2144790 5350 20547 23601 210.5 250.5 161 5.6500000953674 15.375 2213.4104833603 31255.669943232
41979	2150140 5666 20528 23601 210.25 250.5 162 483.14999389648 734.82073974609 86966.61491394 47679136.177617
41978	2155806 5640 20528 23601 210.25 250.5 162 184.17810058594 486.88031005859 64531.929931641 27504632.485564
vector 42055  IntersectionExampleScenario.node[62].veinsmobility  posx  ETV
vector 42056  IntersectionExampleScenario.node[62].veinsmobility  posy  ETV
vector 42057  IntersectionExampleScenario.node[62].veinsmobility  speed  ETV
vector 42058  IntersectionExampleScenario.node[62].veinsmobility  acceleration  ETV
vector 42059  IntersectionExampleScenario.node[62].veinsmobility  co2emission  ETV
vector 42062  IntersectionExampleScenario.node[63].veinsmobility  posx  ETV
vector 42063  IntersectionExampleScenario.node[63].veinsmobility  posy  ETV
vector 42069  IntersectionExampleScenario.node[64].veinsmobility  posx  ETV
vector 42070  IntersectionExampleScenario.node[64].veinsmobility  posy  ETV
vector 42064  IntersectionExampleScenario.node[63].veinsmobility  speed  ETV
vector 42065  IntersectionExampleScenario.node[63].veinsmobility  acceleration  ETV
vector 42066  IntersectionExampleScenario.node[63].veinsmobility  co2emission  ETV
vector 42071  IntersectionExampleScenario.node[64].veinsmobility  speed  ETV
vector 42072  IntersectionExampleScenario.node[64].veinsmobility  acceleration  ETV
vector 42073  IntersectionExampleScenario.node[64].veinsmobility  co2emission  ETV
41968	2162649 7425 19928 24488 201.5 260.75 238 0.973 11.36141391502 589.45394440044 2798.8980187202
41967	2170074 6974 19928 24488 201.5 260.75 238 -7.1692862510681 4 35.964826583862 469.72648407752
41966	2177048 7105 19907 24488 201.25 260.75 239 0 15.25 2177.050571084 29685.614861377
41965	2184153 8395 19886 24488 201 260.75 240 486.63604736328 785.82187652588 131894.16051483 74537449.19702
41964	2192548 8327 19886 24488 201 260.75 240 236.85040283203 483.14999389648 107465.33270264 49211757.855275
41989	2200875 5881 20925 24534 216.25 261.25 181 0.973 11.648172402475 539.51592406503 2878.9442270773
41988	2206756 5897 20925 24534 216.25 261.25 181 -2.1222877502441 2.5 38.850629806519 295.88277876994
41987	2212653 6181 20910 24534 216 261.25 182 2.6670634746552 15.64999961853 2210.3998627663 30036.129787695
41986	2218834 6384 20894 24534 215.75 261.25 183 238.53411865234 785.82187652588 95740.505317688 54177165.309201
41985	2225218 6405 20894 24534 215.75 261.25 183 483.14999389648 483.14999389648 88416.448883057 42718406.738198
vector 42076  IntersectionExampleScenario.node[65].veinsmobility  posx  ETV
vector 42077  IntersectionExampleScenario.node[65].veinsmobility  posy  ETV
vector 42078  IntersectionExampleScenario.node[65].veinsmobility  speed  ETV
vector 42079  IntersectionExampleScenario.node[65].veinsmobility  acceleration  ETV
vector 42080  IntersectionExampleScenario.node[65].veinsmobility  co2emission  ETV
vector 42083  IntersectionExampleScenario.node[66].veinsmobility  posx  ETV
vector 42084  IntersectionExampleScenario.node[66].veinsmobility  posy  ETV
vector 42085  IntersectionExampleScenario.node[66].veinsmobility  speed  ETV
vector 42086  IntersectionExampleScenario.node[66].veinsmobility  acceleration  ETV
vector 42087  IntersectionExampleScenario.node[66].veinsmobility  co2emission  ETV
vector 42090  IntersectionExampleScenario.node[67].veinsmobility  posx  ETV
vector 42091  IntersectionExampleScenario.node[67].veinsmobility  posy  ETV
vector 42092  IntersectionExampleScenario.node[67].veinsmobility  speed  ETV
vector 42093  IntersectionExampleScenario.node[67].veinsmobility  acceleration  ETV
vector 42094  IntersectionExampleScenario.node[67].veinsmobility  co2emission  ETV
vector 42097  IntersectionExampleScenario.node[68].veinsmobility  posx  ETV
vector 42098  IntersectionExampleScenario.node[68].veinsmobility  posy  ETV
vector 42099  IntersectionExampleScenario.node[68].veinsmobility  speed  ETV
vector 42100  IntersectionExampleScenario.node[68].veinsmobility  acceleration  ETV
vector 42101  IntersectionExampleScenario.node[68].veinsmobility  co2emission  ETV
42031	2233227 5547 21783 25290 229 269.75 164 0.973 11.36141391502 494.36767332019 2585.8876772932
42030	2238774 5222 21783 25290 229 269.75 164 -3.4579658508301 2.5 36.134572982788 269.53427125852
42029	2243996 5447 21762 25290 228.75 269.75 165 5.6500000953674 15.25 2188.876291275 30212.633535526
42028	2249443 5796 21741 25290 228.5 269.75 166 486.85000610352 785.82187652588 94960.185188293 56099715.314936
42027	2255239 5800 21741 25290 228.5 269.75 166 235.37481689453 483.14999389648 71629.266601562 31878679.691959
41975	2261039 8051 20477 25841 209.5 275.75 266 0.973 12.099024792222 662.40870185198 3374.1454579447
41974	2269090 7445 20477 25841 209.5 275.75 266 -7.0116205215454 4 40.548154830933 517.030368365
41973	2276535 7574 20460 25841 209.25 275.75 267 0 16.27499961853 2175.2338197231 31496.888609221
41972	2284109 9308 20443 25841 209 275.75 268 486.85000610352 732.40849304199 138348.66474915 72471012.939423
41971	2293417 9372 20443 25841 209 275.75 268 486.63604736328 785.82187652588 145305.03166962 80849737.07406
41996	2302789 7477 21098 25967 219.25 277.25 233 0.973 11.90022389248 603.19743311092 3067.0992262388
41995	2310266 7887 21098 25967 219.25 277.25 233 -3.6947979927063 2.5 39.699392318726 351.15755912213
41994	2318153 7939 21083 25967 219 277.25 234 0 16 2204.4638220016 29708.517242846
41993	2326092 8211 21068 25967 218.75 277.25 235 237.79748535156 486.85000610352 106242.28424072 49102664.176754
41992	2334303 8214 21068 25967 218.75 277.25 235 482.94537353516 785.82187652588 129898.19806671 73755596.215927
42017	2342517 6731 21611 26162 226.75 279.75 213 0.973 11.54047740176 566.88644076746 2846.5284692169
42016	2349248 6963 21611 26162 226.75 279.75 213 -3.9752917289734 2.5 37.32285118103 345.83773208755
42015	2356211 7280 21592 26162 226.5 279.75 214 0 15.5 2219.9251882881 28681.452379042
42014	2363491 7527 21573 26162 226.25 279.75 215 486.85000610352 486.85000610352 104672.75131226 50959929.615243
42013	2371018 7502 21573 26162 226.25 279.75 215 235.71710205078 785.82187652588 112344.26084137 62950169.207071
42024	2378520 6998 21762 26371 228.75 282.5 216 0.973 11.810082123732 599.01580311433 3062.6594957755
42023	2385518 7106 21762 26371 228.75 282.5 216 -4.5 2.5 38.511121749878 472.24477176592
42022	2392624 7240 21741 26371 228.5 282.5 217 0 15.875 2262.4050072134 29898.780673327
42021	2399864 7619 21722 26371 228.25 282.5 218 486.85000610352 734.16645812988 114353.44859314 61027149.893352
42020	2407483 7607 21722 26371 228.25 282.5 218 486.85000610352 803.92188262939 123768.78049469 72403402.945304
42038	2415090 6147 22358 26447 236 283.5 191 0.973 11.810082123732 581.28104260943 3107.3438922532
42037	2421237 6173 22358 26447 236 283.5 191 -3.066463470459 2.5 42.924703598022 357.67285544559
42036	2427410 6393 22337 26447 235.75 283.5 192 2.2171356678009 16.418863296509 2179.2316589355 29287.17171471
42035	2433803 6750 22316 26447 235.5 283.5 193 486.85000610352 731.61056518555 101534.83488464 54345937.438604
42034	2440553 6744 22316 26447 235.5 283.5 193 486.85000610352 785.82187652588 109502.98723602 63881926.326134
vector 42104  IntersectionExampleScenario.node[69].veinsmobility  posx  ETV
vector 42105  IntersectionExampleScenario.node[69].veinsmobility  posy  ETV
vector 42106  IntersectionExampleScenario.node[69].veinsmobility  speed  ETV
vector 42107  IntersectionExampleScenario.node[69].veinsmobility  acceleration  ETV
vector 42108  IntersectionExampleScenario.node[69].veinsmobility  co2emission  ETV
vector 42111  IntersectionExampleScenario.node[70].veinsmobility  posx  ETV
vector 42112  IntersectionExampleScenario.node[70].veinsmobility  posy  ETV
vector 42113  IntersectionExampleScenario.node[70].veinsmobility  speed  ETV
vector 42118  IntersectionExampleScenario.node[71].veinsmobility  posx  ETV
vector 42119  IntersectionExampleScenario.node[71].veinsmobility  posy  ETV
vector 42114  IntersectionExampleScenario.node[70].veinsmobility  acceleration  ETV
vector 42115  IntersectionExampleScenario.node[70].veinsmobility  co2emission  ETV
vector 42120  IntersectionExampleScenario.node[71].veinsmobility  speed  ETV
vector 42121  IntersectionExampleScenario.node[71].veinsmobility  acceleration  ETV
vector 42122  IntersectionExampleScenario.node[71].veinsmobility  co2emission  ETV
vector 42125  IntersectionExampleScenario.node[72].veinsmobility  posx  ETV
vector 42126  IntersectionExampleScenario.node[72].veinsmobility  posy  ETV
vector 42127  IntersectionExampleScenario.node[72].veinsmobility  speed  ETV
vector 42128  IntersectionExampleScenario.node[72].veinsmobility  acceleration  ETV
vector 42129  IntersectionExampleScenario.node[72].veinsmobility  co2emission  ETV
42003	2448901 8760 21147 27268 220 292.5 291 0.973 11.36141391502 649.05976604097 2868.7560149632
42002	2457661 7809 21147 27268 220 292.5 291 -7.4570107460022 4 37.32285118103 467.27675203522
42001	2465470 8190 21130 27268 219.75 292.5 292 0 15.25 2179.3544102907 30207.236966131
42000	2473660 10227 21113 27268 219.5 292.5 293 184.17810058594 483.36395263672 126048.58151245 56379005.285992
41999	2483887 10191 21113 27268 219.5 292.5 293 486.85000610352 733.68673706055 150997.87608337 78949643.691944
42052	2494078 5755 23601 27415 250.5 294 175 0.973 11.54047740176 521.18188888 2731.0430320391
42051	2499833 5693 23601 27415 250.5 294 175 -2.1994667053223 2.5 37.15309715271 269.60412314025
42050	2505526 5922 23580 27415 250.25 294 176 4.2698888778687 15.5 2214.532128334 29825.333521174
42049	2511448 6164 23559 27415 250 294 177 184.17810058594 732.47024536133 79166.098388672 39599524.823126
42048	2517612 6193 23559 27415 250 294 177 486.85000610352 486.85000610352 86172.451080322 41953058.33441
vector 42132  IntersectionExampleScenario.node[73].veinsmobility  posx  ETV
vector 42133  IntersectionExampleScenario.node[73].veinsmobility  posy  ETV
vector 42134  IntersectionExampleScenario.node[73].veinsmobility  speed  ETV
vector 42135  IntersectionExampleScenario.node[73].veinsmobility  acceleration  ETV
vector 42136  IntersectionExampleScenario.node[73].veinsmobility  co2emission  ETV
vector 42139  IntersectionExampleScenario.node[74].veinsmobility  posx  ETV
vector 42140  IntersectionExampleScenario.node[74].veinsmobility  posy  ETV
vector 42141  IntersectionExampleScenario.node[74].veinsmobility  speed  ETV
vector 42142  IntersectionExampleScenario.node[74].veinsmobility  acceleration  ETV
vector 42143  IntersectionExampleScenario.node[74].veinsmobility  co2emission  ETV
42010	2524607 10306 21199 28744 220.75 308.5 352 0.973 11.36141391502 710.75326042801 2933.8000430282
42009	2534913 8933 21199 28744 220.75 308.5 352 -14.659893035889 4 37.32285118103 642.98441086756
42008	2543846 9434 21182 28744 220.5 308.5 353 0 15.25 2181.0222072601 30446.683854485
42007	2553280 12326 21164 28744 220.25 308.5 354 236.31317138672 483.14999389648 162684.27038574 75936931.119679
42006	2565606 12360 21164 28744 220.25 308.5 354 184.17810058594 483.36395263672 154847.46759033 69974744.318335
42073	2577966 6362 24347 28813 259.25 309.25 201 0.973 12.099024792222 572.61786792667 3167.5897743478
42072	2584328 6579 24347 28813 259.25 309.25 201 -3.7389070987701 2.5000004768372 40.038900375366 357.26513028917
42071	2590907 6819 24322 28813 259 309.25 202 0 16.27499961853 2205.1491884179 29946.712771875
42070	2597726 7098 24297 28813 258.75 309.25 203 483.14999389648 732.48727416992 106222.61077881 56608224.765344
42069	2604824 7070 24297 28813 258.75 309.25 203 184.17810058594 486.92813110352 83255.689483643 36008329.599316
vector 42146  IntersectionExampleScenario.node[75].veinsmobility  posx  ETV
vector 42147  IntersectionExampleScenario.node[75].veinsmobility  posy  ETV
vector 42148  IntersectionExampleScenario.node[75].veinsmobility  speed  ETV
vector 42149  IntersectionExampleScenario.node[75].veinsmobility  acceleration  ETV
vector 42150  IntersectionExampleScenario.node[75].veinsmobility  co2emission  ETV
42094	2612295 5957 25082 29117 267.5 312.5 181 0.973 10.756497587458 506.68623027872 2522.5633387556
42093	2618252 5789 25082 29117 267.5 312.5 181 -6.2468872070312 2.5 32.739515304565 287.52367086733
42092	2624041 6162 25059 29117 267.25 312.5 182 5.6500000953674 14.39999961853 2216.7380218506 28127.119089098
42091	2630203 6404 25036 29117 267 312.5 183 483.14999389648 483.14999389648 88416.448883057 42718406.738198
42090	2636607 6368 25036 29117 267 312.5 183 184.17810058594 733.35345458984 82095.789413452 41285692.617245
vector 42153  IntersectionExampleScenario.node[76].veinsmobility  posx  ETV
vector 42154  IntersectionExampleScenario.node[76].veinsmobility  posy  ETV
vector 42155  IntersectionExampleScenario.node[76].veinsmobility  speed  ETV
vector 42156  IntersectionExampleScenario.node[76].veinsmobility  acceleration  ETV
vector 42157  IntersectionExampleScenario.node[76].veinsmobility  co2emission  ETV
vector 42160  IntersectionExampleScenario.node[77].veinsmobility  posx  ETV
vector 42161  IntersectionExampleScenario.node[77].veinsmobility  posy  ETV
vector 42162  IntersectionExampleScenario.node[77].veinsmobility  speed  ETV
vector 42163  IntersectionExampleScenario.node[77].veinsmobility  acceleration  ETV
vector 42164  IntersectionExampleScenario.node[77].veinsmobility  co2emission  ETV
vector 42167  IntersectionExampleScenario.node[78].veinsmobility  posx  ETV
vector 42168  IntersectionExampleScenario.node[78].veinsmobility  posy  ETV
vector 42169  IntersectionExampleScenario.node[78].veinsmobility  speed  ETV
vector 42170  IntersectionExampleScenario.node[78].veinsmobility  acceleration  ETV
vector 42171  IntersectionExampleScenario.node[78].veinsmobility  co2emission  ETV
vector 42174  IntersectionExampleScenario.node[79].veinsmobility  posx  ETV
vector 42175  IntersectionExampleScenario.node[79].veinsmobility  posy  ETV
vector 42181  IntersectionExampleScenario.node[80].veinsmobility  posx  ETV
vector 42182  IntersectionExampleScenario.node[80].veinsmobility  posy  ETV
vector 42176  IntersectionExampleScenario.node[79].veinsmobility  speed  ETV
vector 42183  IntersectionExampleScenario.node[80].veinsmobility  speed  ETV
vector 42177  IntersectionExampleScenario.node[79].veinsmobility  acceleration  ETV
vector 42178  IntersectionExampleScenario.node[79].veinsmobility  co2emission  ETV
vector 42184  IntersectionExampleScenario.node[80].veinsmobility  acceleration  ETV
vector 42185  IntersectionExampleScenario.node[80].veinsmobility  co2emission  ETV
vector 42188  IntersectionExampleScenario.node[81].veinsmobility  posx  ETV
vector 42189  IntersectionExampleScenario.node[81].veinsmobility  posy  ETV
vector 42190  IntersectionExampleScenario.node[81].veinsmobility  speed  ETV
vector 42191  IntersectionExampleScenario.node[81].veinsmobility  acceleration  ETV
vector 42192  IntersectionExampleScenario.node[81].veinsmobility  co2emission  ETV
42045	2645381 10401 22425 30349 236.75 325.25 355 0.973 11.00486315618 695.32532339087 2694.2415852152
42044	2655782 9075 22425 30349 236.75 325.25 355 -8.2447776794434 4 34.437047958374 522.57080147235
42043	2664857 9632 22402 30349 236.5 325.25 356 0 14.75 2203.9682226181 29652.632321191
42042	2674489 12485 22379 30349 236.25 325.25 357 483.14999389648 785.82187652588 190141.19036865 103583677.14111
42041	2686974 12490 22379 30349 236.25 325.25 357 483.14999389648 733.87872314453 181482.93997192 93536994.836126
42059	2699464 9315 23812 30494 253 326.5 295 0.973 11.745882254277 685.89627647012 3262.5582108859
42058	2708779 9919 23812 30494 253 326.5 295 -3.9583599567413 2.5 40.543428421021 360.1478745074
42057	2718698 9799 23791 30494 252.75 326.5 296 0 15.785857200623 2205.5852555409 29472.034374712
42056	2728497 10372 23769 30494 252.5 326.5 297 482.90161132812 785.82187652588 161158.35112762 89515125.81699
42055	2738869 10391 23769 30494 252.5 326.5 297 483.14999389648 733.08242797852 151882.17015076 78836636.419458
vector 42195  IntersectionExampleScenario.node[82].veinsmobility  posx  ETV
vector 42196  IntersectionExampleScenario.node[82].veinsmobility  posy  ETV
vector 42197  IntersectionExampleScenario.node[82].veinsmobility  speed  ETV
vector 42198  IntersectionExampleScenario.node[82].veinsmobility  acceleration  ETV
vector 42199  IntersectionExampleScenario.node[82].veinsmobility  co2emission  ETV
42080	2749661 8412 24728 30763 263.5 328.75 262 0.973 11.54047740176 613.43051589558 2829.8063722975
42079	2758073 8832 24728 30763 263.5 328.75 262 -3.8573882579803 2.5 37.15309715271 324.94087038659
42078	2766905 8989 24705 30763 263.25 328.75 263 0 15.5 2221.7427729461 28893.108528589
42077	2775894 9207 24682 30763 263 328.75 264 235.33148193359 785.82187652588 137190.14537811 75548419.229556
42076	2785101 9240 24682 30763 263 328.75 264 483.14999389648 483.14999389648 127551.59838867 61626553.982973
vector 42202  IntersectionExampleScenario.node[83].veinsmobility  posx  ETV
vector 42203  IntersectionExampleScenario.node[83].veinsmobility  posy  ETV
vector 42204  IntersectionExampleScenario.node[83].veinsmobility  speed  ETV
vector 42205  IntersectionExampleScenario.node[83].veinsmobility  acceleration  ETV
vector 42206  IntersectionExampleScenario.node[83].veinsmobility  co2emission  ETV
42087	2794742 8591 24838 30891 264.75 329.75 261 0.973 11.54047740176 683.54096692062 3248.4133040764
42086	2803333 8658 24838 30891 264.75 329.75 261 -4.5 2.5 40.519861221313 566.56879003931
42085	2811991 8970 24815 30891 264.5 329.75 262 0 16.292701721191 2303.1783395801 31956.785710067
42084	2820961 9085 24792 30891 264.25 329.75 263 236.44372558594 807.09531402588 139350.05554199 78348005.943275
42083	2830046 9207 24792 30891 264.25 329.75 263 483.14999389648 483.14999389648 127068.44839478 61393120.066371
vector 42209  IntersectionExampleScenario.node[84].veinsmobility  posx  ETV
vector 42210  IntersectionExampleScenario.node[84].veinsmobility  posy  ETV
vector 42211  IntersectionExampleScenario.node[84].veinsmobility  speed  ETV
vector 42212  IntersectionExampleScenario.node[84].veinsmobility  acceleration  ETV
vector 42213  IntersectionExampleScenario.node[84].veinsmobility  co2emission  ETV
vector 42216  IntersectionExampleScenario.node[85].veinsmobility  posx  ETV
vector 42217  IntersectionExampleScenario.node[85].veinsmobility  posy  ETV
vector 42218  IntersectionExampleScenario.node[85].veinsmobility  speed  ETV
vector 42219  IntersectionExampleScenario.node[85].veinsmobility  acceleration  ETV
vector 42220  IntersectionExampleScenario.node[85].veinsmobility  co2emission  ETV
42066	2840055 9644 24322 32403 259 340.5 327 0.973 11.450879080643 684.62303746452 2918.8710064928
42065	2849699 8606 24322 32403 259 340.5 327 -8.4870567321777 4 37.15309715271 478.32449572734
42064	2858305 8978 24297 32403 258.75 340.5 328 0 15.375 2198.746417284 30558.207844133
42063	2867283 11509 24274 32403 258.5 340.5 329 237.33026123047 486.85000610352 151647.20922852 71097006.788189
42062	2878792 11503 24274 32403 258.5 340.5 329 483.14999389648 785.82187652588 175873.58742523 96251573.247764
vector 42223  IntersectionExampleScenario.node[86].veinsmobility  posx  ETV
vector 42224  IntersectionExampleScenario.node[86].veinsmobility  posy  ETV
vector 42225  IntersectionExampleScenario.node[86].veinsmobility  speed  ETV
vector 42226  IntersectionExampleScenario.node[86].veinsmobility  acceleration  ETV
vector 42227  IntersectionExampleScenario.node[86].veinsmobility  co2emission  ETV
vector 42230  IntersectionExampleScenario.node[87].veinsmobility  posx  ETV
vector 42231  IntersectionExampleScenario.node[87].veinsmobility  posy  ETV
vector 42232  IntersectionExampleScenario.node[87].veinsmobility  speed  ETV
vector 42233  IntersectionExampleScenario.node[87].veinsmobility  acceleration  ETV
vector 42234  IntersectionExampleScenario.node[87].veinsmobility  co2emission  ETV
vector 42237  IntersectionExampleScenario.node[88].veinsmobility  posx  ETV
vector 42238  IntersectionExampleScenario.node[88].veinsmobility  posy  ETV
vector 42244  IntersectionExampleScenario.node[89].veinsmobility  posx  ETV
vector 42245  IntersectionExampleScenario.node[89].veinsmobility  posy  ETV
vector 42239  IntersectionExampleScenario.node[88].veinsmobility  speed  ETV
vector 42240  IntersectionExampleScenario.node[88].veinsmobility  acceleration  ETV
vector 42241  IntersectionExampleScenario.node[88].veinsmobility  co2emission  ETV
vector 42246  IntersectionExampleScenario.node[89].veinsmobility  speed  ETV
vector 42247  IntersectionExampleScenario.node[89].veinsmobility  acceleration  ETV
vector 42248  IntersectionExampleScenario.node[89].veinsmobility  co2emission  ETV
vector 42251  IntersectionExampleScenario.node[90].veinsmobility  posx  ETV
vector 42252  IntersectionExampleScenario.node[90].veinsmobility  posy  ETV
vector 42253  IntersectionExampleScenario.node[90].veinsmobility  speed  ETV
vector 42254  IntersectionExampleScenario.node[90].veinsmobility  acceleration  ETV
vector 42255  IntersectionExampleScenario.node[90].veinsmobility  co2emission  ETV
42101	2892300 10386 25152 34625 268.25 356.5 354 0.973 11.450879080643 719.46065837694 2991.8755997284
42100	2902686 8952 25152 34625 268.25 356.5 354 -44.966133117676 4 37.32285118103 2323.4336469271
42099	2911638 9479 25129 34625 268 356.5 355 0 15.375 2210.653254509 31490.405863946
42098	2921117 12425 25105 34625 267.75 356.5 356 184.17810058594 733.81198120117 164354.76921082 80127783.969463
42097	2933542 12460 25105 34625 267.75 356.5 356 486.85000610352 486.85000610352 173318.60217285 84380162.525706
vector 42258  IntersectionExampleScenario.node[91].veinsmobility  posx  ETV
vector 42259  IntersectionExampleScenario.node[91].veinsmobility  posy  ETV
vector 42260  IntersectionExampleScenario.node[91].veinsmobility  speed  ETV
vector 42261  IntersectionExampleScenario.node[91].veinsmobility  acceleration  ETV
vector 42262  IntersectionExampleScenario.node[91].veinsmobility  co2emission  ETV
42115	2946403 9090 26886 34968 288.75 359 282 0.973 11.200708441096 627.50553201104 2693.3539136707
42114	2955493 9657 26886 34968 288.75 359 282 -3.7968313694 2.5 35.964826583862 314.43757337096
42113	2965150 9661 26863 34968 288.5 359 283 0 15.02499961853 2222.51120828 28785.448184484
42112	2974811 9886 26840 34968 288.25 359 284 184.17810058594 735.35531616211 129118.91363525 63034251.219938
42111	2984697 9940 26840 34968 288.25 359 284 486.85000610352 486.85000610352 138265.4017334 67314511.67781
42164	2994637 5718 29531 35199 317.5 360.75 174 0.97223939240464 11.810082123732 558.19850544959 3221.7485415345
42163	3000355 5608 29531 35199 317.5 360.75 174 -3.6562461853027 2.5 38.680875778198 362.03394528985
42162	3005963 5787 29508 35199 317.25 360.75 175 5.5899443626404 15.875 2182.2395329475 29335.257531764
42161	3011750 6135 29485 35199 317 360.75 176 184.17810058594 483.29125976562 70380.616882324 29898653.577245
42160	3017885 6152 29485 35199 317 360.75 176 486.85000610352 732.16674804688 93766.313430786 50900929.649861
42171	3024037 5830 29673 35354 319 362 173 0.97223939240464 11.648172402475 553.55814296067 2957.333747293
42170	3029867 5619 29673 35354 319 362 173 -4.5 2.5000019073486 38.680875778198 341.63218530126
42169	3035486 5866 29648 35354 318.75 362 174 5.6500000953674 15.64999961853 2305.9635720253 31927.757572651
42168	3041352 6088 29623 35354 318.5 362 175 163.88433837891 734.99671936035 76598.602539062 38164184.659188
42167	3047440 6124 29623 35354 318.5 362 175 486.85000610352 486.85000610352 85198.751068115 41479012.477524
vector 42265  IntersectionExampleScenario.node[92].veinsmobility  posx  ETV
vector 42266  IntersectionExampleScenario.node[92].veinsmobility  posy  ETV
vector 42267  IntersectionExampleScenario.node[92].veinsmobility  speed  ETV
vector 42268  IntersectionExampleScenario.node[92].veinsmobility  acceleration  ETV
vector 42269  IntersectionExampleScenario.node[92].veinsmobility  co2emission  ETV
42192	3053965 5182 30320 35626 325 364.25 158 0.973 11.90022389248 517.90021243769 3170.5344732557
42191	3059147 5172 30320 35626 325 364.25 158 -4.4936408996582 2.5 39.869146347046 288.58238058194
42190	3064319 5260 30291 35626 324.75 364.25 159 5.6500000953674 16 2204.3895521164 31509.726582114
42189	3069579 5572 30262 35626 324.5 364.25 160 184.17810058594 487.02789306641 63602.169555664 27039250.56303
42188	3075151 5573 30262 35626 324.5 364.25 160 236.93328857422 486.85000610352 69693.696044922 31302505.361902
42206	3080724 5357 30891 36173 329.75 369 158 0.973 11.648172402475 486.91715991358 2619.038972629
42205	3086081 5210 30891 36173 329.75 369 158 -3.0866241455078 2.5 38.001859664917 227.62979711793
42204	3091291 5274 30858 36173 329.5 369 159 5.6500000953674 15.64999961853 2211.9118642807 31667.349038843
42203	3096565 5582 30825 36173 329.25 369 160 184.17810058594 486.88046264648 63729.439453125 27164822.390533
42202	3102147 5587 30825 36173 329.25 369 160 235.66650390625 486.85000610352 69366.897857666 31046604.981833
42108	3107734 10179 26546 36459 284.75 371.75 349 0.973 11.90022389248 731.06550310303 3235.7997503568
42107	3117913 8854 26546 36459 284.75 371.75 349 -34.263294219971 4 39.869146347046 1530.1045721023
42106	3126767 9273 26525 36459 284.5 371.75 350 0 16 2192.7548847198 32053.716321718
42105	3136040 12282 26504 36459 284.25 371.75 351 483.14999389648 735.15585327148 177919.08630371 91387588.326024
42104	3148322 12266 26504 36459 284.25 371.75 351 184.17810058594 486.85000610352 153978.16174316 69774368.305589
vector 42272  IntersectionExampleScenario.node[93].veinsmobility  posx  ETV
vector 42273  IntersectionExampleScenario.node[93].veinsmobility  posy  ETV
vector 42274  IntersectionExampleScenario.node[93].veinsmobility  speed  ETV
vector 42275  IntersectionExampleScenario.node[93].veinsmobility  acceleration  ETV
vector 42276  IntersectionExampleScenario.node[93].veinsmobility  co2emission  ETV
42122	3160989 10711 26936 36815 289.25 375.75 347 0.973 11.00486315618 681.15656084208 2637.9244722739
42121	3171700 10882 26936 36815 289.25 375.75 347 -3.8929824829102 2.5 34.437047958374 313.14498800389
42120	3182582 10912 26911 36815 289 375.75 348 0 14.75 2214.7523011481 28168.128670003
42119	3193494 12207 26886 36815 288.75 375.75 349 483.14999389648 735.50505065918 177730.45471191 91807801.069242
42118	3205701 12175 26886 36815 288.75 375.75 349 184.17810058594 486.89105224609 150737.5552063 67313318.754596
42129	3217876 10924 27140 36921 291.25 377 344 0.973 11.656278311743 725.47886202407 2906.0830854901
42128	3228800 11805 27140 36921 291.25 377 344 -4.5 2.5 39.545114517212 381.16427956218
42127	3240605 11358 27113 36921 291 377 345 0 15.66127872467 2279.1517312201 29089.350889427
42126	3251963 12104 27086 36921 290.75 377 346 483.14999389648 732.67456054688 175694.34825134 90423852.172191
42125	3264067 12049 27086 36921 290.75 377 346 166.078125 486.85000610352 146230.42022705 64241522.766769
vector 42279  IntersectionExampleScenario.node[94].veinsmobility  posx  ETV
vector 42280  IntersectionExampleScenario.node[94].veinsmobility  posy  ETV
vector 42281  IntersectionExampleScenario.node[94].veinsmobility  speed  ETV
vector 42286  IntersectionExampleScenario.node[95].veinsmobility  posx  ETV
vector 42287  IntersectionExampleScenario.node[95].veinsmobility  posy  ETV
vector 42282  IntersectionExampleScenario.node[94].veinsmobility  acceleration  ETV
vector 42283  IntersectionExampleScenario.node[94].veinsmobility  co2emission  ETV
vector 42288  IntersectionExampleScenario.node[95].veinsmobility  speed  ETV
vector 42289  IntersectionExampleScenario.node[95].veinsmobility  acceleration  ETV
vector 42290  IntersectionExampleScenario.node[95].veinsmobility  co2emission  ETV
[...]
44967	20399832 5514 186499 191924 1735.25 1772.25 149 486.85000610352 486.85000610352 72540.650909424 35316416.338006
44908	20405346 8905 183967 193095 1712 1780.5 275 0.973 11.450879080643 633.38473413523 2885.4302958682
44907	20414251 8114 183967 193095 1712 1780.5 275 -8.2128305435181 4 36.813589096069 486.59835472119
44906	20422365 8462 183942 193095 1711.75 1780.5 276 0 15.375 2205.7468717098 30668.92490501
44905	20430827 10249 183917 193095 1711.5 1780.5 277 483.14999389648 483.14999389648 133832.54830933 64661194.898802
44904	20441076 10204 183917 193095 1711.5 1780.5 277 184.17810058594 732.10963439941 126941.55264282 62402246.729011
vector 45079  IntersectionExampleScenario.node[494].veinsmobility  posx  ETV
vector 45080  IntersectionExampleScenario.node[494].veinsmobility  posy  ETV
vector 45086  IntersectionExampleScenario.node[495].veinsmobility  posx  ETV
vector 45087  IntersectionExampleScenario.node[495].veinsmobility  posy  ETV
vector 45081  IntersectionExampleScenario.node[494].veinsmobility  speed  ETV
vector 45082  IntersectionExampleScenario.node[494].veinsmobility  acceleration  ETV
vector 45083  IntersectionExampleScenario.node[494].veinsmobility  co2emission  ETV
vector 45088  IntersectionExampleScenario.node[495].veinsmobility  speed  ETV
vector 45089  IntersectionExampleScenario.node[495].veinsmobility  acceleration  ETV
vector 45090  IntersectionExampleScenario.node[495].veinsmobility  co2emission  ETV
44936	20452092 8972 184473 193383 1717 1782.75 264 0.973 11.54047740176 625.65424699089 2879.4876901987
44935	20461064 8792 184473 193383 1717 1782.75 264 -4.5 2.5 38.171613693237 441.88533897859
44934	20469856 8994 184444 193383 1716.75 1782.75 265 0 15.5 2085.1717307605 28916.728135427
44933	20478850 9843 184415 193383 1716.5 1782.75 266 483.14999389648 483.14999389648 128517.89837646 62093421.816178
44932	20488693 9813 184415 193383 1716.5 1782.75 266 216.88879394531 733.70329284668 123614.82536316 60925699.841635
44915	20498506 10088 184066 193733 1713 1785.5 291 0.973 11.450879080643 741.9490277563 3592.7150467875
44914	20508594 10273 184066 193733 1713 1785.5 291 -4.5 2.5 37.15309715271 602.02696188061
44913	20518867 10394 184041 193733 1712.75 1785.5 292 0 15.375 2292.431002819 29423.581794085
44912	20529261 10833 184016 193733 1712.5 1785.5 293 483.14999389648 732.80914306641 150104.49002075 78071227.040379
44911	20540094 10795 184016 193733 1712.5 1785.5 293 162.00311279297 486.85000610352 120751.70263672 52477810.207012
44922	20550889 10133 184415 193995 1716.5 1787.75 286 0.973 11.810082123732 688.17984123812 3048.7787535022
44921	20561022 10198 184415 193995 1716.5 1787.75 286 -4.5 2.5 39.699392318726 483.55836360195
44920	20571220 10287 184388 193995 1716.25 1787.75 287 0 15.875 2271.5732603297 30090.167669311
44919	20581507 10645 184363 193995 1716 1787.75 288 235.61846923828 483.14999389648 131048.88522339 60734696.750327
44918	20592152 10631 184363 193995 1716 1787.75 288 163.44647216797 483.14999389648 118410.08389282 51177720.878377
44950	20602783 9783 184951 194266 1721 1790.25 278 0.973 11.450879080643 651.94365085814 2962.7683921126
44949	20612566 9925 184951 194266 1721 1790.25 278 -4.5 2.5 37.15309715271 408.27470673858
44948	20622491 9989 184921 194266 1720.75 1790.25 279 0 15.375 2281.9444311485 30245.266351849
44947	20632480 10275 184890 194266 1720.5 1790.25 280 483.14999389648 735.3998260498 143993.35501099 75244848.956523
44946	20642755 10326 184890 194266 1720.5 1790.25 280 167.49963378906 487.04650878906 115527.36499023 49914223.472357
44978	20653081 7583 186585 194394 1736 1791.5 223 0.973 11.648172402475 589.12915614708 3011.7022219059
44977	20660664 7828 186585 194394 1736 1791.5 223 -3.8617355823517 2.5 38.511121749878 337.06922418554
44976	20668492 8050 186556 194394 1735.75 1791.5 224 0 15.64999961853 2225.077927351 29237.134593079
44975	20676542 8325 186527 194394 1735.5 1791.5 225 483.14999389648 483.14999389648 108708.74862671 52522631.235489
44974	20684867 8284 186527 194394 1735.5 1791.5 225 184.17810058594 734.79859924316 99758.101867676 48432616.004534
vector 45093  IntersectionExampleScenario.node[496].veinsmobility  posx  ETV
vector 45094  IntersectionExampleScenario.node[496].veinsmobility  posy  ETV
vector 45095  IntersectionExampleScenario.node[496].veinsmobility  speed  ETV
44985	20693386 7411 186995 194621 1739.5 1793.75 218 0.973 11.810082123732 632.38975164829 3419.3799543155
44984	20700797 7301 186995 194621 1739.5 1793.75 218 -4.5 2.5 41.227170944214 515.29804807488
44983	20708098 7510 186964 194621 1739.25 1793.75 219 0 16.021320343018 2215.3672777414 29864.08756143
44982	20715608 8130 186933 194621 1739 1793.75 220 239.01184082031 483.14999389648 98582.453216553 45153065.635869
44981	20723738 8107 186933 194621 1739 1793.75 220 174.53436279297 483.15841674805 88521.386993408 37526544.210364
vector 45096  IntersectionExampleScenario.node[496].veinsmobility  acceleration  ETV
vector 45097  IntersectionExampleScenario.node[496].veinsmobility  co2emission  ETV
vector 45100  IntersectionExampleScenario.node[497].veinsmobility  posx  ETV
vector 45101  IntersectionExampleScenario.node[497].veinsmobility  posy  ETV
vector 45102  IntersectionExampleScenario.node[497].veinsmobility  speed  ETV
vector 45103  IntersectionExampleScenario.node[497].veinsmobility  acceleration  ETV
vector 45104  IntersectionExampleScenario.node[497].veinsmobility  co2emission  ETV
44894	20732422 10740 183762 194840 1709.75 1795.75 345 0.973 12.099024792222 736.21766964991 3304.7744201741
44893	20743162 9734 183762 194840 1709.75 1795.75 345 -29.467712402344 4 40.887662887573 1264.254749003
44892	20752896 9882 183741 194840 1709.5 1795.75 346 0 16.27499961853 2198.8275823593 32551.691710135
44891	20762778 12837 183720 194840 1709.25 1795.75 347 483.14999389648 785.82187652588 184355.05316925 100151136.8876
44890	20775615 12831 183720 194840 1709.25 1795.75 347 483.14999389648 732.86961364746 175727.29049683 90145026.393204
vector 45107  IntersectionExampleScenario.node[498].veinsmobility  posx  ETV
vector 45108  IntersectionExampleScenario.node[498].veinsmobility  posy  ETV
vector 45109  IntersectionExampleScenario.node[498].veinsmobility  speed  ETV
vector 45114  IntersectionExampleScenario.node[499].veinsmobility  posx  ETV
vector 45115  IntersectionExampleScenario.node[499].veinsmobility  posy  ETV
vector 45121  IntersectionExampleScenario.node[500].veinsmobility  posx  ETV
vector 45122  IntersectionExampleScenario.node[500].veinsmobility  posy  ETV
vector 45110  IntersectionExampleScenario.node[498].veinsmobility  acceleration  ETV
vector 45111  IntersectionExampleScenario.node[498].veinsmobility  co2emission  ETV
vector 45116  IntersectionExampleScenario.node[499].veinsmobility  speed  ETV
vector 45123  IntersectionExampleScenario.node[500].veinsmobility  speed  ETV
vector 45117  IntersectionExampleScenario.node[499].veinsmobility  acceleration  ETV
vector 45118  IntersectionExampleScenario.node[499].veinsmobility  co2emission  ETV
vector 45124  IntersectionExampleScenario.node[500].veinsmobility  acceleration  ETV
vector 45125  IntersectionExampleScenario.node[500].veinsmobility  co2emission  ETV
44957	20789664 8548 186527 195087 1735.5 1797.75 250 0.973 11.648172402475 608.86650472956 2922.9020551011
44956	20798212 8791 186527 195087 1735.5 1797.75 250 -3.7288699150085 2.5 38.341367721558 339.89261827498
44955	20807003 8981 186499 195087 1735.25 1797.75 251 0 15.64999961853 2184.1102842232 28752.492453192
44954	20815984 9307 186474 195087 1735 1797.75 252 486.85000610352 785.82187652588 138825.62395477 78447945.732584
44953	20825291 9302 186474 195087 1735 1797.75 252 237.01568603516 483.14999389648 113578.61535645 52263028.509429
vector 45128  IntersectionExampleScenario.node[501].veinsmobility  posx  ETV
vector 45129  IntersectionExampleScenario.node[501].veinsmobility  posy  ETV
vector 45130  IntersectionExampleScenario.node[501].veinsmobility  speed  ETV
vector 45131  IntersectionExampleScenario.node[501].veinsmobility  acceleration  ETV
vector 45132  IntersectionExampleScenario.node[501].veinsmobility  co2emission  ETV
44964	20834999 7898 186556 195371 1735.75 1800 258 0.973 12.26218747632 595.73906039659 3209.4755314599
44963	20842897 7063 186556 195371 1735.75 1800 258 -9.2126445770264 4 42.524229049683 526.71328572796
44962	20849960 7246 186527 195371 1735.5 1800 259 0 16.5 1436.2479112148 19974.296680826
44961	20857206 9547 186499 195371 1735.25 1800 260 486.85000610352 547.1640625 127179.64880371 62231273.698634
44960	20866753 9614 186499 195371 1735.25 1800 260 486.63604736328 785.82187652588 141781.91634369 79305838.370282
44992	20876367 7890 187297 195371 1742 1800 233 0.973 11.450879080643 577.86272568037 2783.0095713839
44991	20884257 8132 187297 195371 1742 1800 233 -3.7505660057068 2.5000009536743 37.15309715271 328.4152595219
44990	20892389 8361 187266 195371 1741.75 1800 234 0 15.375 2188.5232191458 27665.355566665
44989	20900750 8673 187235 195371 1741.5 1800 235 483.14999389648 785.82187652588 131044.9225235 75009260.465105
44988	20909423 8691 187235 195371 1741.5 1800 235 483.14999389648 728.52281188965 121793.71008301 64182240.302583
44999	20918114 7541 187456 195371 1743.25 1800 228 0.973 11.200708441096 508.73792377584 2465.9189715794
44998	20925655 8040 187456 195371 1743.25 1800 228 -3.8445482254028 2.5 36.206327438354 325.19473871137
44997	20933695 7863 187423 195371 1743 1800 229 0 15.02499961853 1376.5935257636 16185.195543846
44996	20941558 8509 187390 195371 1742.75 1800 230 444.19696044922 486.85000610352 111637.54943848 54195439.767007
44995	20950067 8487 187390 195371 1742.75 1800 230 483.13439941406 785.82187652588 128937.91904449 74108305.125384
45006	20958554 6410 187922 195371 1746.75 1800 214 0.973 11.200708441096 404.19111397876 1717.7820250287
45005	20964964 6606 187922 195371 1746.75 1800 214 -9.1322441101074 2.5000019073486 -22.60000038147 431.02071137146
45004	20971570 6743 187887 195371 1746.5 1800 215 0 15.02499961853 1147.742431879 12662.274408125
45003	20978313 7992 187852 195371 1746.25 1800 216 483.14999389648 483.14999389648 104360.39868164 50421725.986069
45002	20986305 7970 187852 195371 1746.25 1800 216 184.17810058594 471.60000610352 86422.416625977 36302860.797289
45013	20994275 6612 187996 195371 1747.25 1800 212 0.973 11.03740266928 415.9125321985 1679.0397102385
45012	21000887 6519 187996 195371 1747.25 1800 212 -4.5 2.5 -22.60000038147 470.29014402142
45011	21007406 6791 187959 195371 1747 1800 213 0 15.37522983551 1215.6961026192 14022.468218161
45010	21014197 7917 187922 195371 1746.75 1800 214 483.14999389648 483.14999389648 103394.09869385 49954858.152865
45009	21022114 7887 187922 195371 1746.75 1800 214 160.43438720703 465.29711914062 82779.245758057 33995475.950933
45020	21030001 6950 188248 195371 1749 1800 205 0.973 11.009332286968 421.29500086263 1718.7535480579
45019	21036951 7423 188248 195371 1749 1800 205 -4.5 2.5000009536743 -22.498118653893 461.64720321428
45018	21044374 7557 188211 195371 1748.75 1800 206 0 15.406105995178 1219.5491282865 14116.517667029
45017	21051931 7658 188174 195371 1748.5 1800 207 483.14999389648 483.14999389648 100012.04873657 48320820.73665
45016	21059589 7628 188174 195371 1748.5 1800 207 153.0703125 458.88693237305 78302.098266602 31521304.60165
45027	21067217 6539 188500 195371 1750.75 1800 198 0.973 11.648172402475 409.83410407594 1808.7964897556
45026	21073756 6992 188500 195371 1750.75 1800 198 -3.763578414917 2.5000009536743 13.39999961853 281.86332580555
45025	21080748 7149 188463 195371 1750.5 1800 199 0 15.64999961853 1246.4998821896 14103.41561509
45024	21087897 7397 188426 195371 1750.25 1800 200 474.79043579102 486.85000610352 97324.269500732 47360421.89311
45023	21095294 7383 188426 195371 1750.25 1800 200 483.16741943359 785.82187652588 114803.98715973 67475078.435292
45034	21102677 6454 188651 195371 1751.75 1800 194 0.973 12.099024792222 567.88156812668 3141.0885594274
45033	21109131 6734 188651 195371 1751.75 1800 194 -2.5545196533203 2.5 41.906209945679 337.71372216311
45032	21115865 6884 188613 195371 1751.5 1800 195 1.8967117071152 16.27499961853 2085.9560506344 27094.954618829
45031	21122749 7239 188574 195371 1751.25 1800 196 486.8332824707 785.82187652588 111366.76425934 65008805.524157
45030	21129988 7250 188574 195371 1751.25 1800 196 261.80810546875 483.14999389648 88364.405914307 40558732.399476
45041	21137238 6563 188877 195371 1753.25 1800 188 0.973 11.450879080643 540.74076682801 2834.8854890611
45040	21143801 6537 188877 195371 1753.25 1800 188 -4.5 2.5 36.983369827271 426.18450010818
45039	21150338 6700 188838 195371 1753 1800 189 1.3090169429779 15.375 2033.8626738787 25993.628036692
45038	21157038 7005 188799 195371 1752.75 1800 190 483.14999389648 806.11563110352 110127.89254761 65874630.104465
45037	21164043 7022 188799 195371 1752.75 1800 190 483.14999389648 668.96284484863 96597.467208862 49582398.591998
45048	21171065 5723 189427 195371 1756.75 1800 174 0.973 11.200708441096 363.94757426725 1596.6103709538
45047	21176788 6438 189427 195371 1756.75 1800 174 -3.8461768627167 2.5 5.3999996185303 299.80367319367
45046	21183226 6428 189386 195371 1756.5 1800 175 0 15.02499961853 1158.7226196323 13204.288846708
45045	21189654 6512 189345 195371 1756.25 1800 176 486.85000610352 486.92556762695 85685.676635742 41716108.985933
45044	21196166 6484 189345 195371 1756.25 1800 176 498.3330078125 785.82187652588 103413.9295578 62119395.351778
45055	21202650 5023 190294 195371 1762.25 1800 152 0.973 11.648172402475 355.95414912189 1992.02634049
45054	21207673 5472 190294 195371 1762.25 1800 152 -4.5 2.5 -22.337951034307 320.76568684472
45053	21213145 5626 190253 195371 1762 1800 153 0 15.64999961853 1068.8265308067 13302.602056242
45052	21218771 5697 190212 195371 1761.75 1800 154 483.14999389648 483.14999389648 74405.099060059 35948823.156735
45051	21224468 5666 190212 195371 1761.75 1800 154 184.17810058594 452.05667114258 57658.660736084 22857201.095549
45062	21230134 4809 190705 195371 1764.75 1800 142 0.973 11.200708441096 300.0075044139 1355.0224236742
45061	21234943 5199 190705 195371 1764.75 1800 142 -4.5 2.5 -21.760608911514 226.38382081098
45060	21240142 5262 190664 195371 1764.5 1800 143 0 15.02499961853 1104.4428812601 13813.57063327
45059	21245404 5328 190622 195371 1764.25 1800 144 483.14999389648 483.14999389648 69573.599121094 33614483.990713
45058	21250732 5295 190622 195371 1764.25 1800 144 168.58435058594 444.83590698242 51441.063079834 19683428.725628
45069	21256027 4588 191116 195371 1767.25 1800 132 0.973 11.796192671489 487.23679549191 3209.0703595932
45068	21260615 4480 191116 195371 1767.25 1800 132 -2.972110748291 2.5 39.869310379028 286.70814882651
45067	21265095 4634 191075 195371 1767 1800 133 5.6500000953674 15.995565414429 1801.9198284149 25326.171497173
45066	21269729 4947 191033 195371 1766.75 1800 134 483.14999389648 785.82187652588 78905.348014832 47980117.263624
45065	21274676 4952 191033 195371 1766.75 1800 134 483.14999389648 631.56910705566 67725.701721191 34455267.712501
45076	21279628 3919 191603 195371 1770.25 1800 120 0.973 11.117207798788 278.34291398142 1276.0107686947
45075	21283547 4392 191603 195371 1770.25 1800 120 -4.5 2.5 -22.193615347147 236.01996075989
45074	21287939 4445 191562 195371 1770 1800 121 0 15.736353874207 1010.8329473995 12892.029410071
45073	21292384 4513 191521 195371 1769.75 1800 122 483.14999389648 483.14999389648 58944.299255371 28478937.825465
45072	21296897 4486 191521 195371 1769.75 1800 122 184.17810058594 437.13171386719 42767.377655029 15935048.303914
45083	21301383 2670 193251 195371 1781.75 1800 74 0.973 11.648172402475 254.80016075703 1447.6156840674
45082	21304053 2413 193251 195371 1781.75 1800 74 -2.916374206543 2.5 22.835073471069 148.37735303142
45081	21306466 2760 193218 195371 1781.5 1800 75 5.6500000953674 15.64999961853 1072.1734542847 15820.531660176
45080	21309226 2804 193187 195371 1781.25 1800 76 521.59002685547 785.82187652588 50436.522148132 33987189.846313
45079	21312030 2812 193187 195371 1781.25 1800 76 483.14999389648 483.14999389648 36719.399536133 17740977.661765
45090	21314842 2573 193284 195371 1782 1800 73 0.973 11.663071210826 284.06362247325 1947.3691429642
45089	21317415 2511 193284 195371 1782 1800 73 -3.5169563293457 2.5 27.775682449341 184.00210927632
45088	21319926 2721 193251 195371 1781.75 1800 74 5.6500000953674 15.670729637146 1024.0184011459 14618.204158287
45087	21322647 2774 193218 195371 1781.5 1800 75 486.85000610352 486.85000610352 36513.750457764 17776719.633224
45086	21325421 2767 193218 195371 1781.5 1800 75 534.24450683594 785.82187652588 50081.400596619 33904598.9918
45097	21328188 899 194648 195371 1794 1800 25 0.973 11.648172402475 147.40294948559 1209.3660841942
45096	21329087 750 194648 195371 1794 1800 25 -0.5 2.5 37.99907875061 100.64341835834
45095	21329837 948 194621 195371 1793.75 1800 26 5.6500000953674 15.64999961853 318.56488895416 4188.837683623
45094	21330785 998 194594 195371 1793.5 1800 27 483.14999389648 483.14999389648 13045.049835205 6302715.7482587
45093	21331783 981 194594 195371 1793.5 1800 27 184.17810058594 258.72607421875 5794.2048339844 1258451.3444881
45104	21332764 661 194840 195371 1795.75 1800 18 1.986667772344 11.200708441096 128.67016961892 1065.4488062328
45103	21333425 506 194840 195371 1795.75 1800 18 -0.044288635253906 2.5 37.397581100464 93.753675914257
45102	21333931 692 194812 195371 1795.5 1800 19 5.6500000953674 15.02499961853 210.4189414978 2518.2034957145
45101	21334623 740 194783 195371 1795.25 1800 20 738.21562194824 785.82187652588 15337.251548767 11766044.57766
45100	21335363 740 194783 195371 1795.25 1800 20 483.14999389648 483.14999389648 9662.9998779297 4668678.3320435
45111	21336103 551 194925 195371 1796.5 1800 15 5.2162187258585 11.200708441096 122.60236467337 1053.1736850581
45110	21336654 386 194925 195371 1796.5 1800 15 2.4999980926514 2.5 37.499998092651 93.74999046326
45109	21337040 583 194896 195371 1796.25 1800 16 5.6500000953674 15.02499961853 165.39999580383 1842.6348989391
45108	21337623 610 194867 195371 1796 1800 17 184.17810058594 220.59997558594 3378.6529541016 673752.85246629
45107	21338233 627 194867 195371 1796 1800 17 486.85000610352 486.85000610352 8276.4501037598 4029389.7835309
45118	21338860 476 194991 195371 1797 1800 13 5.2162187258585 10.315404520939 100.64515864481 812.01557512667
45117	21339336 335 194991 195371 1797 1800 13 2.4999980926514 2.5 32.499998092651 81.24999046326
45116	21339671 510 194958 195371 1796.75 1800 14 5.6500000953674 13.77499961853 135.97499656677 1409.5242963886
45115	21340181 554 194925 195371 1796.5 1800 15 486.85000610352 486.85000610352 7302.7500915527 3555343.9266449
45114	21340735 554 194925 195371 1796.5 1800 15 756.28750610352 785.82187652588 11609.025123596 8985974.340013
45125	21341289 476 194991 195371 1797 1800 13 5.2162187258585 10.315404520939 100.64515864481 812.01557512667
45124	21341765 335 194991 195371 1797 1800 13 2.4999980926514 2.5 32.499998092651 81.24999046326
45123	21342100 510 194958 195371 1796.75 1800 14 5.6500000953674 13.77499961853 135.97499656677 1409.5242963886
45122	21342610 554 194925 195371 1796.5 1800 15 483.14999389648 483.14999389648 7247.2499084473 3501508.7490326
45121	21343164 534 194925 195371 1796.5 1800 15 171.40313720703 200.9375 2749.3497924805 505271.66957009
45132	21343698 35 195371 195371 1800 1800 1 5.2162187258585 5.2162187258585 5.2162187258585 27.208937795997
45131	21343733 23 195371 195371 1800 1800 1 2.5 2.5 2.5 6.25
45130	21343756 73 195337 195371 1799.75 1800 2 5.6500000953674 6.2750000953674 11.925000190735 71.298127274513
45129	21343829 110 195304 195371 1799.5 1800 3 483.14999389648 483.14999389648 1449.4499816895 700301.74980652
45128	21343939 100 195304 195371 1799.5 1800 3 165.015625 166.34997558594 496.38122558594 82132.627365723
41617	21344039 638 0 195370 0 1800 31 0 34 545 10655
41618	21344677 654 0 195370 0 1800 31 0 232 3501 546503
