version 2
run nodebug-27-20200606-20:23:18-18208
attr configname nodebug
attr datetime 20200606-20:23:18
attr experiment nodebug
attr inifile omnetpp.ini
attr iterationvars ""
attr iterationvars2 $repetition=27
attr measurement ""
attr network "\"org.car2x.veins.modules.application.ExtTraCIScenarioManagerLaunchd.IntersectionExampleScenario\""
attr processid 18208
attr repetition 27
attr replication #27
attr resultdir results
attr runnumber 27
attr seedset 27
param **.coreDebug false
param **.debug false
param *.**.nic.mac1609_4.bitrate 18Mbps
param *.**.nic.mac1609_4.txPower 20mW
param *.**.nic.mac1609_4.useServiceChannel false
param *.**.nic.phy80211p.analogueModels "xmldoc(\"config.xml\")"
param *.**.nic.phy80211p.decider "xmldoc(\"config.xml\")"
param *.**.nic.phy80211p.sensitivity -89dBm
param *.**.nic.phy80211p.thermalNoise -110dBm
param *.**.nic.phy80211p.usePropagationDelay true
param *.**.nic.phy80211p.useThermalNoise true
param *.annotations.draw false
param *.connectionManager.alpha 2.0
param *.connectionManager.carrierFrequency "5.890e9 Hz"
param *.connectionManager.pMax 20mW
param *.connectionManager.sat -89dBm
param *.connectionManager.sendDirect true
param *.manager.autoShutdown true
param *.manager.host "\"localhost\""
param *.manager.launchConfig "xmldoc(\"paramics.launchd.xml\")"
param *.manager.margin 25
param *.manager.moduleDisplayString "\"\""
param *.manager.moduleName "\"node\""
param *.manager.moduleType "\"org.car2x.veins.nodes.Car\""
param *.manager.port 9999
param *.manager.updateInterval 250ms
param *.node[*0].veinsmobility.accidentCount 0
param *.node[*0].veinsmobility.accidentDuration 30s
param *.node[*0].veinsmobility.accidentStart 75s
param *.node[*].appl.LiderSelectZoneRadio 55.0
param *.node[*].appl.ShareDataZoneRadio 110.0
param *.node[*].appl.TiempoSemaforo 30.0
param *.node[*].appl.beaconInterval 1s
param *.node[*].appl.beaconPriority 3
param *.node[*].appl.dataOnSch false
param *.node[*].appl.dataPriority 2
param *.node[*].appl.debug false
param *.node[*].appl.headerLength "256 bit"
param *.node[*].appl.maxOffset 0.005s
param *.node[*].appl.sendBeacons false
param *.node[*].appl.sendData true
param *.node[*].applType "\"Dummy\""
param *.node[*].mobilityType "\"TraCIMobility\""
param *.node[*].mobilityType.debug true
param *.node[*].veinsmobility.x 0
param *.node[*].veinsmobility.y 0
param *.node[*].veinsmobility.z 1.895
param *.node[*].veinsmobilityType "\"org.car2x.veins.modules.mobility.traci.TraCIMobility\""
param *.node[*].veinsmobilityType.debug true
param *.playgroundSizeX 8500m
param *.playgroundSizeY 8500m
param *.playgroundSizeZ 50m
param *.world.use2D false
param *.world.useTorus false

scalar IntersectionExampleScenario.node[2].appl 	VehicleRemoved 	0
scalar IntersectionExampleScenario.node[2].appl 	ArrivedAtDest 	1
scalar IntersectionExampleScenario.node[2].appl 	IntersectionEnterTime 	5
scalar IntersectionExampleScenario.node[2].appl 	IntersectionExitTime 	27.607251589157
scalar IntersectionExampleScenario.node[2].appl 	NumberOfCollisions 	0
scalar IntersectionExampleScenario.node[2].nic.phy80211p 	busyTime 	0
scalar IntersectionExampleScenario.node[2].nic.mac1609_4 	ReceivedUnicastPackets 	0
scalar IntersectionExampleScenario.node[2].nic.mac1609_4 	ReceivedBroadcasts 	0
scalar IntersectionExampleScenario.node[2].nic.mac1609_4 	SentPackets 	0
scalar IntersectionExampleScenario.node[2].nic.mac1609_4 	SNIRLostPackets 	0
scalar IntersectionExampleScenario.node[2].nic.mac1609_4 	RXTXLostPackets 	0
scalar IntersectionExampleScenario.node[2].nic.mac1609_4 	TotalLostPackets 	0
scalar IntersectionExampleScenario.node[2].nic.mac1609_4 	DroppedPacketsInMac 	0
scalar IntersectionExampleScenario.node[2].nic.mac1609_4 	TooLittleTime 	0
scalar IntersectionExampleScenario.node[2].nic.mac1609_4 	TimesIntoBackoff 	0
scalar IntersectionExampleScenario.node[2].nic.mac1609_4 	SlotsBackoff 	0
scalar IntersectionExampleScenario.node[2].nic.mac1609_4 	NumInternalContention 	0
scalar IntersectionExampleScenario.node[2].nic.mac1609_4 	totalBusyTime 	0
scalar IntersectionExampleScenario.node[2].veinsmobility 	startTime 	5
scalar IntersectionExampleScenario.node[2].veinsmobility 	totalTime 	38
scalar IntersectionExampleScenario.node[2].veinsmobility 	stopTime 	43.25
scalar IntersectionExampleScenario.node[2].veinsmobility 	minSpeed 	5.6500000953674
scalar IntersectionExampleScenario.node[2].veinsmobility 	maxSpeed 	16.125
scalar IntersectionExampleScenario.node[2].veinsmobility 	totalDistance 	551.6651763916
scalar IntersectionExampleScenario.node[2].veinsmobility 	totalCO2Emission 	119.99297835631
scalar IntersectionExampleScenario.node[0].appl 	VehicleRemoved 	0
scalar IntersectionExampleScenario.node[0].appl 	ArrivedAtDest 	1
scalar IntersectionExampleScenario.node[0].appl 	IntersectionEnterTime 	2.25
scalar IntersectionExampleScenario.node[0].appl 	IntersectionExitTime 	35.608500399772
scalar IntersectionExampleScenario.node[0].appl 	NumberOfCollisions 	0
scalar IntersectionExampleScenario.node[0].nic.phy80211p 	busyTime 	0
scalar IntersectionExampleScenario.node[0].nic.mac1609_4 	ReceivedUnicastPackets 	0
scalar IntersectionExampleScenario.node[0].nic.mac1609_4 	ReceivedBroadcasts 	0
scalar IntersectionExampleScenario.node[0].nic.mac1609_4 	SentPackets 	0
scalar IntersectionExampleScenario.node[0].nic.mac1609_4 	SNIRLostPackets 	0
scalar IntersectionExampleScenario.node[0].nic.mac1609_4 	RXTXLostPackets 	0
scalar IntersectionExampleScenario.node[0].nic.mac1609_4 	TotalLostPackets 	0
scalar IntersectionExampleScenario.node[0].nic.mac1609_4 	DroppedPacketsInMac 	0
scalar IntersectionExampleScenario.node[0].nic.mac1609_4 	TooLittleTime 	0
scalar IntersectionExampleScenario.node[0].nic.mac1609_4 	TimesIntoBackoff 	0
scalar IntersectionExampleScenario.node[0].nic.mac1609_4 	SlotsBackoff 	0
scalar IntersectionExampleScenario.node[0].nic.mac1609_4 	NumInternalContention 	0
scalar IntersectionExampleScenario.node[0].nic.mac1609_4 	totalBusyTime 	0
scalar IntersectionExampleScenario.node[0].veinsmobility 	startTime 	2.25
scalar IntersectionExampleScenario.node[0].veinsmobility 	totalTime 	49.75
scalar IntersectionExampleScenario.node[0].veinsmobility 	stopTime 	52.25
scalar IntersectionExampleScenario.node[0].veinsmobility 	minSpeed 	0
scalar IntersectionExampleScenario.node[0].veinsmobility 	maxSpeed 	15.875
scalar IntersectionExampleScenario.node[0].veinsmobility 	totalDistance 	545.340872778
scalar IntersectionExampleScenario.node[0].veinsmobility 	totalCO2Emission 	144.42837286764
scalar IntersectionExampleScenario.node[1].appl 	VehicleRemoved 	0
scalar IntersectionExampleScenario.node[1].appl 	ArrivedAtDest 	1
scalar IntersectionExampleScenario.node[1].appl 	IntersectionEnterTime 	4.5
scalar IntersectionExampleScenario.node[1].appl 	IntersectionExitTime 	38.276214395941
scalar IntersectionExampleScenario.node[1].appl 	NumberOfCollisions 	0
scalar IntersectionExampleScenario.node[1].nic.phy80211p 	busyTime 	0
scalar IntersectionExampleScenario.node[1].nic.mac1609_4 	ReceivedUnicastPackets 	0
scalar IntersectionExampleScenario.node[1].nic.mac1609_4 	ReceivedBroadcasts 	0
scalar IntersectionExampleScenario.node[1].nic.mac1609_4 	SentPackets 	0
scalar IntersectionExampleScenario.node[1].nic.mac1609_4 	SNIRLostPackets 	0
scalar IntersectionExampleScenario.node[1].nic.mac1609_4 	RXTXLostPackets 	0
scalar IntersectionExampleScenario.node[1].nic.mac1609_4 	TotalLostPackets 	0
scalar IntersectionExampleScenario.node[1].nic.mac1609_4 	DroppedPacketsInMac 	0
scalar IntersectionExampleScenario.node[1].nic.mac1609_4 	TooLittleTime 	0
scalar IntersectionExampleScenario.node[1].nic.mac1609_4 	TimesIntoBackoff 	0
scalar IntersectionExampleScenario.node[1].nic.mac1609_4 	SlotsBackoff 	0
scalar IntersectionExampleScenario.node[1].nic.mac1609_4 	NumInternalContention 	0
scalar IntersectionExampleScenario.node[1].nic.mac1609_4 	totalBusyTime 	0
scalar IntersectionExampleScenario.node[1].veinsmobility 	startTime 	4.5
scalar IntersectionExampleScenario.node[1].veinsmobility 	totalTime 	49.75
scalar IntersectionExampleScenario.node[1].veinsmobility 	stopTime 	54.5
scalar IntersectionExampleScenario.node[1].veinsmobility 	minSpeed 	0
scalar IntersectionExampleScenario.node[1].veinsmobility 	maxSpeed 	15.94549369812
scalar IntersectionExampleScenario.node[1].veinsmobility 	totalDistance 	559.98730098615
scalar IntersectionExampleScenario.node[1].veinsmobility 	totalCO2Emission 	148.02841086526
scalar IntersectionExampleScenario.node[6].appl 	VehicleRemoved 	0
scalar IntersectionExampleScenario.node[6].appl 	ArrivedAtDest 	1
scalar IntersectionExampleScenario.node[6].appl 	IntersectionEnterTime 	24.5
scalar IntersectionExampleScenario.node[6].appl 	IntersectionExitTime 	47.824864656286
scalar IntersectionExampleScenario.node[6].appl 	NumberOfCollisions 	0
scalar IntersectionExampleScenario.node[6].nic.phy80211p 	busyTime 	0
scalar IntersectionExampleScenario.node[6].nic.mac1609_4 	ReceivedUnicastPackets 	0
scalar IntersectionExampleScenario.node[6].nic.mac1609_4 	ReceivedBroadcasts 	0
scalar IntersectionExampleScenario.node[6].nic.mac1609_4 	SentPackets 	0
scalar IntersectionExampleScenario.node[6].nic.mac1609_4 	SNIRLostPackets 	0
scalar IntersectionExampleScenario.node[6].nic.mac1609_4 	RXTXLostPackets 	0
scalar IntersectionExampleScenario.node[6].nic.mac1609_4 	TotalLostPackets 	0
scalar IntersectionExampleScenario.node[6].nic.mac1609_4 	DroppedPacketsInMac 	0
scalar IntersectionExampleScenario.node[6].nic.mac1609_4 	TooLittleTime 	0
scalar IntersectionExampleScenario.node[6].nic.mac1609_4 	TimesIntoBackoff 	0
scalar IntersectionExampleScenario.node[6].nic.mac1609_4 	SlotsBackoff 	0
scalar IntersectionExampleScenario.node[6].nic.mac1609_4 	NumInternalContention 	0
scalar IntersectionExampleScenario.node[6].nic.mac1609_4 	totalBusyTime 	0
scalar IntersectionExampleScenario.node[6].veinsmobility 	startTime 	24.5
scalar IntersectionExampleScenario.node[6].veinsmobility 	totalTime 	39.5
scalar IntersectionExampleScenario.node[6].veinsmobility 	stopTime 	64.25
scalar IntersectionExampleScenario.node[6].veinsmobility 	minSpeed 	5.6500000953674
scalar IntersectionExampleScenario.node[6].veinsmobility 	maxSpeed 	15.5
scalar IntersectionExampleScenario.node[6].veinsmobility 	totalDistance 	553.65596008301
scalar IntersectionExampleScenario.node[6].veinsmobility 	totalCO2Emission 	116.12893195025
scalar IntersectionExampleScenario.node[7].appl 	VehicleRemoved 	0
scalar IntersectionExampleScenario.node[7].appl 	ArrivedAtDest 	1
scalar IntersectionExampleScenario.node[7].appl 	IntersectionEnterTime 	25.5
scalar IntersectionExampleScenario.node[7].appl 	IntersectionExitTime 	51.590696626081
scalar IntersectionExampleScenario.node[7].appl 	NumberOfCollisions 	0
scalar IntersectionExampleScenario.node[7].nic.phy80211p 	busyTime 	0
scalar IntersectionExampleScenario.node[7].nic.mac1609_4 	ReceivedUnicastPackets 	0
scalar IntersectionExampleScenario.node[7].nic.mac1609_4 	ReceivedBroadcasts 	0
scalar IntersectionExampleScenario.node[7].nic.mac1609_4 	SentPackets 	0
scalar IntersectionExampleScenario.node[7].nic.mac1609_4 	SNIRLostPackets 	0
scalar IntersectionExampleScenario.node[7].nic.mac1609_4 	RXTXLostPackets 	0
scalar IntersectionExampleScenario.node[7].nic.mac1609_4 	TotalLostPackets 	0
scalar IntersectionExampleScenario.node[7].nic.mac1609_4 	DroppedPacketsInMac 	0
scalar IntersectionExampleScenario.node[7].nic.mac1609_4 	TooLittleTime 	0
scalar IntersectionExampleScenario.node[7].nic.mac1609_4 	TimesIntoBackoff 	0
scalar IntersectionExampleScenario.node[7].nic.mac1609_4 	SlotsBackoff 	0
scalar IntersectionExampleScenario.node[7].nic.mac1609_4 	NumInternalContention 	0
scalar IntersectionExampleScenario.node[7].nic.mac1609_4 	totalBusyTime 	0
scalar IntersectionExampleScenario.node[7].veinsmobility 	startTime 	25.5
scalar IntersectionExampleScenario.node[7].veinsmobility 	totalTime 	42.75
scalar IntersectionExampleScenario.node[7].veinsmobility 	stopTime 	68.5
scalar IntersectionExampleScenario.node[7].veinsmobility 	minSpeed 	0
scalar IntersectionExampleScenario.node[7].veinsmobility 	maxSpeed 	15.64999961853
scalar IntersectionExampleScenario.node[7].veinsmobility 	totalDistance 	543.37075711638
scalar IntersectionExampleScenario.node[7].veinsmobility 	totalCO2Emission 	134.28013815153
scalar IntersectionExampleScenario.node[4].appl 	VehicleRemoved 	0
scalar IntersectionExampleScenario.node[4].appl 	ArrivedAtDest 	1
scalar IntersectionExampleScenario.node[4].appl 	IntersectionEnterTime 	13.75
scalar IntersectionExampleScenario.node[4].appl 	IntersectionExitTime 	68.271242836694
scalar IntersectionExampleScenario.node[4].appl 	NumberOfCollisions 	0
scalar IntersectionExampleScenario.node[4].nic.phy80211p 	busyTime 	0
scalar IntersectionExampleScenario.node[4].nic.mac1609_4 	ReceivedUnicastPackets 	0
scalar IntersectionExampleScenario.node[4].nic.mac1609_4 	ReceivedBroadcasts 	0
scalar IntersectionExampleScenario.node[4].nic.mac1609_4 	SentPackets 	0
scalar IntersectionExampleScenario.node[4].nic.mac1609_4 	SNIRLostPackets 	0
scalar IntersectionExampleScenario.node[4].nic.mac1609_4 	RXTXLostPackets 	0
scalar IntersectionExampleScenario.node[4].nic.mac1609_4 	TotalLostPackets 	0
scalar IntersectionExampleScenario.node[4].nic.mac1609_4 	DroppedPacketsInMac 	0
scalar IntersectionExampleScenario.node[4].nic.mac1609_4 	TooLittleTime 	0
scalar IntersectionExampleScenario.node[4].nic.mac1609_4 	TimesIntoBackoff 	0
scalar IntersectionExampleScenario.node[4].nic.mac1609_4 	SlotsBackoff 	0
scalar IntersectionExampleScenario.node[4].nic.mac1609_4 	NumInternalContention 	0
scalar IntersectionExampleScenario.node[4].nic.mac1609_4 	totalBusyTime 	0
scalar IntersectionExampleScenario.node[4].veinsmobility 	startTime 	13.75
scalar IntersectionExampleScenario.node[4].veinsmobility 	totalTime 	70.5
scalar IntersectionExampleScenario.node[4].veinsmobility 	stopTime 	84.5
scalar IntersectionExampleScenario.node[4].veinsmobility 	minSpeed 	0
scalar IntersectionExampleScenario.node[4].veinsmobility 	maxSpeed 	15.64999961853
scalar IntersectionExampleScenario.node[4].veinsmobility 	totalDistance 	548.86372484317
scalar IntersectionExampleScenario.node[4].veinsmobility 	totalCO2Emission 	162.11268159916
scalar IntersectionExampleScenario.node[11].appl 	VehicleRemoved 	0
scalar IntersectionExampleScenario.node[11].appl 	ArrivedAtDest 	1
scalar IntersectionExampleScenario.node[11].appl 	IntersectionEnterTime 	42.5
scalar IntersectionExampleScenario.node[11].appl 	IntersectionExitTime 	70.511457077635
scalar IntersectionExampleScenario.node[11].appl 	NumberOfCollisions 	0
scalar IntersectionExampleScenario.node[11].nic.phy80211p 	busyTime 	0
scalar IntersectionExampleScenario.node[11].nic.mac1609_4 	ReceivedUnicastPackets 	0
scalar IntersectionExampleScenario.node[11].nic.mac1609_4 	ReceivedBroadcasts 	0
scalar IntersectionExampleScenario.node[11].nic.mac1609_4 	SentPackets 	0
scalar IntersectionExampleScenario.node[11].nic.mac1609_4 	SNIRLostPackets 	0
scalar IntersectionExampleScenario.node[11].nic.mac1609_4 	RXTXLostPackets 	0
scalar IntersectionExampleScenario.node[11].nic.mac1609_4 	TotalLostPackets 	0
scalar IntersectionExampleScenario.node[11].nic.mac1609_4 	DroppedPacketsInMac 	0
scalar IntersectionExampleScenario.node[11].nic.mac1609_4 	TooLittleTime 	0
scalar IntersectionExampleScenario.node[11].nic.mac1609_4 	TimesIntoBackoff 	0
scalar IntersectionExampleScenario.node[11].nic.mac1609_4 	SlotsBackoff 	0
scalar IntersectionExampleScenario.node[11].nic.mac1609_4 	NumInternalContention 	0
scalar IntersectionExampleScenario.node[11].nic.mac1609_4 	totalBusyTime 	0
scalar IntersectionExampleScenario.node[11].veinsmobility 	startTime 	42.5
scalar IntersectionExampleScenario.node[11].veinsmobility 	totalTime 	44.25
scalar IntersectionExampleScenario.node[11].veinsmobility 	stopTime 	87
scalar IntersectionExampleScenario.node[11].veinsmobility 	minSpeed 	4.5028839111328
scalar IntersectionExampleScenario.node[11].veinsmobility 	maxSpeed 	15.64999961853
scalar IntersectionExampleScenario.node[11].veinsmobility 	totalDistance 	548.84336440291
scalar IntersectionExampleScenario.node[11].veinsmobility 	totalCO2Emission 	132.24128827239
scalar IntersectionExampleScenario.node[14].appl 	VehicleRemoved 	0
scalar IntersectionExampleScenario.node[14].appl 	ArrivedAtDest 	1
scalar IntersectionExampleScenario.node[14].appl 	IntersectionEnterTime 	51.75
scalar IntersectionExampleScenario.node[14].appl 	IntersectionExitTime 	75.301225133939
scalar IntersectionExampleScenario.node[14].appl 	NumberOfCollisions 	0
scalar IntersectionExampleScenario.node[14].nic.phy80211p 	busyTime 	0
scalar IntersectionExampleScenario.node[14].nic.mac1609_4 	ReceivedUnicastPackets 	0
scalar IntersectionExampleScenario.node[14].nic.mac1609_4 	ReceivedBroadcasts 	0
scalar IntersectionExampleScenario.node[14].nic.mac1609_4 	SentPackets 	0
scalar IntersectionExampleScenario.node[14].nic.mac1609_4 	SNIRLostPackets 	0
scalar IntersectionExampleScenario.node[14].nic.mac1609_4 	RXTXLostPackets 	0
scalar IntersectionExampleScenario.node[14].nic.mac1609_4 	TotalLostPackets 	0
scalar IntersectionExampleScenario.node[14].nic.mac1609_4 	DroppedPacketsInMac 	0
scalar IntersectionExampleScenario.node[14].nic.mac1609_4 	TooLittleTime 	0
scalar IntersectionExampleScenario.node[14].nic.mac1609_4 	TimesIntoBackoff 	0
scalar IntersectionExampleScenario.node[14].nic.mac1609_4 	SlotsBackoff 	0
scalar IntersectionExampleScenario.node[14].nic.mac1609_4 	NumInternalContention 	0
scalar IntersectionExampleScenario.node[14].nic.mac1609_4 	totalBusyTime 	0
scalar IntersectionExampleScenario.node[14].veinsmobility 	startTime 	51.75
scalar IntersectionExampleScenario.node[14].veinsmobility 	totalTime 	40
scalar IntersectionExampleScenario.node[14].veinsmobility 	stopTime 	92
scalar IntersectionExampleScenario.node[14].veinsmobility 	minSpeed 	5.6500000953674
scalar IntersectionExampleScenario.node[14].veinsmobility 	maxSpeed 	15.392395973206
scalar IntersectionExampleScenario.node[14].veinsmobility 	totalDistance 	548.81661233579
scalar IntersectionExampleScenario.node[14].veinsmobility 	totalCO2Emission 	123.83261456814
scalar IntersectionExampleScenario.node[16].appl 	VehicleRemoved 	0
scalar IntersectionExampleScenario.node[16].appl 	ArrivedAtDest 	1
scalar IntersectionExampleScenario.node[16].appl 	IntersectionEnterTime 	52.25
scalar IntersectionExampleScenario.node[16].appl 	IntersectionExitTime 	77.075714414328
scalar IntersectionExampleScenario.node[16].appl 	NumberOfCollisions 	0
scalar IntersectionExampleScenario.node[16].nic.phy80211p 	busyTime 	0
scalar IntersectionExampleScenario.node[16].nic.mac1609_4 	ReceivedUnicastPackets 	0
scalar IntersectionExampleScenario.node[16].nic.mac1609_4 	ReceivedBroadcasts 	0
scalar IntersectionExampleScenario.node[16].nic.mac1609_4 	SentPackets 	0
scalar IntersectionExampleScenario.node[16].nic.mac1609_4 	SNIRLostPackets 	0
scalar IntersectionExampleScenario.node[16].nic.mac1609_4 	RXTXLostPackets 	0
scalar IntersectionExampleScenario.node[16].nic.mac1609_4 	TotalLostPackets 	0
scalar IntersectionExampleScenario.node[16].nic.mac1609_4 	DroppedPacketsInMac 	0
scalar IntersectionExampleScenario.node[16].nic.mac1609_4 	TooLittleTime 	0
scalar IntersectionExampleScenario.node[16].nic.mac1609_4 	TimesIntoBackoff 	0
scalar IntersectionExampleScenario.node[16].nic.mac1609_4 	SlotsBackoff 	0
scalar IntersectionExampleScenario.node[16].nic.mac1609_4 	NumInternalContention 	0
scalar IntersectionExampleScenario.node[16].nic.mac1609_4 	totalBusyTime 	0
scalar IntersectionExampleScenario.node[16].veinsmobility 	startTime 	52.25
scalar IntersectionExampleScenario.node[16].veinsmobility 	totalTime 	40.75
scalar IntersectionExampleScenario.node[16].veinsmobility 	stopTime 	93.25
scalar IntersectionExampleScenario.node[16].veinsmobility 	minSpeed 	5.6500000953674
scalar IntersectionExampleScenario.node[16].veinsmobility 	maxSpeed 	15.5
scalar IntersectionExampleScenario.node[16].veinsmobility 	totalDistance 	575.6206817627
scalar IntersectionExampleScenario.node[16].veinsmobility 	totalCO2Emission 	126.67048025921
scalar IntersectionExampleScenario.node[3].appl 	VehicleRemoved 	0
scalar IntersectionExampleScenario.node[3].appl 	ArrivedAtDest 	1
scalar IntersectionExampleScenario.node[3].appl 	IntersectionEnterTime 	13
scalar IntersectionExampleScenario.node[3].appl 	IntersectionExitTime 	83.540695840114
scalar IntersectionExampleScenario.node[3].appl 	NumberOfCollisions 	0
scalar IntersectionExampleScenario.node[3].nic.phy80211p 	busyTime 	0
scalar IntersectionExampleScenario.node[3].nic.mac1609_4 	ReceivedUnicastPackets 	0
scalar IntersectionExampleScenario.node[3].nic.mac1609_4 	ReceivedBroadcasts 	0
scalar IntersectionExampleScenario.node[3].nic.mac1609_4 	SentPackets 	0
scalar IntersectionExampleScenario.node[3].nic.mac1609_4 	SNIRLostPackets 	0
scalar IntersectionExampleScenario.node[3].nic.mac1609_4 	RXTXLostPackets 	0
scalar IntersectionExampleScenario.node[3].nic.mac1609_4 	TotalLostPackets 	0
scalar IntersectionExampleScenario.node[3].nic.mac1609_4 	DroppedPacketsInMac 	0
scalar IntersectionExampleScenario.node[3].nic.mac1609_4 	TooLittleTime 	0
scalar IntersectionExampleScenario.node[3].nic.mac1609_4 	TimesIntoBackoff 	0
scalar IntersectionExampleScenario.node[3].nic.mac1609_4 	SlotsBackoff 	0
scalar IntersectionExampleScenario.node[3].nic.mac1609_4 	NumInternalContention 	0
scalar IntersectionExampleScenario.node[3].nic.mac1609_4 	totalBusyTime 	0
scalar IntersectionExampleScenario.node[3].veinsmobility 	startTime 	13
scalar IntersectionExampleScenario.node[3].veinsmobility 	totalTime 	87.75
scalar IntersectionExampleScenario.node[3].veinsmobility 	stopTime 	101
scalar IntersectionExampleScenario.node[3].veinsmobility 	minSpeed 	0
scalar IntersectionExampleScenario.node[3].veinsmobility 	maxSpeed 	15.25
scalar IntersectionExampleScenario.node[3].veinsmobility 	totalDistance 	546.54975034148
scalar IntersectionExampleScenario.node[3].veinsmobility 	totalCO2Emission 	176.17526546033
scalar IntersectionExampleScenario.node[5].appl 	VehicleRemoved 	0
scalar IntersectionExampleScenario.node[5].appl 	ArrivedAtDest 	1
scalar IntersectionExampleScenario.node[5].appl 	IntersectionEnterTime 	22.75
scalar IntersectionExampleScenario.node[5].appl 	IntersectionExitTime 	85.270363272197
scalar IntersectionExampleScenario.node[5].appl 	NumberOfCollisions 	0
scalar IntersectionExampleScenario.node[5].nic.phy80211p 	busyTime 	0
scalar IntersectionExampleScenario.node[5].nic.mac1609_4 	ReceivedUnicastPackets 	0
scalar IntersectionExampleScenario.node[5].nic.mac1609_4 	ReceivedBroadcasts 	0
scalar IntersectionExampleScenario.node[5].nic.mac1609_4 	SentPackets 	0
scalar IntersectionExampleScenario.node[5].nic.mac1609_4 	SNIRLostPackets 	0
scalar IntersectionExampleScenario.node[5].nic.mac1609_4 	RXTXLostPackets 	0
scalar IntersectionExampleScenario.node[5].nic.mac1609_4 	TotalLostPackets 	0
scalar IntersectionExampleScenario.node[5].nic.mac1609_4 	DroppedPacketsInMac 	0
scalar IntersectionExampleScenario.node[5].nic.mac1609_4 	TooLittleTime 	0
scalar IntersectionExampleScenario.node[5].nic.mac1609_4 	TimesIntoBackoff 	0
scalar IntersectionExampleScenario.node[5].nic.mac1609_4 	SlotsBackoff 	0
scalar IntersectionExampleScenario.node[5].nic.mac1609_4 	NumInternalContention 	0
scalar IntersectionExampleScenario.node[5].nic.mac1609_4 	totalBusyTime 	0
scalar IntersectionExampleScenario.node[5].veinsmobility 	startTime 	22.75
scalar IntersectionExampleScenario.node[5].veinsmobility 	totalTime 	79.25
scalar IntersectionExampleScenario.node[5].veinsmobility 	stopTime 	102.25
scalar IntersectionExampleScenario.node[5].veinsmobility 	minSpeed 	0
scalar IntersectionExampleScenario.node[5].veinsmobility 	maxSpeed 	15.02499961853
scalar IntersectionExampleScenario.node[5].veinsmobility 	totalDistance 	553.98902893066
scalar IntersectionExampleScenario.node[5].veinsmobility 	totalCO2Emission 	164.76227281415
scalar IntersectionExampleScenario.node[8].appl 	VehicleRemoved 	0
scalar IntersectionExampleScenario.node[8].appl 	ArrivedAtDest 	1
scalar IntersectionExampleScenario.node[8].appl 	IntersectionEnterTime 	32.25
scalar IntersectionExampleScenario.node[8].appl 	IntersectionExitTime 	87.559573404957
scalar IntersectionExampleScenario.node[8].appl 	NumberOfCollisions 	0
scalar IntersectionExampleScenario.node[8].nic.phy80211p 	busyTime 	0
scalar IntersectionExampleScenario.node[8].nic.mac1609_4 	ReceivedUnicastPackets 	0
scalar IntersectionExampleScenario.node[8].nic.mac1609_4 	ReceivedBroadcasts 	0
scalar IntersectionExampleScenario.node[8].nic.mac1609_4 	SentPackets 	0
scalar IntersectionExampleScenario.node[8].nic.mac1609_4 	SNIRLostPackets 	0
scalar IntersectionExampleScenario.node[8].nic.mac1609_4 	RXTXLostPackets 	0
scalar IntersectionExampleScenario.node[8].nic.mac1609_4 	TotalLostPackets 	0
scalar IntersectionExampleScenario.node[8].nic.mac1609_4 	DroppedPacketsInMac 	0
scalar IntersectionExampleScenario.node[8].nic.mac1609_4 	TooLittleTime 	0
scalar IntersectionExampleScenario.node[8].nic.mac1609_4 	TimesIntoBackoff 	0
scalar IntersectionExampleScenario.node[8].nic.mac1609_4 	SlotsBackoff 	0
scalar IntersectionExampleScenario.node[8].nic.mac1609_4 	NumInternalContention 	0
scalar IntersectionExampleScenario.node[8].nic.mac1609_4 	totalBusyTime 	0
scalar IntersectionExampleScenario.node[8].veinsmobility 	startTime 	32.25
scalar IntersectionExampleScenario.node[8].veinsmobility 	totalTime 	72.25
scalar IntersectionExampleScenario.node[8].veinsmobility 	stopTime 	104.75
scalar IntersectionExampleScenario.node[8].veinsmobility 	minSpeed 	0
scalar IntersectionExampleScenario.node[8].veinsmobility 	maxSpeed 	15.25
scalar IntersectionExampleScenario.node[8].veinsmobility 	totalDistance 	546.16987562677
scalar IntersectionExampleScenario.node[8].veinsmobility 	totalCO2Emission 	160.44156079016
scalar IntersectionExampleScenario.node[10].appl 	VehicleRemoved 	0
scalar IntersectionExampleScenario.node[10].appl 	ArrivedAtDest 	1
scalar IntersectionExampleScenario.node[10].appl 	IntersectionEnterTime 	40.25
scalar IntersectionExampleScenario.node[10].appl 	IntersectionExitTime 	89.787261220015
scalar IntersectionExampleScenario.node[10].appl 	NumberOfCollisions 	0
scalar IntersectionExampleScenario.node[10].nic.phy80211p 	busyTime 	0
scalar IntersectionExampleScenario.node[10].nic.mac1609_4 	ReceivedUnicastPackets 	0
scalar IntersectionExampleScenario.node[10].nic.mac1609_4 	ReceivedBroadcasts 	0
scalar IntersectionExampleScenario.node[10].nic.mac1609_4 	SentPackets 	0
scalar IntersectionExampleScenario.node[10].nic.mac1609_4 	SNIRLostPackets 	0
scalar IntersectionExampleScenario.node[10].nic.mac1609_4 	RXTXLostPackets 	0
scalar IntersectionExampleScenario.node[10].nic.mac1609_4 	TotalLostPackets 	0
scalar IntersectionExampleScenario.node[10].nic.mac1609_4 	DroppedPacketsInMac 	0
scalar IntersectionExampleScenario.node[10].nic.mac1609_4 	TooLittleTime 	0
scalar IntersectionExampleScenario.node[10].nic.mac1609_4 	TimesIntoBackoff 	0
scalar IntersectionExampleScenario.node[10].nic.mac1609_4 	SlotsBackoff 	0
scalar IntersectionExampleScenario.node[10].nic.mac1609_4 	NumInternalContention 	0
scalar IntersectionExampleScenario.node[10].nic.mac1609_4 	totalBusyTime 	0
scalar IntersectionExampleScenario.node[10].veinsmobility 	startTime 	40.25
scalar IntersectionExampleScenario.node[10].veinsmobility 	totalTime 	66
scalar IntersectionExampleScenario.node[10].veinsmobility 	stopTime 	106.5
scalar IntersectionExampleScenario.node[10].veinsmobility 	minSpeed 	0
scalar IntersectionExampleScenario.node[10].veinsmobility 	maxSpeed 	15.02499961853
scalar IntersectionExampleScenario.node[10].veinsmobility 	totalDistance 	554.80712890625
scalar IntersectionExampleScenario.node[10].veinsmobility 	totalCO2Emission 	150.69966107965
scalar IntersectionExampleScenario.node[20].appl 	VehicleRemoved 	0
scalar IntersectionExampleScenario.node[20].appl 	ArrivedAtDest 	1
scalar IntersectionExampleScenario.node[20].appl 	IntersectionEnterTime 	71.25
scalar IntersectionExampleScenario.node[20].appl 	IntersectionExitTime 	94.274263516767
scalar IntersectionExampleScenario.node[20].appl 	NumberOfCollisions 	0
scalar IntersectionExampleScenario.node[20].nic.phy80211p 	busyTime 	0
scalar IntersectionExampleScenario.node[20].nic.mac1609_4 	ReceivedUnicastPackets 	0
scalar IntersectionExampleScenario.node[20].nic.mac1609_4 	ReceivedBroadcasts 	0
scalar IntersectionExampleScenario.node[20].nic.mac1609_4 	SentPackets 	0
scalar IntersectionExampleScenario.node[20].nic.mac1609_4 	SNIRLostPackets 	0
scalar IntersectionExampleScenario.node[20].nic.mac1609_4 	RXTXLostPackets 	0
scalar IntersectionExampleScenario.node[20].nic.mac1609_4 	TotalLostPackets 	0
scalar IntersectionExampleScenario.node[20].nic.mac1609_4 	DroppedPacketsInMac 	0
scalar IntersectionExampleScenario.node[20].nic.mac1609_4 	TooLittleTime 	0
scalar IntersectionExampleScenario.node[20].nic.mac1609_4 	TimesIntoBackoff 	0
scalar IntersectionExampleScenario.node[20].nic.mac1609_4 	SlotsBackoff 	0
scalar IntersectionExampleScenario.node[20].nic.mac1609_4 	NumInternalContention 	0
scalar IntersectionExampleScenario.node[20].nic.mac1609_4 	totalBusyTime 	0
scalar IntersectionExampleScenario.node[20].veinsmobility 	startTime 	71.25
scalar IntersectionExampleScenario.node[20].veinsmobility 	totalTime 	39.5
scalar IntersectionExampleScenario.node[20].veinsmobility 	stopTime 	111
scalar IntersectionExampleScenario.node[20].veinsmobility 	minSpeed 	5.6500000953674
scalar IntersectionExampleScenario.node[20].veinsmobility 	maxSpeed 	15.867288589478
scalar IntersectionExampleScenario.node[20].veinsmobility 	totalDistance 	545.53382868338
scalar IntersectionExampleScenario.node[20].veinsmobility 	totalCO2Emission 	130.60264210839
scalar IntersectionExampleScenario.node[23].appl 	VehicleRemoved 	0
scalar IntersectionExampleScenario.node[23].appl 	ArrivedAtDest 	1
scalar IntersectionExampleScenario.node[23].appl 	IntersectionEnterTime 	75.75
scalar IntersectionExampleScenario.node[23].appl 	IntersectionExitTime 	98.842426372634
scalar IntersectionExampleScenario.node[23].appl 	NumberOfCollisions 	0
scalar IntersectionExampleScenario.node[23].nic.phy80211p 	busyTime 	0
scalar IntersectionExampleScenario.node[23].nic.mac1609_4 	ReceivedUnicastPackets 	0
scalar IntersectionExampleScenario.node[23].nic.mac1609_4 	ReceivedBroadcasts 	0
scalar IntersectionExampleScenario.node[23].nic.mac1609_4 	SentPackets 	0
scalar IntersectionExampleScenario.node[23].nic.mac1609_4 	SNIRLostPackets 	0
scalar IntersectionExampleScenario.node[23].nic.mac1609_4 	RXTXLostPackets 	0
scalar IntersectionExampleScenario.node[23].nic.mac1609_4 	TotalLostPackets 	0
scalar IntersectionExampleScenario.node[23].nic.mac1609_4 	DroppedPacketsInMac 	0
scalar IntersectionExampleScenario.node[23].nic.mac1609_4 	TooLittleTime 	0
scalar IntersectionExampleScenario.node[23].nic.mac1609_4 	TimesIntoBackoff 	0
scalar IntersectionExampleScenario.node[23].nic.mac1609_4 	SlotsBackoff 	0
scalar IntersectionExampleScenario.node[23].nic.mac1609_4 	NumInternalContention 	0
scalar IntersectionExampleScenario.node[23].nic.mac1609_4 	totalBusyTime 	0
scalar IntersectionExampleScenario.node[23].veinsmobility 	startTime 	75.75
scalar IntersectionExampleScenario.node[23].veinsmobility 	totalTime 	39
scalar IntersectionExampleScenario.node[23].veinsmobility 	stopTime 	115
scalar IntersectionExampleScenario.node[23].veinsmobility 	minSpeed 	5.6500000953674
scalar IntersectionExampleScenario.node[23].veinsmobility 	maxSpeed 	16.091711044312
scalar IntersectionExampleScenario.node[23].veinsmobility 	totalDistance 	544.20790910821
scalar IntersectionExampleScenario.node[23].veinsmobility 	totalCO2Emission 	130.34717812448
scalar IntersectionExampleScenario.node[9].appl 	VehicleRemoved 	0
scalar IntersectionExampleScenario.node[9].appl 	ArrivedAtDest 	1
scalar IntersectionExampleScenario.node[9].appl 	IntersectionEnterTime 	36.75
scalar IntersectionExampleScenario.node[9].appl 	IntersectionExitTime 	99.514684615569
scalar IntersectionExampleScenario.node[9].appl 	NumberOfCollisions 	0
scalar IntersectionExampleScenario.node[9].nic.phy80211p 	busyTime 	0
scalar IntersectionExampleScenario.node[9].nic.mac1609_4 	ReceivedUnicastPackets 	0
scalar IntersectionExampleScenario.node[9].nic.mac1609_4 	ReceivedBroadcasts 	0
scalar IntersectionExampleScenario.node[9].nic.mac1609_4 	SentPackets 	0
scalar IntersectionExampleScenario.node[9].nic.mac1609_4 	SNIRLostPackets 	0
scalar IntersectionExampleScenario.node[9].nic.mac1609_4 	RXTXLostPackets 	0
scalar IntersectionExampleScenario.node[9].nic.mac1609_4 	TotalLostPackets 	0
scalar IntersectionExampleScenario.node[9].nic.mac1609_4 	DroppedPacketsInMac 	0
scalar IntersectionExampleScenario.node[9].nic.mac1609_4 	TooLittleTime 	0
scalar IntersectionExampleScenario.node[9].nic.mac1609_4 	TimesIntoBackoff 	0
scalar IntersectionExampleScenario.node[9].nic.mac1609_4 	SlotsBackoff 	0
scalar IntersectionExampleScenario.node[9].nic.mac1609_4 	NumInternalContention 	0
scalar IntersectionExampleScenario.node[9].nic.mac1609_4 	totalBusyTime 	0
scalar IntersectionExampleScenario.node[9].veinsmobility 	startTime 	36.75
scalar IntersectionExampleScenario.node[9].veinsmobility 	totalTime 	78.5
scalar IntersectionExampleScenario.node[9].veinsmobility 	stopTime 	115.5
scalar IntersectionExampleScenario.node[9].veinsmobility 	minSpeed 	0
scalar IntersectionExampleScenario.node[9].veinsmobility 	maxSpeed 	16.89999961853
scalar IntersectionExampleScenario.node[9].veinsmobility 	totalDistance 	542.29387570769
scalar IntersectionExampleScenario.node[9].veinsmobility 	totalCO2Emission 	178.69608089938
scalar IntersectionExampleScenario.node[15].appl 	VehicleRemoved 	0
scalar IntersectionExampleScenario.node[15].appl 	ArrivedAtDest 	1
scalar IntersectionExampleScenario.node[15].appl 	IntersectionEnterTime 	52
scalar IntersectionExampleScenario.node[15].appl 	IntersectionExitTime 	101.26316015428
scalar IntersectionExampleScenario.node[15].appl 	NumberOfCollisions 	0
scalar IntersectionExampleScenario.node[15].nic.phy80211p 	busyTime 	0
scalar IntersectionExampleScenario.node[15].nic.mac1609_4 	ReceivedUnicastPackets 	0
scalar IntersectionExampleScenario.node[15].nic.mac1609_4 	ReceivedBroadcasts 	0
scalar IntersectionExampleScenario.node[15].nic.mac1609_4 	SentPackets 	0
scalar IntersectionExampleScenario.node[15].nic.mac1609_4 	SNIRLostPackets 	0
scalar IntersectionExampleScenario.node[15].nic.mac1609_4 	RXTXLostPackets 	0
scalar IntersectionExampleScenario.node[15].nic.mac1609_4 	TotalLostPackets 	0
scalar IntersectionExampleScenario.node[15].nic.mac1609_4 	DroppedPacketsInMac 	0
scalar IntersectionExampleScenario.node[15].nic.mac1609_4 	TooLittleTime 	0
scalar IntersectionExampleScenario.node[15].nic.mac1609_4 	TimesIntoBackoff 	0
scalar IntersectionExampleScenario.node[15].nic.mac1609_4 	SlotsBackoff 	0
scalar IntersectionExampleScenario.node[15].nic.mac1609_4 	NumInternalContention 	0
scalar IntersectionExampleScenario.node[15].nic.mac1609_4 	totalBusyTime 	0
scalar IntersectionExampleScenario.node[15].veinsmobility 	startTime 	52
scalar IntersectionExampleScenario.node[15].veinsmobility 	totalTime 	65
scalar IntersectionExampleScenario.node[15].veinsmobility 	stopTime 	117.25
scalar IntersectionExampleScenario.node[15].veinsmobility 	minSpeed 	0
scalar IntersectionExampleScenario.node[15].veinsmobility 	maxSpeed 	16.27499961853
scalar IntersectionExampleScenario.node[15].veinsmobility 	totalDistance 	550.02166516761
scalar IntersectionExampleScenario.node[15].veinsmobility 	totalCO2Emission 	160.69215213304
scalar IntersectionExampleScenario.node[19].appl 	VehicleRemoved 	0
scalar IntersectionExampleScenario.node[19].appl 	ArrivedAtDest 	1
scalar IntersectionExampleScenario.node[19].appl 	IntersectionEnterTime 	69.25
scalar IntersectionExampleScenario.node[19].appl 	IntersectionExitTime 	103.32604794446
scalar IntersectionExampleScenario.node[19].appl 	NumberOfCollisions 	0
scalar IntersectionExampleScenario.node[19].nic.phy80211p 	busyTime 	0
scalar IntersectionExampleScenario.node[19].nic.mac1609_4 	ReceivedUnicastPackets 	0
scalar IntersectionExampleScenario.node[19].nic.mac1609_4 	ReceivedBroadcasts 	0
scalar IntersectionExampleScenario.node[19].nic.mac1609_4 	SentPackets 	0
scalar IntersectionExampleScenario.node[19].nic.mac1609_4 	SNIRLostPackets 	0
scalar IntersectionExampleScenario.node[19].nic.mac1609_4 	RXTXLostPackets 	0
scalar IntersectionExampleScenario.node[19].nic.mac1609_4 	TotalLostPackets 	0
scalar IntersectionExampleScenario.node[19].nic.mac1609_4 	DroppedPacketsInMac 	0
scalar IntersectionExampleScenario.node[19].nic.mac1609_4 	TooLittleTime 	0
scalar IntersectionExampleScenario.node[19].nic.mac1609_4 	TimesIntoBackoff 	0
scalar IntersectionExampleScenario.node[19].nic.mac1609_4 	SlotsBackoff 	0
scalar IntersectionExampleScenario.node[19].nic.mac1609_4 	NumInternalContention 	0
scalar IntersectionExampleScenario.node[19].nic.mac1609_4 	totalBusyTime 	0
scalar IntersectionExampleScenario.node[19].veinsmobility 	startTime 	69.25
scalar IntersectionExampleScenario.node[19].veinsmobility 	totalTime 	50.5
scalar IntersectionExampleScenario.node[19].veinsmobility 	stopTime 	120
scalar IntersectionExampleScenario.node[19].veinsmobility 	minSpeed 	1.3494530916214
scalar IntersectionExampleScenario.node[19].veinsmobility 	maxSpeed 	15.875
scalar IntersectionExampleScenario.node[19].veinsmobility 	totalDistance 	543.44431314019
scalar IntersectionExampleScenario.node[19].veinsmobility 	totalCO2Emission 	140.78002287314
scalar IntersectionExampleScenario.node[22].appl 	VehicleRemoved 	0
scalar IntersectionExampleScenario.node[22].appl 	ArrivedAtDest 	1
scalar IntersectionExampleScenario.node[22].appl 	IntersectionEnterTime 	75
scalar IntersectionExampleScenario.node[22].appl 	IntersectionExitTime 	105.59014404667
scalar IntersectionExampleScenario.node[22].appl 	NumberOfCollisions 	0
scalar IntersectionExampleScenario.node[22].nic.phy80211p 	busyTime 	0
scalar IntersectionExampleScenario.node[22].nic.mac1609_4 	ReceivedUnicastPackets 	0
scalar IntersectionExampleScenario.node[22].nic.mac1609_4 	ReceivedBroadcasts 	0
scalar IntersectionExampleScenario.node[22].nic.mac1609_4 	SentPackets 	0
scalar IntersectionExampleScenario.node[22].nic.mac1609_4 	SNIRLostPackets 	0
scalar IntersectionExampleScenario.node[22].nic.mac1609_4 	RXTXLostPackets 	0
scalar IntersectionExampleScenario.node[22].nic.mac1609_4 	TotalLostPackets 	0
scalar IntersectionExampleScenario.node[22].nic.mac1609_4 	DroppedPacketsInMac 	0
scalar IntersectionExampleScenario.node[22].nic.mac1609_4 	TooLittleTime 	0
scalar IntersectionExampleScenario.node[22].nic.mac1609_4 	TimesIntoBackoff 	0
scalar IntersectionExampleScenario.node[22].nic.mac1609_4 	SlotsBackoff 	0
scalar IntersectionExampleScenario.node[22].nic.mac1609_4 	NumInternalContention 	0
scalar IntersectionExampleScenario.node[22].nic.mac1609_4 	totalBusyTime 	0
scalar IntersectionExampleScenario.node[22].veinsmobility 	startTime 	75
scalar IntersectionExampleScenario.node[22].veinsmobility 	totalTime 	47
scalar IntersectionExampleScenario.node[22].veinsmobility 	stopTime 	122.25
scalar IntersectionExampleScenario.node[22].veinsmobility 	minSpeed 	4.5476970672607
scalar IntersectionExampleScenario.node[22].veinsmobility 	maxSpeed 	15.375
scalar IntersectionExampleScenario.node[22].veinsmobility 	totalDistance 	550.43880082548
scalar IntersectionExampleScenario.node[22].veinsmobility 	totalCO2Emission 	134.77080683889
scalar IntersectionExampleScenario.node[24].appl 	VehicleRemoved 	0
scalar IntersectionExampleScenario.node[24].appl 	ArrivedAtDest 	1
scalar IntersectionExampleScenario.node[24].appl 	IntersectionEnterTime 	81.25
scalar IntersectionExampleScenario.node[24].appl 	IntersectionExitTime 	107.08870612131
scalar IntersectionExampleScenario.node[24].appl 	NumberOfCollisions 	0
scalar IntersectionExampleScenario.node[24].nic.phy80211p 	busyTime 	0
scalar IntersectionExampleScenario.node[24].nic.mac1609_4 	ReceivedUnicastPackets 	0
scalar IntersectionExampleScenario.node[24].nic.mac1609_4 	ReceivedBroadcasts 	0
scalar IntersectionExampleScenario.node[24].nic.mac1609_4 	SentPackets 	0
scalar IntersectionExampleScenario.node[24].nic.mac1609_4 	SNIRLostPackets 	0
scalar IntersectionExampleScenario.node[24].nic.mac1609_4 	RXTXLostPackets 	0
scalar IntersectionExampleScenario.node[24].nic.mac1609_4 	TotalLostPackets 	0
scalar IntersectionExampleScenario.node[24].nic.mac1609_4 	DroppedPacketsInMac 	0
scalar IntersectionExampleScenario.node[24].nic.mac1609_4 	TooLittleTime 	0
scalar IntersectionExampleScenario.node[24].nic.mac1609_4 	TimesIntoBackoff 	0
scalar IntersectionExampleScenario.node[24].nic.mac1609_4 	SlotsBackoff 	0
scalar IntersectionExampleScenario.node[24].nic.mac1609_4 	NumInternalContention 	0
scalar IntersectionExampleScenario.node[24].nic.mac1609_4 	totalBusyTime 	0
scalar IntersectionExampleScenario.node[24].veinsmobility 	startTime 	81.25
scalar IntersectionExampleScenario.node[24].veinsmobility 	totalTime 	41.75
scalar IntersectionExampleScenario.node[24].veinsmobility 	stopTime 	123.25
scalar IntersectionExampleScenario.node[24].veinsmobility 	minSpeed 	5.6500000953674
scalar IntersectionExampleScenario.node[24].veinsmobility 	maxSpeed 	15.5
scalar IntersectionExampleScenario.node[24].veinsmobility 	totalDistance 	553.90327453613
scalar IntersectionExampleScenario.node[24].veinsmobility 	totalCO2Emission 	125.86712064973
scalar IntersectionExampleScenario.node[25].appl 	VehicleRemoved 	0
scalar IntersectionExampleScenario.node[25].appl 	ArrivedAtDest 	1
scalar IntersectionExampleScenario.node[25].appl 	IntersectionEnterTime 	82.75
scalar IntersectionExampleScenario.node[25].appl 	IntersectionExitTime 	108.86740503827
scalar IntersectionExampleScenario.node[25].appl 	NumberOfCollisions 	0
scalar IntersectionExampleScenario.node[25].nic.phy80211p 	busyTime 	0
scalar IntersectionExampleScenario.node[25].nic.mac1609_4 	ReceivedUnicastPackets 	0
scalar IntersectionExampleScenario.node[25].nic.mac1609_4 	ReceivedBroadcasts 	0
scalar IntersectionExampleScenario.node[25].nic.mac1609_4 	SentPackets 	0
scalar IntersectionExampleScenario.node[25].nic.mac1609_4 	SNIRLostPackets 	0
scalar IntersectionExampleScenario.node[25].nic.mac1609_4 	RXTXLostPackets 	0
scalar IntersectionExampleScenario.node[25].nic.mac1609_4 	TotalLostPackets 	0
scalar IntersectionExampleScenario.node[25].nic.mac1609_4 	DroppedPacketsInMac 	0
scalar IntersectionExampleScenario.node[25].nic.mac1609_4 	TooLittleTime 	0
scalar IntersectionExampleScenario.node[25].nic.mac1609_4 	TimesIntoBackoff 	0
scalar IntersectionExampleScenario.node[25].nic.mac1609_4 	SlotsBackoff 	0
scalar IntersectionExampleScenario.node[25].nic.mac1609_4 	NumInternalContention 	0
scalar IntersectionExampleScenario.node[25].nic.mac1609_4 	totalBusyTime 	0
scalar IntersectionExampleScenario.node[25].veinsmobility 	startTime 	82.75
scalar IntersectionExampleScenario.node[25].veinsmobility 	totalTime 	42
scalar IntersectionExampleScenario.node[25].veinsmobility 	stopTime 	125
scalar IntersectionExampleScenario.node[25].veinsmobility 	minSpeed 	5.6500000953674
scalar IntersectionExampleScenario.node[25].veinsmobility 	maxSpeed 	15.64999961853
scalar IntersectionExampleScenario.node[25].veinsmobility 	totalDistance 	569.42680271977
scalar IntersectionExampleScenario.node[25].veinsmobility 	totalCO2Emission 	127.14280921701
scalar IntersectionExampleScenario.node[26].appl 	VehicleRemoved 	0
scalar IntersectionExampleScenario.node[26].appl 	ArrivedAtDest 	1
scalar IntersectionExampleScenario.node[26].appl 	IntersectionEnterTime 	84.25
scalar IntersectionExampleScenario.node[26].appl 	IntersectionExitTime 	110.55012135804
scalar IntersectionExampleScenario.node[26].appl 	NumberOfCollisions 	0
scalar IntersectionExampleScenario.node[26].nic.phy80211p 	busyTime 	0
scalar IntersectionExampleScenario.node[26].nic.mac1609_4 	ReceivedUnicastPackets 	0
scalar IntersectionExampleScenario.node[26].nic.mac1609_4 	ReceivedBroadcasts 	0
scalar IntersectionExampleScenario.node[26].nic.mac1609_4 	SentPackets 	0
scalar IntersectionExampleScenario.node[26].nic.mac1609_4 	SNIRLostPackets 	0
scalar IntersectionExampleScenario.node[26].nic.mac1609_4 	RXTXLostPackets 	0
scalar IntersectionExampleScenario.node[26].nic.mac1609_4 	TotalLostPackets 	0
scalar IntersectionExampleScenario.node[26].nic.mac1609_4 	DroppedPacketsInMac 	0
scalar IntersectionExampleScenario.node[26].nic.mac1609_4 	TooLittleTime 	0
scalar IntersectionExampleScenario.node[26].nic.mac1609_4 	TimesIntoBackoff 	0
scalar IntersectionExampleScenario.node[26].nic.mac1609_4 	SlotsBackoff 	0
scalar IntersectionExampleScenario.node[26].nic.mac1609_4 	NumInternalContention 	0
scalar IntersectionExampleScenario.node[26].nic.mac1609_4 	totalBusyTime 	0
scalar IntersectionExampleScenario.node[26].veinsmobility 	startTime 	84.25
scalar IntersectionExampleScenario.node[26].veinsmobility 	totalTime 	42
scalar IntersectionExampleScenario.node[26].veinsmobility 	stopTime 	126.5
scalar IntersectionExampleScenario.node[26].veinsmobility 	minSpeed 	5.6500000953674
scalar IntersectionExampleScenario.node[26].veinsmobility 	maxSpeed 	16.028867721558
scalar IntersectionExampleScenario.node[26].veinsmobility 	totalDistance 	581.89796845207
scalar IntersectionExampleScenario.node[26].veinsmobility 	totalCO2Emission 	133.79793956801
scalar IntersectionExampleScenario.node[12].appl 	VehicleRemoved 	0
scalar IntersectionExampleScenario.node[12].appl 	ArrivedAtDest 	1
scalar IntersectionExampleScenario.node[12].appl 	IntersectionEnterTime 	44.25
scalar IntersectionExampleScenario.node[12].appl 	IntersectionExitTime 	116.35285905877
scalar IntersectionExampleScenario.node[12].appl 	NumberOfCollisions 	0
scalar IntersectionExampleScenario.node[12].nic.phy80211p 	busyTime 	0
scalar IntersectionExampleScenario.node[12].nic.mac1609_4 	ReceivedUnicastPackets 	0
scalar IntersectionExampleScenario.node[12].nic.mac1609_4 	ReceivedBroadcasts 	0
scalar IntersectionExampleScenario.node[12].nic.mac1609_4 	SentPackets 	0
scalar IntersectionExampleScenario.node[12].nic.mac1609_4 	SNIRLostPackets 	0
scalar IntersectionExampleScenario.node[12].nic.mac1609_4 	RXTXLostPackets 	0
scalar IntersectionExampleScenario.node[12].nic.mac1609_4 	TotalLostPackets 	0
scalar IntersectionExampleScenario.node[12].nic.mac1609_4 	DroppedPacketsInMac 	0
scalar IntersectionExampleScenario.node[12].nic.mac1609_4 	TooLittleTime 	0
scalar IntersectionExampleScenario.node[12].nic.mac1609_4 	TimesIntoBackoff 	0
scalar IntersectionExampleScenario.node[12].nic.mac1609_4 	SlotsBackoff 	0
scalar IntersectionExampleScenario.node[12].nic.mac1609_4 	NumInternalContention 	0
scalar IntersectionExampleScenario.node[12].nic.mac1609_4 	totalBusyTime 	0
scalar IntersectionExampleScenario.node[12].veinsmobility 	startTime 	44.25
scalar IntersectionExampleScenario.node[12].veinsmobility 	totalTime 	88
scalar IntersectionExampleScenario.node[12].veinsmobility 	stopTime 	132.5
scalar IntersectionExampleScenario.node[12].veinsmobility 	minSpeed 	0
scalar IntersectionExampleScenario.node[12].veinsmobility 	maxSpeed 	15.64999961853
scalar IntersectionExampleScenario.node[12].veinsmobility 	totalDistance 	549.96211351504
scalar IntersectionExampleScenario.node[12].veinsmobility 	totalCO2Emission 	180.8176609639
scalar IntersectionExampleScenario.node[13].appl 	VehicleRemoved 	0
scalar IntersectionExampleScenario.node[13].appl 	ArrivedAtDest 	1
scalar IntersectionExampleScenario.node[13].appl 	IntersectionEnterTime 	46.75
scalar IntersectionExampleScenario.node[13].appl 	IntersectionExitTime 	117.03230147943
scalar IntersectionExampleScenario.node[13].appl 	NumberOfCollisions 	0
scalar IntersectionExampleScenario.node[13].nic.phy80211p 	busyTime 	0
scalar IntersectionExampleScenario.node[13].nic.mac1609_4 	ReceivedUnicastPackets 	0
scalar IntersectionExampleScenario.node[13].nic.mac1609_4 	ReceivedBroadcasts 	0
scalar IntersectionExampleScenario.node[13].nic.mac1609_4 	SentPackets 	0
scalar IntersectionExampleScenario.node[13].nic.mac1609_4 	SNIRLostPackets 	0
scalar IntersectionExampleScenario.node[13].nic.mac1609_4 	RXTXLostPackets 	0
scalar IntersectionExampleScenario.node[13].nic.mac1609_4 	TotalLostPackets 	0
scalar IntersectionExampleScenario.node[13].nic.mac1609_4 	DroppedPacketsInMac 	0
scalar IntersectionExampleScenario.node[13].nic.mac1609_4 	TooLittleTime 	0
scalar IntersectionExampleScenario.node[13].nic.mac1609_4 	TimesIntoBackoff 	0
scalar IntersectionExampleScenario.node[13].nic.mac1609_4 	SlotsBackoff 	0
scalar IntersectionExampleScenario.node[13].nic.mac1609_4 	NumInternalContention 	0
scalar IntersectionExampleScenario.node[13].nic.mac1609_4 	totalBusyTime 	0
scalar IntersectionExampleScenario.node[13].veinsmobility 	startTime 	46.75
scalar IntersectionExampleScenario.node[13].veinsmobility 	totalTime 	87.5
scalar IntersectionExampleScenario.node[13].veinsmobility 	stopTime 	134.5
scalar IntersectionExampleScenario.node[13].veinsmobility 	minSpeed 	0
scalar IntersectionExampleScenario.node[13].veinsmobility 	maxSpeed 	15.02499961853
scalar IntersectionExampleScenario.node[13].veinsmobility 	totalDistance 	558.97381297405
scalar IntersectionExampleScenario.node[13].veinsmobility 	totalCO2Emission 	175.29070828118
scalar IntersectionExampleScenario.node[21].appl 	VehicleRemoved 	0
scalar IntersectionExampleScenario.node[21].appl 	ArrivedAtDest 	1
scalar IntersectionExampleScenario.node[21].appl 	IntersectionEnterTime 	72.25
scalar IntersectionExampleScenario.node[21].appl 	IntersectionExitTime 	121.2714080523
scalar IntersectionExampleScenario.node[21].appl 	NumberOfCollisions 	0
scalar IntersectionExampleScenario.node[21].nic.phy80211p 	busyTime 	0
scalar IntersectionExampleScenario.node[21].nic.mac1609_4 	ReceivedUnicastPackets 	0
scalar IntersectionExampleScenario.node[21].nic.mac1609_4 	ReceivedBroadcasts 	0
scalar IntersectionExampleScenario.node[21].nic.mac1609_4 	SentPackets 	0
scalar IntersectionExampleScenario.node[21].nic.mac1609_4 	SNIRLostPackets 	0
scalar IntersectionExampleScenario.node[21].nic.mac1609_4 	RXTXLostPackets 	0
scalar IntersectionExampleScenario.node[21].nic.mac1609_4 	TotalLostPackets 	0
scalar IntersectionExampleScenario.node[21].nic.mac1609_4 	DroppedPacketsInMac 	0
scalar IntersectionExampleScenario.node[21].nic.mac1609_4 	TooLittleTime 	0
scalar IntersectionExampleScenario.node[21].nic.mac1609_4 	TimesIntoBackoff 	0
scalar IntersectionExampleScenario.node[21].nic.mac1609_4 	SlotsBackoff 	0
scalar IntersectionExampleScenario.node[21].nic.mac1609_4 	NumInternalContention 	0
scalar IntersectionExampleScenario.node[21].nic.mac1609_4 	totalBusyTime 	0
scalar IntersectionExampleScenario.node[21].veinsmobility 	startTime 	72.25
scalar IntersectionExampleScenario.node[21].veinsmobility 	totalTime 	64.75
scalar IntersectionExampleScenario.node[21].veinsmobility 	stopTime 	137.25
scalar IntersectionExampleScenario.node[21].veinsmobility 	minSpeed 	0
scalar IntersectionExampleScenario.node[21].veinsmobility 	maxSpeed 	16.0980052948
scalar IntersectionExampleScenario.node[21].veinsmobility 	totalDistance 	551.40968785914
scalar IntersectionExampleScenario.node[21].veinsmobility 	totalCO2Emission 	160.61885340021
scalar IntersectionExampleScenario.node[18].appl 	VehicleRemoved 	0
scalar IntersectionExampleScenario.node[18].appl 	ArrivedAtDest 	1
scalar IntersectionExampleScenario.node[18].appl 	IntersectionEnterTime 	67
scalar IntersectionExampleScenario.node[18].appl 	IntersectionExitTime 	119.59506982943
scalar IntersectionExampleScenario.node[18].appl 	NumberOfCollisions 	0
scalar IntersectionExampleScenario.node[18].nic.phy80211p 	busyTime 	0
scalar IntersectionExampleScenario.node[18].nic.mac1609_4 	ReceivedUnicastPackets 	0
scalar IntersectionExampleScenario.node[18].nic.mac1609_4 	ReceivedBroadcasts 	0
scalar IntersectionExampleScenario.node[18].nic.mac1609_4 	SentPackets 	0
scalar IntersectionExampleScenario.node[18].nic.mac1609_4 	SNIRLostPackets 	0
scalar IntersectionExampleScenario.node[18].nic.mac1609_4 	RXTXLostPackets 	0
scalar IntersectionExampleScenario.node[18].nic.mac1609_4 	TotalLostPackets 	0
scalar IntersectionExampleScenario.node[18].nic.mac1609_4 	DroppedPacketsInMac 	0
scalar IntersectionExampleScenario.node[18].nic.mac1609_4 	TooLittleTime 	0
scalar IntersectionExampleScenario.node[18].nic.mac1609_4 	TimesIntoBackoff 	0
scalar IntersectionExampleScenario.node[18].nic.mac1609_4 	SlotsBackoff 	0
scalar IntersectionExampleScenario.node[18].nic.mac1609_4 	NumInternalContention 	0
scalar IntersectionExampleScenario.node[18].nic.mac1609_4 	totalBusyTime 	0
scalar IntersectionExampleScenario.node[18].veinsmobility 	startTime 	67
scalar IntersectionExampleScenario.node[18].veinsmobility 	totalTime 	70
scalar IntersectionExampleScenario.node[18].veinsmobility 	stopTime 	137.25
scalar IntersectionExampleScenario.node[18].veinsmobility 	minSpeed 	0
scalar IntersectionExampleScenario.node[18].veinsmobility 	maxSpeed 	14.446394920349
scalar IntersectionExampleScenario.node[18].veinsmobility 	totalDistance 	544.24583900911
scalar IntersectionExampleScenario.node[18].veinsmobility 	totalCO2Emission 	152.96462648942
scalar IntersectionExampleScenario.node[29].appl 	VehicleRemoved 	0
scalar IntersectionExampleScenario.node[29].appl 	ArrivedAtDest 	1
scalar IntersectionExampleScenario.node[29].appl 	IntersectionEnterTime 	92
scalar IntersectionExampleScenario.node[29].appl 	IntersectionExitTime 	123.01388250856
scalar IntersectionExampleScenario.node[29].appl 	NumberOfCollisions 	0
scalar IntersectionExampleScenario.node[29].nic.phy80211p 	busyTime 	0
scalar IntersectionExampleScenario.node[29].nic.mac1609_4 	ReceivedUnicastPackets 	0
scalar IntersectionExampleScenario.node[29].nic.mac1609_4 	ReceivedBroadcasts 	0
scalar IntersectionExampleScenario.node[29].nic.mac1609_4 	SentPackets 	0
scalar IntersectionExampleScenario.node[29].nic.mac1609_4 	SNIRLostPackets 	0
scalar IntersectionExampleScenario.node[29].nic.mac1609_4 	RXTXLostPackets 	0
scalar IntersectionExampleScenario.node[29].nic.mac1609_4 	TotalLostPackets 	0
scalar IntersectionExampleScenario.node[29].nic.mac1609_4 	DroppedPacketsInMac 	0
scalar IntersectionExampleScenario.node[29].nic.mac1609_4 	TooLittleTime 	0
scalar IntersectionExampleScenario.node[29].nic.mac1609_4 	TimesIntoBackoff 	0
scalar IntersectionExampleScenario.node[29].nic.mac1609_4 	SlotsBackoff 	0
scalar IntersectionExampleScenario.node[29].nic.mac1609_4 	NumInternalContention 	0
scalar IntersectionExampleScenario.node[29].nic.mac1609_4 	totalBusyTime 	0
scalar IntersectionExampleScenario.node[29].veinsmobility 	startTime 	92
scalar IntersectionExampleScenario.node[29].veinsmobility 	totalTime 	46.75
scalar IntersectionExampleScenario.node[29].veinsmobility 	stopTime 	139
scalar IntersectionExampleScenario.node[29].veinsmobility 	minSpeed 	3.2352786064148
scalar IntersectionExampleScenario.node[29].veinsmobility 	maxSpeed 	15.64999961853
scalar IntersectionExampleScenario.node[29].veinsmobility 	totalDistance 	552.16617584229
scalar IntersectionExampleScenario.node[29].veinsmobility 	totalCO2Emission 	137.68014556624
scalar IntersectionExampleScenario.node[32].appl 	VehicleRemoved 	0
scalar IntersectionExampleScenario.node[32].appl 	ArrivedAtDest 	1
scalar IntersectionExampleScenario.node[32].appl 	IntersectionEnterTime 	102.25
scalar IntersectionExampleScenario.node[32].appl 	IntersectionExitTime 	126.07091797652
scalar IntersectionExampleScenario.node[32].appl 	NumberOfCollisions 	0
scalar IntersectionExampleScenario.node[32].nic.phy80211p 	busyTime 	0
scalar IntersectionExampleScenario.node[32].nic.mac1609_4 	ReceivedUnicastPackets 	0
scalar IntersectionExampleScenario.node[32].nic.mac1609_4 	ReceivedBroadcasts 	0
scalar IntersectionExampleScenario.node[32].nic.mac1609_4 	SentPackets 	0
scalar IntersectionExampleScenario.node[32].nic.mac1609_4 	SNIRLostPackets 	0
scalar IntersectionExampleScenario.node[32].nic.mac1609_4 	RXTXLostPackets 	0
scalar IntersectionExampleScenario.node[32].nic.mac1609_4 	TotalLostPackets 	0
scalar IntersectionExampleScenario.node[32].nic.mac1609_4 	DroppedPacketsInMac 	0
scalar IntersectionExampleScenario.node[32].nic.mac1609_4 	TooLittleTime 	0
scalar IntersectionExampleScenario.node[32].nic.mac1609_4 	TimesIntoBackoff 	0
scalar IntersectionExampleScenario.node[32].nic.mac1609_4 	SlotsBackoff 	0
scalar IntersectionExampleScenario.node[32].nic.mac1609_4 	NumInternalContention 	0
scalar IntersectionExampleScenario.node[32].nic.mac1609_4 	totalBusyTime 	0
scalar IntersectionExampleScenario.node[32].veinsmobility 	startTime 	102.25
scalar IntersectionExampleScenario.node[32].veinsmobility 	totalTime 	40.25
scalar IntersectionExampleScenario.node[32].veinsmobility 	stopTime 	142.75
scalar IntersectionExampleScenario.node[32].veinsmobility 	minSpeed 	5.6500000953674
scalar IntersectionExampleScenario.node[32].veinsmobility 	maxSpeed 	15.64999961853
scalar IntersectionExampleScenario.node[32].veinsmobility 	totalDistance 	551.06701258377
scalar IntersectionExampleScenario.node[32].veinsmobility 	totalCO2Emission 	135.28666806712
scalar IntersectionExampleScenario.node[17].appl 	VehicleRemoved 	0
scalar IntersectionExampleScenario.node[17].appl 	ArrivedAtDest 	1
scalar IntersectionExampleScenario.node[17].appl 	IntersectionEnterTime 	65
scalar IntersectionExampleScenario.node[17].appl 	IntersectionExitTime 	132.25804838267
scalar IntersectionExampleScenario.node[17].appl 	NumberOfCollisions 	0
scalar IntersectionExampleScenario.node[17].nic.phy80211p 	busyTime 	0
scalar IntersectionExampleScenario.node[17].nic.mac1609_4 	ReceivedUnicastPackets 	0
scalar IntersectionExampleScenario.node[17].nic.mac1609_4 	ReceivedBroadcasts 	0
scalar IntersectionExampleScenario.node[17].nic.mac1609_4 	SentPackets 	0
scalar IntersectionExampleScenario.node[17].nic.mac1609_4 	SNIRLostPackets 	0
scalar IntersectionExampleScenario.node[17].nic.mac1609_4 	RXTXLostPackets 	0
scalar IntersectionExampleScenario.node[17].nic.mac1609_4 	TotalLostPackets 	0
scalar IntersectionExampleScenario.node[17].nic.mac1609_4 	DroppedPacketsInMac 	0
scalar IntersectionExampleScenario.node[17].nic.mac1609_4 	TooLittleTime 	0
scalar IntersectionExampleScenario.node[17].nic.mac1609_4 	TimesIntoBackoff 	0
scalar IntersectionExampleScenario.node[17].nic.mac1609_4 	SlotsBackoff 	0
scalar IntersectionExampleScenario.node[17].nic.mac1609_4 	NumInternalContention 	0
scalar IntersectionExampleScenario.node[17].nic.mac1609_4 	totalBusyTime 	0
scalar IntersectionExampleScenario.node[17].veinsmobility 	startTime 	65
scalar IntersectionExampleScenario.node[17].veinsmobility 	totalTime 	82.75
scalar IntersectionExampleScenario.node[17].veinsmobility 	stopTime 	148
scalar IntersectionExampleScenario.node[17].veinsmobility 	minSpeed 	0
scalar IntersectionExampleScenario.node[17].veinsmobility 	maxSpeed 	16.27499961853
scalar IntersectionExampleScenario.node[17].veinsmobility 	totalDistance 	551.43729400635
scalar IntersectionExampleScenario.node[17].veinsmobility 	totalCO2Emission 	178.41464344961
scalar IntersectionExampleScenario.node[33].appl 	VehicleRemoved 	0
scalar IntersectionExampleScenario.node[33].appl 	ArrivedAtDest 	1
scalar IntersectionExampleScenario.node[33].appl 	IntersectionEnterTime 	107.75
scalar IntersectionExampleScenario.node[33].appl 	IntersectionExitTime 	134.7696619216
scalar IntersectionExampleScenario.node[33].appl 	NumberOfCollisions 	0
scalar IntersectionExampleScenario.node[33].nic.phy80211p 	busyTime 	0
scalar IntersectionExampleScenario.node[33].nic.mac1609_4 	ReceivedUnicastPackets 	0
scalar IntersectionExampleScenario.node[33].nic.mac1609_4 	ReceivedBroadcasts 	0
scalar IntersectionExampleScenario.node[33].nic.mac1609_4 	SentPackets 	0
scalar IntersectionExampleScenario.node[33].nic.mac1609_4 	SNIRLostPackets 	0
scalar IntersectionExampleScenario.node[33].nic.mac1609_4 	RXTXLostPackets 	0
scalar IntersectionExampleScenario.node[33].nic.mac1609_4 	TotalLostPackets 	0
scalar IntersectionExampleScenario.node[33].nic.mac1609_4 	DroppedPacketsInMac 	0
scalar IntersectionExampleScenario.node[33].nic.mac1609_4 	TooLittleTime 	0
scalar IntersectionExampleScenario.node[33].nic.mac1609_4 	TimesIntoBackoff 	0
scalar IntersectionExampleScenario.node[33].nic.mac1609_4 	SlotsBackoff 	0
scalar IntersectionExampleScenario.node[33].nic.mac1609_4 	NumInternalContention 	0
scalar IntersectionExampleScenario.node[33].nic.mac1609_4 	totalBusyTime 	0
scalar IntersectionExampleScenario.node[33].veinsmobility 	startTime 	107.75
scalar IntersectionExampleScenario.node[33].veinsmobility 	totalTime 	44
scalar IntersectionExampleScenario.node[33].veinsmobility 	stopTime 	152
scalar IntersectionExampleScenario.node[33].veinsmobility 	minSpeed 	5.6500000953674
scalar IntersectionExampleScenario.node[33].veinsmobility 	maxSpeed 	15.25
scalar IntersectionExampleScenario.node[33].veinsmobility 	totalDistance 	545.51482768821
scalar IntersectionExampleScenario.node[33].veinsmobility 	totalCO2Emission 	135.27577522819
scalar IntersectionExampleScenario.node[34].appl 	VehicleRemoved 	0
scalar IntersectionExampleScenario.node[34].appl 	ArrivedAtDest 	1
scalar IntersectionExampleScenario.node[34].appl 	IntersectionEnterTime 	108.25
scalar IntersectionExampleScenario.node[34].appl 	IntersectionExitTime 	137.50963716614
scalar IntersectionExampleScenario.node[34].appl 	NumberOfCollisions 	0
scalar IntersectionExampleScenario.node[34].nic.phy80211p 	busyTime 	0
scalar IntersectionExampleScenario.node[34].nic.mac1609_4 	ReceivedUnicastPackets 	0
scalar IntersectionExampleScenario.node[34].nic.mac1609_4 	ReceivedBroadcasts 	0
scalar IntersectionExampleScenario.node[34].nic.mac1609_4 	SentPackets 	0
scalar IntersectionExampleScenario.node[34].nic.mac1609_4 	SNIRLostPackets 	0
scalar IntersectionExampleScenario.node[34].nic.mac1609_4 	RXTXLostPackets 	0
scalar IntersectionExampleScenario.node[34].nic.mac1609_4 	TotalLostPackets 	0
scalar IntersectionExampleScenario.node[34].nic.mac1609_4 	DroppedPacketsInMac 	0
scalar IntersectionExampleScenario.node[34].nic.mac1609_4 	TooLittleTime 	0
scalar IntersectionExampleScenario.node[34].nic.mac1609_4 	TimesIntoBackoff 	0
scalar IntersectionExampleScenario.node[34].nic.mac1609_4 	SlotsBackoff 	0
scalar IntersectionExampleScenario.node[34].nic.mac1609_4 	NumInternalContention 	0
scalar IntersectionExampleScenario.node[34].nic.mac1609_4 	totalBusyTime 	0
scalar IntersectionExampleScenario.node[34].veinsmobility 	startTime 	108.25
scalar IntersectionExampleScenario.node[34].veinsmobility 	totalTime 	46.5
scalar IntersectionExampleScenario.node[34].veinsmobility 	stopTime 	155
scalar IntersectionExampleScenario.node[34].veinsmobility 	minSpeed 	5.2508845329285
scalar IntersectionExampleScenario.node[34].veinsmobility 	maxSpeed 	14.82256603241
scalar IntersectionExampleScenario.node[34].veinsmobility 	totalDistance 	567.44154038697
scalar IntersectionExampleScenario.node[34].veinsmobility 	totalCO2Emission 	136.73074714802
scalar IntersectionExampleScenario.node[36].appl 	VehicleRemoved 	0
scalar IntersectionExampleScenario.node[36].appl 	ArrivedAtDest 	1
scalar IntersectionExampleScenario.node[36].appl 	IntersectionEnterTime 	118.5
scalar IntersectionExampleScenario.node[36].appl 	IntersectionExitTime 	141.83840311258
scalar IntersectionExampleScenario.node[36].appl 	NumberOfCollisions 	0
scalar IntersectionExampleScenario.node[36].nic.phy80211p 	busyTime 	0
scalar IntersectionExampleScenario.node[36].nic.mac1609_4 	ReceivedUnicastPackets 	0
scalar IntersectionExampleScenario.node[36].nic.mac1609_4 	ReceivedBroadcasts 	0
scalar IntersectionExampleScenario.node[36].nic.mac1609_4 	SentPackets 	0
scalar IntersectionExampleScenario.node[36].nic.mac1609_4 	SNIRLostPackets 	0
scalar IntersectionExampleScenario.node[36].nic.mac1609_4 	RXTXLostPackets 	0
scalar IntersectionExampleScenario.node[36].nic.mac1609_4 	TotalLostPackets 	0
scalar IntersectionExampleScenario.node[36].nic.mac1609_4 	DroppedPacketsInMac 	0
scalar IntersectionExampleScenario.node[36].nic.mac1609_4 	TooLittleTime 	0
scalar IntersectionExampleScenario.node[36].nic.mac1609_4 	TimesIntoBackoff 	0
scalar IntersectionExampleScenario.node[36].nic.mac1609_4 	SlotsBackoff 	0
scalar IntersectionExampleScenario.node[36].nic.mac1609_4 	NumInternalContention 	0
scalar IntersectionExampleScenario.node[36].nic.mac1609_4 	totalBusyTime 	0
scalar IntersectionExampleScenario.node[36].veinsmobility 	startTime 	118.5
scalar IntersectionExampleScenario.node[36].veinsmobility 	totalTime 	39.5
scalar IntersectionExampleScenario.node[36].veinsmobility 	stopTime 	158.25
scalar IntersectionExampleScenario.node[36].veinsmobility 	minSpeed 	5.6500000953674
scalar IntersectionExampleScenario.node[36].veinsmobility 	maxSpeed 	16.579271316528
scalar IntersectionExampleScenario.node[36].veinsmobility 	totalDistance 	544.45793676082
scalar IntersectionExampleScenario.node[36].veinsmobility 	totalCO2Emission 	129.79628928393
scalar IntersectionExampleScenario.node[27].appl 	VehicleRemoved 	0
scalar IntersectionExampleScenario.node[27].appl 	ArrivedAtDest 	1
scalar IntersectionExampleScenario.node[27].appl 	IntersectionEnterTime 	85
scalar IntersectionExampleScenario.node[27].appl 	IntersectionExitTime 	147.56938291056
scalar IntersectionExampleScenario.node[27].appl 	NumberOfCollisions 	0
scalar IntersectionExampleScenario.node[27].nic.phy80211p 	busyTime 	0
scalar IntersectionExampleScenario.node[27].nic.mac1609_4 	ReceivedUnicastPackets 	0
scalar IntersectionExampleScenario.node[27].nic.mac1609_4 	ReceivedBroadcasts 	0
scalar IntersectionExampleScenario.node[27].nic.mac1609_4 	SentPackets 	0
scalar IntersectionExampleScenario.node[27].nic.mac1609_4 	SNIRLostPackets 	0
scalar IntersectionExampleScenario.node[27].nic.mac1609_4 	RXTXLostPackets 	0
scalar IntersectionExampleScenario.node[27].nic.mac1609_4 	TotalLostPackets 	0
scalar IntersectionExampleScenario.node[27].nic.mac1609_4 	DroppedPacketsInMac 	0
scalar IntersectionExampleScenario.node[27].nic.mac1609_4 	TooLittleTime 	0
scalar IntersectionExampleScenario.node[27].nic.mac1609_4 	TimesIntoBackoff 	0
scalar IntersectionExampleScenario.node[27].nic.mac1609_4 	SlotsBackoff 	0
scalar IntersectionExampleScenario.node[27].nic.mac1609_4 	NumInternalContention 	0
scalar IntersectionExampleScenario.node[27].nic.mac1609_4 	totalBusyTime 	0
scalar IntersectionExampleScenario.node[27].veinsmobility 	startTime 	85
scalar IntersectionExampleScenario.node[27].veinsmobility 	totalTime 	78.75
scalar IntersectionExampleScenario.node[27].veinsmobility 	stopTime 	164
scalar IntersectionExampleScenario.node[27].veinsmobility 	minSpeed 	0
scalar IntersectionExampleScenario.node[27].veinsmobility 	maxSpeed 	16.27499961853
scalar IntersectionExampleScenario.node[27].veinsmobility 	totalDistance 	542.93442441375
scalar IntersectionExampleScenario.node[27].veinsmobility 	totalCO2Emission 	173.74720434187
scalar IntersectionExampleScenario.node[28].appl 	VehicleRemoved 	0
scalar IntersectionExampleScenario.node[28].appl 	ArrivedAtDest 	1
scalar IntersectionExampleScenario.node[28].appl 	IntersectionEnterTime 	85.75
scalar IntersectionExampleScenario.node[28].appl 	IntersectionExitTime 	150.08838082675
scalar IntersectionExampleScenario.node[28].appl 	NumberOfCollisions 	0
scalar IntersectionExampleScenario.node[28].nic.phy80211p 	busyTime 	0
scalar IntersectionExampleScenario.node[28].nic.mac1609_4 	ReceivedUnicastPackets 	0
scalar IntersectionExampleScenario.node[28].nic.mac1609_4 	ReceivedBroadcasts 	0
scalar IntersectionExampleScenario.node[28].nic.mac1609_4 	SentPackets 	0
scalar IntersectionExampleScenario.node[28].nic.mac1609_4 	SNIRLostPackets 	0
scalar IntersectionExampleScenario.node[28].nic.mac1609_4 	RXTXLostPackets 	0
scalar IntersectionExampleScenario.node[28].nic.mac1609_4 	TotalLostPackets 	0
scalar IntersectionExampleScenario.node[28].nic.mac1609_4 	DroppedPacketsInMac 	0
scalar IntersectionExampleScenario.node[28].nic.mac1609_4 	TooLittleTime 	0
scalar IntersectionExampleScenario.node[28].nic.mac1609_4 	TimesIntoBackoff 	0
scalar IntersectionExampleScenario.node[28].nic.mac1609_4 	SlotsBackoff 	0
scalar IntersectionExampleScenario.node[28].nic.mac1609_4 	NumInternalContention 	0
scalar IntersectionExampleScenario.node[28].nic.mac1609_4 	totalBusyTime 	0
scalar IntersectionExampleScenario.node[28].veinsmobility 	startTime 	85.75
scalar IntersectionExampleScenario.node[28].veinsmobility 	totalTime 	80.75
scalar IntersectionExampleScenario.node[28].veinsmobility 	stopTime 	166.75
scalar IntersectionExampleScenario.node[28].veinsmobility 	minSpeed 	0
scalar IntersectionExampleScenario.node[28].veinsmobility 	maxSpeed 	15.875
scalar IntersectionExampleScenario.node[28].veinsmobility 	totalDistance 	569.5727225686
scalar IntersectionExampleScenario.node[28].veinsmobility 	totalCO2Emission 	177.21135171743
scalar IntersectionExampleScenario.node[30].appl 	VehicleRemoved 	0
scalar IntersectionExampleScenario.node[30].appl 	ArrivedAtDest 	1
scalar IntersectionExampleScenario.node[30].appl 	IntersectionEnterTime 	99.25
scalar IntersectionExampleScenario.node[30].appl 	IntersectionExitTime 	152.52497815905
scalar IntersectionExampleScenario.node[30].appl 	NumberOfCollisions 	0
scalar IntersectionExampleScenario.node[30].nic.phy80211p 	busyTime 	0
scalar IntersectionExampleScenario.node[30].nic.mac1609_4 	ReceivedUnicastPackets 	0
scalar IntersectionExampleScenario.node[30].nic.mac1609_4 	ReceivedBroadcasts 	0
scalar IntersectionExampleScenario.node[30].nic.mac1609_4 	SentPackets 	0
scalar IntersectionExampleScenario.node[30].nic.mac1609_4 	SNIRLostPackets 	0
scalar IntersectionExampleScenario.node[30].nic.mac1609_4 	RXTXLostPackets 	0
scalar IntersectionExampleScenario.node[30].nic.mac1609_4 	TotalLostPackets 	0
scalar IntersectionExampleScenario.node[30].nic.mac1609_4 	DroppedPacketsInMac 	0
scalar IntersectionExampleScenario.node[30].nic.mac1609_4 	TooLittleTime 	0
scalar IntersectionExampleScenario.node[30].nic.mac1609_4 	TimesIntoBackoff 	0
scalar IntersectionExampleScenario.node[30].nic.mac1609_4 	SlotsBackoff 	0
scalar IntersectionExampleScenario.node[30].nic.mac1609_4 	NumInternalContention 	0
scalar IntersectionExampleScenario.node[30].nic.mac1609_4 	totalBusyTime 	0
scalar IntersectionExampleScenario.node[30].veinsmobility 	startTime 	99.25
scalar IntersectionExampleScenario.node[30].veinsmobility 	totalTime 	69
scalar IntersectionExampleScenario.node[30].veinsmobility 	stopTime 	168.5
scalar IntersectionExampleScenario.node[30].veinsmobility 	minSpeed 	0
scalar IntersectionExampleScenario.node[30].veinsmobility 	maxSpeed 	16.27499961853
scalar IntersectionExampleScenario.node[30].veinsmobility 	totalDistance 	550.90714624731
scalar IntersectionExampleScenario.node[30].veinsmobility 	totalCO2Emission 	164.75252872361
scalar IntersectionExampleScenario.node[31].appl 	VehicleRemoved 	0
scalar IntersectionExampleScenario.node[31].appl 	ArrivedAtDest 	1
scalar IntersectionExampleScenario.node[31].appl 	IntersectionEnterTime 	99.5
scalar IntersectionExampleScenario.node[31].appl 	IntersectionExitTime 	163.76218879846
scalar IntersectionExampleScenario.node[31].appl 	NumberOfCollisions 	0
scalar IntersectionExampleScenario.node[31].nic.phy80211p 	busyTime 	0
scalar IntersectionExampleScenario.node[31].nic.mac1609_4 	ReceivedUnicastPackets 	0
scalar IntersectionExampleScenario.node[31].nic.mac1609_4 	ReceivedBroadcasts 	0
scalar IntersectionExampleScenario.node[31].nic.mac1609_4 	SentPackets 	0
scalar IntersectionExampleScenario.node[31].nic.mac1609_4 	SNIRLostPackets 	0
scalar IntersectionExampleScenario.node[31].nic.mac1609_4 	RXTXLostPackets 	0
scalar IntersectionExampleScenario.node[31].nic.mac1609_4 	TotalLostPackets 	0
scalar IntersectionExampleScenario.node[31].nic.mac1609_4 	DroppedPacketsInMac 	0
scalar IntersectionExampleScenario.node[31].nic.mac1609_4 	TooLittleTime 	0
scalar IntersectionExampleScenario.node[31].nic.mac1609_4 	TimesIntoBackoff 	0
scalar IntersectionExampleScenario.node[31].nic.mac1609_4 	SlotsBackoff 	0
scalar IntersectionExampleScenario.node[31].nic.mac1609_4 	NumInternalContention 	0
scalar IntersectionExampleScenario.node[31].nic.mac1609_4 	totalBusyTime 	0
scalar IntersectionExampleScenario.node[31].veinsmobility 	startTime 	99.5
scalar IntersectionExampleScenario.node[31].veinsmobility 	totalTime 	79.75
scalar IntersectionExampleScenario.node[31].veinsmobility 	stopTime 	179.5
scalar IntersectionExampleScenario.node[31].veinsmobility 	minSpeed 	0
scalar IntersectionExampleScenario.node[31].veinsmobility 	maxSpeed 	16.625
scalar IntersectionExampleScenario.node[31].veinsmobility 	totalDistance 	550.20749788713
scalar IntersectionExampleScenario.node[31].veinsmobility 	totalCO2Emission 	178.36530638221
scalar IntersectionExampleScenario.node[35].appl 	VehicleRemoved 	0
scalar IntersectionExampleScenario.node[35].appl 	ArrivedAtDest 	1
scalar IntersectionExampleScenario.node[35].appl 	IntersectionEnterTime 	110.5
scalar IntersectionExampleScenario.node[35].appl 	IntersectionExitTime 	165.05186501061
scalar IntersectionExampleScenario.node[35].appl 	NumberOfCollisions 	0
scalar IntersectionExampleScenario.node[35].nic.phy80211p 	busyTime 	0
scalar IntersectionExampleScenario.node[35].nic.mac1609_4 	ReceivedUnicastPackets 	0
scalar IntersectionExampleScenario.node[35].nic.mac1609_4 	ReceivedBroadcasts 	0
scalar IntersectionExampleScenario.node[35].nic.mac1609_4 	SentPackets 	0
scalar IntersectionExampleScenario.node[35].nic.mac1609_4 	SNIRLostPackets 	0
scalar IntersectionExampleScenario.node[35].nic.mac1609_4 	RXTXLostPackets 	0
scalar IntersectionExampleScenario.node[35].nic.mac1609_4 	TotalLostPackets 	0
scalar IntersectionExampleScenario.node[35].nic.mac1609_4 	DroppedPacketsInMac 	0
scalar IntersectionExampleScenario.node[35].nic.mac1609_4 	TooLittleTime 	0
scalar IntersectionExampleScenario.node[35].nic.mac1609_4 	TimesIntoBackoff 	0
scalar IntersectionExampleScenario.node[35].nic.mac1609_4 	SlotsBackoff 	0
scalar IntersectionExampleScenario.node[35].nic.mac1609_4 	NumInternalContention 	0
scalar IntersectionExampleScenario.node[35].nic.mac1609_4 	totalBusyTime 	0
scalar IntersectionExampleScenario.node[35].veinsmobility 	startTime 	110.5
scalar IntersectionExampleScenario.node[35].veinsmobility 	totalTime 	71
scalar IntersectionExampleScenario.node[35].veinsmobility 	stopTime 	181.75
scalar IntersectionExampleScenario.node[35].veinsmobility 	minSpeed 	0
scalar IntersectionExampleScenario.node[35].veinsmobility 	maxSpeed 	15.875
scalar IntersectionExampleScenario.node[35].veinsmobility 	totalDistance 	545.58160963703
scalar IntersectionExampleScenario.node[35].veinsmobility 	totalCO2Emission 	163.40062047823
scalar IntersectionExampleScenario.node[37].appl 	VehicleRemoved 	0
scalar IntersectionExampleScenario.node[37].appl 	ArrivedAtDest 	1
scalar IntersectionExampleScenario.node[37].appl 	IntersectionEnterTime 	131.25
scalar IntersectionExampleScenario.node[37].appl 	IntersectionExitTime 	167.7589268584
scalar IntersectionExampleScenario.node[37].appl 	NumberOfCollisions 	0
scalar IntersectionExampleScenario.node[37].nic.phy80211p 	busyTime 	0
scalar IntersectionExampleScenario.node[37].nic.mac1609_4 	ReceivedUnicastPackets 	0
scalar IntersectionExampleScenario.node[37].nic.mac1609_4 	ReceivedBroadcasts 	0
scalar IntersectionExampleScenario.node[37].nic.mac1609_4 	SentPackets 	0
scalar IntersectionExampleScenario.node[37].nic.mac1609_4 	SNIRLostPackets 	0
scalar IntersectionExampleScenario.node[37].nic.mac1609_4 	RXTXLostPackets 	0
scalar IntersectionExampleScenario.node[37].nic.mac1609_4 	TotalLostPackets 	0
scalar IntersectionExampleScenario.node[37].nic.mac1609_4 	DroppedPacketsInMac 	0
scalar IntersectionExampleScenario.node[37].nic.mac1609_4 	TooLittleTime 	0
scalar IntersectionExampleScenario.node[37].nic.mac1609_4 	TimesIntoBackoff 	0
scalar IntersectionExampleScenario.node[37].nic.mac1609_4 	SlotsBackoff 	0
scalar IntersectionExampleScenario.node[37].nic.mac1609_4 	NumInternalContention 	0
scalar IntersectionExampleScenario.node[37].nic.mac1609_4 	totalBusyTime 	0
scalar IntersectionExampleScenario.node[37].veinsmobility 	startTime 	131.25
scalar IntersectionExampleScenario.node[37].veinsmobility 	totalTime 	53
scalar IntersectionExampleScenario.node[37].veinsmobility 	stopTime 	184.5
scalar IntersectionExampleScenario.node[37].veinsmobility 	minSpeed 	0
scalar IntersectionExampleScenario.node[37].veinsmobility 	maxSpeed 	15.375
scalar IntersectionExampleScenario.node[37].veinsmobility 	totalDistance 	549.87065407203
scalar IntersectionExampleScenario.node[37].veinsmobility 	totalCO2Emission 	139.5637815955
scalar IntersectionExampleScenario.node[40].appl 	VehicleRemoved 	0
scalar IntersectionExampleScenario.node[40].appl 	ArrivedAtDest 	1
scalar IntersectionExampleScenario.node[40].appl 	IntersectionEnterTime 	142.25
scalar IntersectionExampleScenario.node[40].appl 	IntersectionExitTime 	170.05061895496
scalar IntersectionExampleScenario.node[40].appl 	NumberOfCollisions 	0
scalar IntersectionExampleScenario.node[40].nic.phy80211p 	busyTime 	0
scalar IntersectionExampleScenario.node[40].nic.mac1609_4 	ReceivedUnicastPackets 	0
scalar IntersectionExampleScenario.node[40].nic.mac1609_4 	ReceivedBroadcasts 	0
scalar IntersectionExampleScenario.node[40].nic.mac1609_4 	SentPackets 	0
scalar IntersectionExampleScenario.node[40].nic.mac1609_4 	SNIRLostPackets 	0
scalar IntersectionExampleScenario.node[40].nic.mac1609_4 	RXTXLostPackets 	0
scalar IntersectionExampleScenario.node[40].nic.mac1609_4 	TotalLostPackets 	0
scalar IntersectionExampleScenario.node[40].nic.mac1609_4 	DroppedPacketsInMac 	0
scalar IntersectionExampleScenario.node[40].nic.mac1609_4 	TooLittleTime 	0
scalar IntersectionExampleScenario.node[40].nic.mac1609_4 	TimesIntoBackoff 	0
scalar IntersectionExampleScenario.node[40].nic.mac1609_4 	SlotsBackoff 	0
scalar IntersectionExampleScenario.node[40].nic.mac1609_4 	NumInternalContention 	0
scalar IntersectionExampleScenario.node[40].nic.mac1609_4 	totalBusyTime 	0
scalar IntersectionExampleScenario.node[40].veinsmobility 	startTime 	142.25
scalar IntersectionExampleScenario.node[40].veinsmobility 	totalTime 	43.75
scalar IntersectionExampleScenario.node[40].veinsmobility 	stopTime 	186.25
scalar IntersectionExampleScenario.node[40].veinsmobility 	minSpeed 	5.5809335708618
scalar IntersectionExampleScenario.node[40].veinsmobility 	maxSpeed 	16.27499961853
scalar IntersectionExampleScenario.node[40].veinsmobility 	totalDistance 	546.41688504218
scalar IntersectionExampleScenario.node[40].veinsmobility 	totalCO2Emission 	145.37150427612
scalar IntersectionExampleScenario.node[41].appl 	VehicleRemoved 	0
scalar IntersectionExampleScenario.node[41].appl 	ArrivedAtDest 	1
scalar IntersectionExampleScenario.node[41].appl 	IntersectionEnterTime 	144.75
scalar IntersectionExampleScenario.node[41].appl 	IntersectionExitTime 	171.61919132035
scalar IntersectionExampleScenario.node[41].appl 	NumberOfCollisions 	0
scalar IntersectionExampleScenario.node[41].nic.phy80211p 	busyTime 	0
scalar IntersectionExampleScenario.node[41].nic.mac1609_4 	ReceivedUnicastPackets 	0
scalar IntersectionExampleScenario.node[41].nic.mac1609_4 	ReceivedBroadcasts 	0
scalar IntersectionExampleScenario.node[41].nic.mac1609_4 	SentPackets 	0
scalar IntersectionExampleScenario.node[41].nic.mac1609_4 	SNIRLostPackets 	0
scalar IntersectionExampleScenario.node[41].nic.mac1609_4 	RXTXLostPackets 	0
scalar IntersectionExampleScenario.node[41].nic.mac1609_4 	TotalLostPackets 	0
scalar IntersectionExampleScenario.node[41].nic.mac1609_4 	DroppedPacketsInMac 	0
scalar IntersectionExampleScenario.node[41].nic.mac1609_4 	TooLittleTime 	0
scalar IntersectionExampleScenario.node[41].nic.mac1609_4 	TimesIntoBackoff 	0
scalar IntersectionExampleScenario.node[41].nic.mac1609_4 	SlotsBackoff 	0
[...]
scalar IntersectionExampleScenario.node[502].veinsmobility 	minSpeed 	0
scalar IntersectionExampleScenario.node[502].veinsmobility 	maxSpeed 	15.64999961853
scalar IntersectionExampleScenario.node[502].veinsmobility 	totalDistance 	291.9582512357
scalar IntersectionExampleScenario.node[502].veinsmobility 	totalCO2Emission 	90.196297254102
scalar IntersectionExampleScenario.node[503].appl 	VehicleRemoved 	0
scalar IntersectionExampleScenario.node[503].appl 	ArrivedAtDest 	0
scalar IntersectionExampleScenario.node[503].appl 	IntersectionEnterTime 	1766.25
scalar IntersectionExampleScenario.node[503].appl 	IntersectionExitTime 	-1
scalar IntersectionExampleScenario.node[503].appl 	NumberOfCollisions 	0
scalar IntersectionExampleScenario.node[503].nic.phy80211p 	busyTime 	0
scalar IntersectionExampleScenario.node[503].nic.mac1609_4 	ReceivedUnicastPackets 	0
scalar IntersectionExampleScenario.node[503].nic.mac1609_4 	ReceivedBroadcasts 	0
scalar IntersectionExampleScenario.node[503].nic.mac1609_4 	SentPackets 	0
scalar IntersectionExampleScenario.node[503].nic.mac1609_4 	SNIRLostPackets 	0
scalar IntersectionExampleScenario.node[503].nic.mac1609_4 	RXTXLostPackets 	0
scalar IntersectionExampleScenario.node[503].nic.mac1609_4 	TotalLostPackets 	0
scalar IntersectionExampleScenario.node[503].nic.mac1609_4 	DroppedPacketsInMac 	0
scalar IntersectionExampleScenario.node[503].nic.mac1609_4 	TooLittleTime 	0
scalar IntersectionExampleScenario.node[503].nic.mac1609_4 	TimesIntoBackoff 	0
scalar IntersectionExampleScenario.node[503].nic.mac1609_4 	SlotsBackoff 	0
scalar IntersectionExampleScenario.node[503].nic.mac1609_4 	NumInternalContention 	0
scalar IntersectionExampleScenario.node[503].nic.mac1609_4 	totalBusyTime 	0
scalar IntersectionExampleScenario.node[503].veinsmobility 	startTime 	1766.25
scalar IntersectionExampleScenario.node[503].veinsmobility 	totalTime 	33.75
scalar IntersectionExampleScenario.node[503].veinsmobility 	stopTime 	1800
scalar IntersectionExampleScenario.node[503].veinsmobility 	minSpeed 	0
scalar IntersectionExampleScenario.node[503].veinsmobility 	maxSpeed 	15.940587043762
scalar IntersectionExampleScenario.node[503].veinsmobility 	totalDistance 	276.37596130371
scalar IntersectionExampleScenario.node[503].veinsmobility 	totalCO2Emission 	80.916461936201
scalar IntersectionExampleScenario.node[504].appl 	VehicleRemoved 	0
scalar IntersectionExampleScenario.node[504].appl 	ArrivedAtDest 	0
scalar IntersectionExampleScenario.node[504].appl 	IntersectionEnterTime 	1769.25
scalar IntersectionExampleScenario.node[504].appl 	IntersectionExitTime 	-1
scalar IntersectionExampleScenario.node[504].appl 	NumberOfCollisions 	0
scalar IntersectionExampleScenario.node[504].nic.phy80211p 	busyTime 	0
scalar IntersectionExampleScenario.node[504].nic.mac1609_4 	ReceivedUnicastPackets 	0
scalar IntersectionExampleScenario.node[504].nic.mac1609_4 	ReceivedBroadcasts 	0
scalar IntersectionExampleScenario.node[504].nic.mac1609_4 	SentPackets 	0
scalar IntersectionExampleScenario.node[504].nic.mac1609_4 	SNIRLostPackets 	0
scalar IntersectionExampleScenario.node[504].nic.mac1609_4 	RXTXLostPackets 	0
scalar IntersectionExampleScenario.node[504].nic.mac1609_4 	TotalLostPackets 	0
scalar IntersectionExampleScenario.node[504].nic.mac1609_4 	DroppedPacketsInMac 	0
scalar IntersectionExampleScenario.node[504].nic.mac1609_4 	TooLittleTime 	0
scalar IntersectionExampleScenario.node[504].nic.mac1609_4 	TimesIntoBackoff 	0
scalar IntersectionExampleScenario.node[504].nic.mac1609_4 	SlotsBackoff 	0
scalar IntersectionExampleScenario.node[504].nic.mac1609_4 	NumInternalContention 	0
scalar IntersectionExampleScenario.node[504].nic.mac1609_4 	totalBusyTime 	0
scalar IntersectionExampleScenario.node[504].veinsmobility 	startTime 	1769.25
scalar IntersectionExampleScenario.node[504].veinsmobility 	totalTime 	30.75
scalar IntersectionExampleScenario.node[504].veinsmobility 	stopTime 	1800
scalar IntersectionExampleScenario.node[504].veinsmobility 	minSpeed 	0
scalar IntersectionExampleScenario.node[504].veinsmobility 	maxSpeed 	15.02499961853
scalar IntersectionExampleScenario.node[504].veinsmobility 	totalDistance 	273.29180908203
scalar IntersectionExampleScenario.node[504].veinsmobility 	totalCO2Emission 	67.002832800067
scalar IntersectionExampleScenario.node[505].appl 	VehicleRemoved 	0
scalar IntersectionExampleScenario.node[505].appl 	ArrivedAtDest 	0
scalar IntersectionExampleScenario.node[505].appl 	IntersectionEnterTime 	1781.25
scalar IntersectionExampleScenario.node[505].appl 	IntersectionExitTime 	-1
scalar IntersectionExampleScenario.node[505].appl 	NumberOfCollisions 	0
scalar IntersectionExampleScenario.node[505].nic.phy80211p 	busyTime 	0
scalar IntersectionExampleScenario.node[505].nic.mac1609_4 	ReceivedUnicastPackets 	0
scalar IntersectionExampleScenario.node[505].nic.mac1609_4 	ReceivedBroadcasts 	0
scalar IntersectionExampleScenario.node[505].nic.mac1609_4 	SentPackets 	0
scalar IntersectionExampleScenario.node[505].nic.mac1609_4 	SNIRLostPackets 	0
scalar IntersectionExampleScenario.node[505].nic.mac1609_4 	RXTXLostPackets 	0
scalar IntersectionExampleScenario.node[505].nic.mac1609_4 	TotalLostPackets 	0
scalar IntersectionExampleScenario.node[505].nic.mac1609_4 	DroppedPacketsInMac 	0
scalar IntersectionExampleScenario.node[505].nic.mac1609_4 	TooLittleTime 	0
scalar IntersectionExampleScenario.node[505].nic.mac1609_4 	TimesIntoBackoff 	0
scalar IntersectionExampleScenario.node[505].nic.mac1609_4 	SlotsBackoff 	0
scalar IntersectionExampleScenario.node[505].nic.mac1609_4 	NumInternalContention 	0
scalar IntersectionExampleScenario.node[505].nic.mac1609_4 	totalBusyTime 	0
scalar IntersectionExampleScenario.node[505].veinsmobility 	startTime 	1781.25
scalar IntersectionExampleScenario.node[505].veinsmobility 	totalTime 	18.75
scalar IntersectionExampleScenario.node[505].veinsmobility 	stopTime 	1800
scalar IntersectionExampleScenario.node[505].veinsmobility 	minSpeed 	5.6500000953674
scalar IntersectionExampleScenario.node[505].veinsmobility 	maxSpeed 	16.27499961853
scalar IntersectionExampleScenario.node[505].veinsmobility 	totalDistance 	237.47772216797
scalar IntersectionExampleScenario.node[505].veinsmobility 	totalCO2Emission 	59.028263750804
scalar IntersectionExampleScenario.node[506].appl 	VehicleRemoved 	0
scalar IntersectionExampleScenario.node[506].appl 	ArrivedAtDest 	0
scalar IntersectionExampleScenario.node[506].appl 	IntersectionEnterTime 	1784.5
scalar IntersectionExampleScenario.node[506].appl 	IntersectionExitTime 	-1
scalar IntersectionExampleScenario.node[506].appl 	NumberOfCollisions 	0
scalar IntersectionExampleScenario.node[506].nic.phy80211p 	busyTime 	0
scalar IntersectionExampleScenario.node[506].nic.mac1609_4 	ReceivedUnicastPackets 	0
scalar IntersectionExampleScenario.node[506].nic.mac1609_4 	ReceivedBroadcasts 	0
scalar IntersectionExampleScenario.node[506].nic.mac1609_4 	SentPackets 	0
scalar IntersectionExampleScenario.node[506].nic.mac1609_4 	SNIRLostPackets 	0
scalar IntersectionExampleScenario.node[506].nic.mac1609_4 	RXTXLostPackets 	0
scalar IntersectionExampleScenario.node[506].nic.mac1609_4 	TotalLostPackets 	0
scalar IntersectionExampleScenario.node[506].nic.mac1609_4 	DroppedPacketsInMac 	0
scalar IntersectionExampleScenario.node[506].nic.mac1609_4 	TooLittleTime 	0
scalar IntersectionExampleScenario.node[506].nic.mac1609_4 	TimesIntoBackoff 	0
scalar IntersectionExampleScenario.node[506].nic.mac1609_4 	SlotsBackoff 	0
scalar IntersectionExampleScenario.node[506].nic.mac1609_4 	NumInternalContention 	0
scalar IntersectionExampleScenario.node[506].nic.mac1609_4 	totalBusyTime 	0
scalar IntersectionExampleScenario.node[506].veinsmobility 	startTime 	1784.5
scalar IntersectionExampleScenario.node[506].veinsmobility 	totalTime 	15.5
scalar IntersectionExampleScenario.node[506].veinsmobility 	stopTime 	1800
scalar IntersectionExampleScenario.node[506].veinsmobility 	minSpeed 	5.6500000953674
scalar IntersectionExampleScenario.node[506].veinsmobility 	maxSpeed 	15.02499961853
scalar IntersectionExampleScenario.node[506].veinsmobility 	totalDistance 	209.90026855469
scalar IntersectionExampleScenario.node[506].veinsmobility 	totalCO2Emission 	51.820738331389
scalar IntersectionExampleScenario.node[507].appl 	VehicleRemoved 	0
scalar IntersectionExampleScenario.node[507].appl 	ArrivedAtDest 	0
scalar IntersectionExampleScenario.node[507].appl 	IntersectionEnterTime 	1790.25
scalar IntersectionExampleScenario.node[507].appl 	IntersectionExitTime 	-1
scalar IntersectionExampleScenario.node[507].appl 	NumberOfCollisions 	0
scalar IntersectionExampleScenario.node[507].nic.phy80211p 	busyTime 	0
scalar IntersectionExampleScenario.node[507].nic.mac1609_4 	ReceivedUnicastPackets 	0
scalar IntersectionExampleScenario.node[507].nic.mac1609_4 	ReceivedBroadcasts 	0
scalar IntersectionExampleScenario.node[507].nic.mac1609_4 	SentPackets 	0
scalar IntersectionExampleScenario.node[507].nic.mac1609_4 	SNIRLostPackets 	0
scalar IntersectionExampleScenario.node[507].nic.mac1609_4 	RXTXLostPackets 	0
scalar IntersectionExampleScenario.node[507].nic.mac1609_4 	TotalLostPackets 	0
scalar IntersectionExampleScenario.node[507].nic.mac1609_4 	DroppedPacketsInMac 	0
scalar IntersectionExampleScenario.node[507].nic.mac1609_4 	TooLittleTime 	0
scalar IntersectionExampleScenario.node[507].nic.mac1609_4 	TimesIntoBackoff 	0
scalar IntersectionExampleScenario.node[507].nic.mac1609_4 	SlotsBackoff 	0
scalar IntersectionExampleScenario.node[507].nic.mac1609_4 	NumInternalContention 	0
scalar IntersectionExampleScenario.node[507].nic.mac1609_4 	totalBusyTime 	0
scalar IntersectionExampleScenario.node[507].veinsmobility 	startTime 	1790.25
scalar IntersectionExampleScenario.node[507].veinsmobility 	totalTime 	9.75
scalar IntersectionExampleScenario.node[507].veinsmobility 	stopTime 	1800
scalar IntersectionExampleScenario.node[507].veinsmobility 	minSpeed 	5.6500000953674
scalar IntersectionExampleScenario.node[507].veinsmobility 	maxSpeed 	15.943881034851
scalar IntersectionExampleScenario.node[507].veinsmobility 	totalDistance 	129.63055419922
scalar IntersectionExampleScenario.node[507].veinsmobility 	totalCO2Emission 	45.19569420674
scalar IntersectionExampleScenario.node[508].appl 	VehicleRemoved 	0
scalar IntersectionExampleScenario.node[508].appl 	ArrivedAtDest 	0
scalar IntersectionExampleScenario.node[508].appl 	IntersectionEnterTime 	1790.5
scalar IntersectionExampleScenario.node[508].appl 	IntersectionExitTime 	-1
scalar IntersectionExampleScenario.node[508].appl 	NumberOfCollisions 	0
scalar IntersectionExampleScenario.node[508].nic.phy80211p 	busyTime 	0
scalar IntersectionExampleScenario.node[508].nic.mac1609_4 	ReceivedUnicastPackets 	0
scalar IntersectionExampleScenario.node[508].nic.mac1609_4 	ReceivedBroadcasts 	0
scalar IntersectionExampleScenario.node[508].nic.mac1609_4 	SentPackets 	0
scalar IntersectionExampleScenario.node[508].nic.mac1609_4 	SNIRLostPackets 	0
scalar IntersectionExampleScenario.node[508].nic.mac1609_4 	RXTXLostPackets 	0
scalar IntersectionExampleScenario.node[508].nic.mac1609_4 	TotalLostPackets 	0
scalar IntersectionExampleScenario.node[508].nic.mac1609_4 	DroppedPacketsInMac 	0
scalar IntersectionExampleScenario.node[508].nic.mac1609_4 	TooLittleTime 	0
scalar IntersectionExampleScenario.node[508].nic.mac1609_4 	TimesIntoBackoff 	0
scalar IntersectionExampleScenario.node[508].nic.mac1609_4 	SlotsBackoff 	0
scalar IntersectionExampleScenario.node[508].nic.mac1609_4 	NumInternalContention 	0
scalar IntersectionExampleScenario.node[508].nic.mac1609_4 	totalBusyTime 	0
scalar IntersectionExampleScenario.node[508].veinsmobility 	startTime 	1790.5
scalar IntersectionExampleScenario.node[508].veinsmobility 	totalTime 	9.5
scalar IntersectionExampleScenario.node[508].veinsmobility 	stopTime 	1800
scalar IntersectionExampleScenario.node[508].veinsmobility 	minSpeed 	5.6500000953674
scalar IntersectionExampleScenario.node[508].veinsmobility 	maxSpeed 	15.02499961853
scalar IntersectionExampleScenario.node[508].veinsmobility 	totalDistance 	121.93255615234
scalar IntersectionExampleScenario.node[508].veinsmobility 	totalCO2Emission 	41.759347747811
scalar IntersectionExampleScenario.node[509].appl 	VehicleRemoved 	0
scalar IntersectionExampleScenario.node[509].appl 	ArrivedAtDest 	0
scalar IntersectionExampleScenario.node[509].appl 	IntersectionEnterTime 	1794.25
scalar IntersectionExampleScenario.node[509].appl 	IntersectionExitTime 	-1
scalar IntersectionExampleScenario.node[509].appl 	NumberOfCollisions 	0
scalar IntersectionExampleScenario.node[509].nic.phy80211p 	busyTime 	0
scalar IntersectionExampleScenario.node[509].nic.mac1609_4 	ReceivedUnicastPackets 	0
scalar IntersectionExampleScenario.node[509].nic.mac1609_4 	ReceivedBroadcasts 	0
scalar IntersectionExampleScenario.node[509].nic.mac1609_4 	SentPackets 	0
scalar IntersectionExampleScenario.node[509].nic.mac1609_4 	SNIRLostPackets 	0
scalar IntersectionExampleScenario.node[509].nic.mac1609_4 	RXTXLostPackets 	0
scalar IntersectionExampleScenario.node[509].nic.mac1609_4 	TotalLostPackets 	0
scalar IntersectionExampleScenario.node[509].nic.mac1609_4 	DroppedPacketsInMac 	0
scalar IntersectionExampleScenario.node[509].nic.mac1609_4 	TooLittleTime 	0
scalar IntersectionExampleScenario.node[509].nic.mac1609_4 	TimesIntoBackoff 	0
scalar IntersectionExampleScenario.node[509].nic.mac1609_4 	SlotsBackoff 	0
scalar IntersectionExampleScenario.node[509].nic.mac1609_4 	NumInternalContention 	0
scalar IntersectionExampleScenario.node[509].nic.mac1609_4 	totalBusyTime 	0
scalar IntersectionExampleScenario.node[509].veinsmobility 	startTime 	1794.25
scalar IntersectionExampleScenario.node[509].veinsmobility 	totalTime 	5.75
scalar IntersectionExampleScenario.node[509].veinsmobility 	stopTime 	1800
scalar IntersectionExampleScenario.node[509].veinsmobility 	minSpeed 	5.6500000953674
scalar IntersectionExampleScenario.node[509].veinsmobility 	maxSpeed 	15.02499961853
scalar IntersectionExampleScenario.node[509].veinsmobility 	totalDistance 	66.34741973877
scalar IntersectionExampleScenario.node[509].veinsmobility 	totalCO2Emission 	34.265701811065
scalar IntersectionExampleScenario.node[510].appl 	VehicleRemoved 	0
scalar IntersectionExampleScenario.node[510].appl 	ArrivedAtDest 	0
scalar IntersectionExampleScenario.node[510].appl 	IntersectionEnterTime 	1795.75
scalar IntersectionExampleScenario.node[510].appl 	IntersectionExitTime 	-1
scalar IntersectionExampleScenario.node[510].appl 	NumberOfCollisions 	0
scalar IntersectionExampleScenario.node[510].nic.phy80211p 	busyTime 	0
scalar IntersectionExampleScenario.node[510].nic.mac1609_4 	ReceivedUnicastPackets 	0
scalar IntersectionExampleScenario.node[510].nic.mac1609_4 	ReceivedBroadcasts 	0
scalar IntersectionExampleScenario.node[510].nic.mac1609_4 	SentPackets 	0
scalar IntersectionExampleScenario.node[510].nic.mac1609_4 	SNIRLostPackets 	0
scalar IntersectionExampleScenario.node[510].nic.mac1609_4 	RXTXLostPackets 	0
scalar IntersectionExampleScenario.node[510].nic.mac1609_4 	TotalLostPackets 	0
scalar IntersectionExampleScenario.node[510].nic.mac1609_4 	DroppedPacketsInMac 	0
scalar IntersectionExampleScenario.node[510].nic.mac1609_4 	TooLittleTime 	0
scalar IntersectionExampleScenario.node[510].nic.mac1609_4 	TimesIntoBackoff 	0
scalar IntersectionExampleScenario.node[510].nic.mac1609_4 	SlotsBackoff 	0
scalar IntersectionExampleScenario.node[510].nic.mac1609_4 	NumInternalContention 	0
scalar IntersectionExampleScenario.node[510].nic.mac1609_4 	totalBusyTime 	0
scalar IntersectionExampleScenario.node[510].veinsmobility 	startTime 	1795.75
scalar IntersectionExampleScenario.node[510].veinsmobility 	totalTime 	4.25
scalar IntersectionExampleScenario.node[510].veinsmobility 	stopTime 	1800
scalar IntersectionExampleScenario.node[510].veinsmobility 	minSpeed 	5.6500000953674
scalar IntersectionExampleScenario.node[510].veinsmobility 	maxSpeed 	15.64999961853
scalar IntersectionExampleScenario.node[510].veinsmobility 	totalDistance 	43.934387207031
scalar IntersectionExampleScenario.node[510].veinsmobility 	totalCO2Emission 	33.562634268961
scalar IntersectionExampleScenario.node[511].appl 	VehicleRemoved 	0
scalar IntersectionExampleScenario.node[511].appl 	ArrivedAtDest 	0
scalar IntersectionExampleScenario.node[511].appl 	IntersectionEnterTime 	1798.75
scalar IntersectionExampleScenario.node[511].appl 	IntersectionExitTime 	-1
scalar IntersectionExampleScenario.node[511].appl 	NumberOfCollisions 	0
scalar IntersectionExampleScenario.node[511].nic.phy80211p 	busyTime 	0
scalar IntersectionExampleScenario.node[511].nic.mac1609_4 	ReceivedUnicastPackets 	0
scalar IntersectionExampleScenario.node[511].nic.mac1609_4 	ReceivedBroadcasts 	0
scalar IntersectionExampleScenario.node[511].nic.mac1609_4 	SentPackets 	0
scalar IntersectionExampleScenario.node[511].nic.mac1609_4 	SNIRLostPackets 	0
scalar IntersectionExampleScenario.node[511].nic.mac1609_4 	RXTXLostPackets 	0
scalar IntersectionExampleScenario.node[511].nic.mac1609_4 	TotalLostPackets 	0
scalar IntersectionExampleScenario.node[511].nic.mac1609_4 	DroppedPacketsInMac 	0
scalar IntersectionExampleScenario.node[511].nic.mac1609_4 	TooLittleTime 	0
scalar IntersectionExampleScenario.node[511].nic.mac1609_4 	TimesIntoBackoff 	0
scalar IntersectionExampleScenario.node[511].nic.mac1609_4 	SlotsBackoff 	0
scalar IntersectionExampleScenario.node[511].nic.mac1609_4 	NumInternalContention 	0
scalar IntersectionExampleScenario.node[511].nic.mac1609_4 	totalBusyTime 	0
scalar IntersectionExampleScenario.node[511].veinsmobility 	startTime 	1798.75
scalar IntersectionExampleScenario.node[511].veinsmobility 	totalTime 	1.25
scalar IntersectionExampleScenario.node[511].veinsmobility 	stopTime 	1800
scalar IntersectionExampleScenario.node[511].veinsmobility 	minSpeed 	5.6500000953674
scalar IntersectionExampleScenario.node[511].veinsmobility 	maxSpeed 	8.1499996185303
scalar IntersectionExampleScenario.node[511].veinsmobility 	totalDistance 	8.2343673706055
scalar IntersectionExampleScenario.node[511].veinsmobility 	totalCO2Emission 	5.8390974258108
scalar IntersectionExampleScenario.node[512].appl 	VehicleRemoved 	0
scalar IntersectionExampleScenario.node[512].appl 	ArrivedAtDest 	0
scalar IntersectionExampleScenario.node[512].appl 	IntersectionEnterTime 	1800
scalar IntersectionExampleScenario.node[512].appl 	IntersectionExitTime 	-1
scalar IntersectionExampleScenario.node[512].appl 	NumberOfCollisions 	0
scalar IntersectionExampleScenario.node[512].nic.phy80211p 	busyTime 	nan
scalar IntersectionExampleScenario.node[512].nic.mac1609_4 	ReceivedUnicastPackets 	0
scalar IntersectionExampleScenario.node[512].nic.mac1609_4 	ReceivedBroadcasts 	0
scalar IntersectionExampleScenario.node[512].nic.mac1609_4 	SentPackets 	0
scalar IntersectionExampleScenario.node[512].nic.mac1609_4 	SNIRLostPackets 	0
scalar IntersectionExampleScenario.node[512].nic.mac1609_4 	RXTXLostPackets 	0
scalar IntersectionExampleScenario.node[512].nic.mac1609_4 	TotalLostPackets 	0
scalar IntersectionExampleScenario.node[512].nic.mac1609_4 	DroppedPacketsInMac 	0
scalar IntersectionExampleScenario.node[512].nic.mac1609_4 	TooLittleTime 	0
scalar IntersectionExampleScenario.node[512].nic.mac1609_4 	TimesIntoBackoff 	0
scalar IntersectionExampleScenario.node[512].nic.mac1609_4 	SlotsBackoff 	0
scalar IntersectionExampleScenario.node[512].nic.mac1609_4 	NumInternalContention 	0
scalar IntersectionExampleScenario.node[512].nic.mac1609_4 	totalBusyTime 	0
scalar IntersectionExampleScenario.node[512].veinsmobility 	startTime 	1800
scalar IntersectionExampleScenario.node[512].veinsmobility 	totalTime 	0
scalar IntersectionExampleScenario.node[512].veinsmobility 	stopTime 	1800
scalar IntersectionExampleScenario.node[512].veinsmobility 	totalDistance 	0
scalar IntersectionExampleScenario.node[512].veinsmobility 	totalCO2Emission 	0
