file 22189601 1591490347                                        
version 2
run nodebug-41-20200606-20:35:27-18208
attr configname nodebug
attr datetime 20200606-20:35:27
attr experiment nodebug
attr inifile omnetpp.ini
attr iterationvars ""
attr iterationvars2 $repetition=41
attr measurement ""
attr network "\"org.car2x.veins.modules.application.ExtTraCIScenarioManagerLaunchd.IntersectionExampleScenario\""
attr processid 18208
attr repetition 41
attr replication #41
attr resultdir results
attr runnumber 41
attr seedset 41
param **.coreDebug false
param **.debug false
param *.**.nic.mac1609_4.bitrate 18Mbps
param *.**.nic.mac1609_4.txPower 20mW
param *.**.nic.mac1609_4.useServiceChannel false
param *.**.nic.phy80211p.analogueModels "xmldoc(\"config.xml\")"
param *.**.nic.phy80211p.decider "xmldoc(\"config.xml\")"
param *.**.nic.phy80211p.sensitivity -89dBm
param *.**.nic.phy80211p.thermalNoise -110dBm
param *.**.nic.phy80211p.usePropagationDelay true
param *.**.nic.phy80211p.useThermalNoise true
param *.annotations.draw false
param *.connectionManager.alpha 2.0
param *.connectionManager.carrierFrequency "5.890e9 Hz"
param *.connectionManager.pMax 20mW
param *.connectionManager.sat -89dBm
param *.connectionManager.sendDirect true
param *.manager.autoShutdown true
param *.manager.host "\"localhost\""
param *.manager.launchConfig "xmldoc(\"paramics.launchd.xml\")"
param *.manager.margin 25
param *.manager.moduleDisplayString "\"\""
param *.manager.moduleName "\"node\""
param *.manager.moduleType "\"org.car2x.veins.nodes.Car\""
param *.manager.port 9999
param *.manager.updateInterval 250ms
param *.node[*0].veinsmobility.accidentCount 0
param *.node[*0].veinsmobility.accidentDuration 30s
param *.node[*0].veinsmobility.accidentStart 75s
param *.node[*].appl.LiderSelectZoneRadio 55.0
param *.node[*].appl.ShareDataZoneRadio 110.0
param *.node[*].appl.TiempoSemaforo 30.0
param *.node[*].appl.beaconInterval 1s
param *.node[*].appl.beaconPriority 3
param *.node[*].appl.dataOnSch false
param *.node[*].appl.dataPriority 2
param *.node[*].appl.debug false
param *.node[*].appl.headerLength "256 bit"
param *.node[*].appl.maxOffset 0.005s
param *.node[*].appl.sendBeacons false
param *.node[*].appl.sendData true
param *.node[*].applType "\"Dummy\""
param *.node[*].mobilityType "\"TraCIMobility\""
param *.node[*].mobilityType.debug true
param *.node[*].veinsmobility.x 0
param *.node[*].veinsmobility.y 0
param *.node[*].veinsmobility.z 1.895
param *.node[*].veinsmobilityType "\"org.car2x.veins.modules.mobility.traci.TraCIMobility\""
param *.node[*].veinsmobilityType.debug true
param *.playgroundSizeX 8500m
param *.playgroundSizeY 8500m
param *.playgroundSizeZ 50m
param *.world.use2D false
param *.world.useTorus false

vector 34361  IntersectionExampleScenario.manager  vehiclesinsim  ETV
attr type  int
vector 34362  IntersectionExampleScenario.manager  realtime  ETV
attr type  int
attr unit  s
vector 34365  IntersectionExampleScenario.node[0].veinsmobility  posx  ETV
vector 34366  IntersectionExampleScenario.node[0].veinsmobility  posy  ETV
vector 34367  IntersectionExampleScenario.node[0].veinsmobility  speed  ETV
vector 34368  IntersectionExampleScenario.node[0].veinsmobility  acceleration  ETV
vector 34369  IntersectionExampleScenario.node[0].veinsmobility  co2emission  ETV
vector 34372  IntersectionExampleScenario.node[1].veinsmobility  posx  ETV
vector 34373  IntersectionExampleScenario.node[1].veinsmobility  posy  ETV
vector 34374  IntersectionExampleScenario.node[1].veinsmobility  speed  ETV
vector 34375  IntersectionExampleScenario.node[1].veinsmobility  acceleration  ETV
vector 34376  IntersectionExampleScenario.node[1].veinsmobility  co2emission  ETV
vector 34379  IntersectionExampleScenario.node[2].veinsmobility  posx  ETV
vector 34380  IntersectionExampleScenario.node[2].veinsmobility  posy  ETV
vector 34381  IntersectionExampleScenario.node[2].veinsmobility  speed  ETV
vector 34382  IntersectionExampleScenario.node[2].veinsmobility  acceleration  ETV
vector 34383  IntersectionExampleScenario.node[2].veinsmobility  co2emission  ETV
vector 34386  IntersectionExampleScenario.node[3].veinsmobility  posx  ETV
vector 34387  IntersectionExampleScenario.node[3].veinsmobility  posy  ETV
vector 34388  IntersectionExampleScenario.node[3].veinsmobility  speed  ETV
vector 34389  IntersectionExampleScenario.node[3].veinsmobility  acceleration  ETV
vector 34390  IntersectionExampleScenario.node[3].veinsmobility  co2emission  ETV
vector 34393  IntersectionExampleScenario.node[4].veinsmobility  posx  ETV
vector 34394  IntersectionExampleScenario.node[4].veinsmobility  posy  ETV
vector 34395  IntersectionExampleScenario.node[4].veinsmobility  speed  ETV
vector 34396  IntersectionExampleScenario.node[4].veinsmobility  acceleration  ETV
vector 34397  IntersectionExampleScenario.node[4].veinsmobility  co2emission  ETV
vector 34400  IntersectionExampleScenario.node[5].veinsmobility  posx  ETV
vector 34401  IntersectionExampleScenario.node[5].veinsmobility  posy  ETV
vector 34402  IntersectionExampleScenario.node[5].veinsmobility  speed  ETV
vector 34403  IntersectionExampleScenario.node[5].veinsmobility  acceleration  ETV
vector 34404  IntersectionExampleScenario.node[5].veinsmobility  co2emission  ETV
vector 34407  IntersectionExampleScenario.node[6].veinsmobility  posx  ETV
vector 34408  IntersectionExampleScenario.node[6].veinsmobility  posy  ETV
vector 34409  IntersectionExampleScenario.node[6].veinsmobility  speed  ETV
vector 34410  IntersectionExampleScenario.node[6].veinsmobility  acceleration  ETV
vector 34411  IntersectionExampleScenario.node[6].veinsmobility  co2emission  ETV
vector 34414  IntersectionExampleScenario.node[7].veinsmobility  posx  ETV
vector 34415  IntersectionExampleScenario.node[7].veinsmobility  posy  ETV
vector 34416  IntersectionExampleScenario.node[7].veinsmobility  speed  ETV
vector 34417  IntersectionExampleScenario.node[7].veinsmobility  acceleration  ETV
vector 34418  IntersectionExampleScenario.node[7].veinsmobility  co2emission  ETV
vector 34421  IntersectionExampleScenario.node[8].veinsmobility  posx  ETV
vector 34422  IntersectionExampleScenario.node[8].veinsmobility  posy  ETV
vector 34423  IntersectionExampleScenario.node[8].veinsmobility  speed  ETV
vector 34424  IntersectionExampleScenario.node[8].veinsmobility  acceleration  ETV
vector 34425  IntersectionExampleScenario.node[8].veinsmobility  co2emission  ETV
vector 34428  IntersectionExampleScenario.node[9].veinsmobility  posx  ETV
vector 34429  IntersectionExampleScenario.node[9].veinsmobility  posy  ETV
vector 34430  IntersectionExampleScenario.node[9].veinsmobility  speed  ETV
vector 34431  IntersectionExampleScenario.node[9].veinsmobility  acceleration  ETV
vector 34432  IntersectionExampleScenario.node[9].veinsmobility  co2emission  ETV
vector 34435  IntersectionExampleScenario.node[10].veinsmobility  posx  ETV
vector 34436  IntersectionExampleScenario.node[10].veinsmobility  posy  ETV
vector 34437  IntersectionExampleScenario.node[10].veinsmobility  speed  ETV
vector 34438  IntersectionExampleScenario.node[10].veinsmobility  acceleration  ETV
vector 34439  IntersectionExampleScenario.node[10].veinsmobility  co2emission  ETV
vector 34442  IntersectionExampleScenario.node[11].veinsmobility  posx  ETV
vector 34443  IntersectionExampleScenario.node[11].veinsmobility  posy  ETV
vector 34444  IntersectionExampleScenario.node[11].veinsmobility  speed  ETV
vector 34445  IntersectionExampleScenario.node[11].veinsmobility  acceleration  ETV
vector 34446  IntersectionExampleScenario.node[11].veinsmobility  co2emission  ETV
34376	7698 4972 46 2210 4.25 44 160 0.973 11.648172402475 505.10064051074 2737.0386320278
34375	12670 4503 46 2210 4.25 44 160 -3.3652572631836 2.5 38.171613693237 278.48178563692
34374	17173 4854 41 2210 4 44 161 5.6500000953674 15.64999961853 2184.6164550781 30982.743524329
34373	22027 5175 36 2210 3.75 44 162 184.17810058594 483.14999389648 64430.505737305 27371520.896357
34372	27202 5195 36 2210 3.75 44 162 486.85000610352 733.3804473877 87099.290481567 47758415.214333
vector 34449  IntersectionExampleScenario.node[12].veinsmobility  posx  ETV
vector 34450  IntersectionExampleScenario.node[12].veinsmobility  posy  ETV
vector 34451  IntersectionExampleScenario.node[12].veinsmobility  speed  ETV
vector 34452  IntersectionExampleScenario.node[12].veinsmobility  acceleration  ETV
vector 34453  IntersectionExampleScenario.node[12].veinsmobility  co2emission  ETV
vector 34456  IntersectionExampleScenario.node[13].veinsmobility  posx  ETV
vector 34457  IntersectionExampleScenario.node[13].veinsmobility  posy  ETV
vector 34458  IntersectionExampleScenario.node[13].veinsmobility  speed  ETV
vector 34459  IntersectionExampleScenario.node[13].veinsmobility  acceleration  ETV
vector 34460  IntersectionExampleScenario.node[13].veinsmobility  co2emission  ETV
vector 34463  IntersectionExampleScenario.node[14].veinsmobility  posx  ETV
vector 34464  IntersectionExampleScenario.node[14].veinsmobility  posy  ETV
vector 34465  IntersectionExampleScenario.node[14].veinsmobility  speed  ETV
vector 34466  IntersectionExampleScenario.node[14].veinsmobility  acceleration  ETV
vector 34467  IntersectionExampleScenario.node[14].veinsmobility  co2emission  ETV
34411	33600 5107 678 3707 23.75 63.25 159 0.973 11.200708441096 454.35911991347 2192.1748794677
34410	38707 4612 678 3707 23.75 63.25 159 -2.9507179260254 2.5 35.795072555542 167.29327392471
34409	43319 5042 663 3707 23.5 63.25 160 5.6500000953674 15.02499961853 2213.0092506409 31119.00031273
34408	48361 5291 648 3707 23.25 63.25 161 483.14999389648 483.14999389648 77787.149017334 37582860.57295
34407	53652 5262 648 3707 23.25 63.25 161 184.17810058594 732.51210021973 72318.647140503 36736366.211433
34418	58914 5227 832 3917 26.25 66.75 163 0.973 11.450879080643 512.56264160911 2758.1195973523
34417	64141 4686 832 3917 26.25 66.75 163 -4.5 2.5 37.662351608276 257.37996326806
34416	68827 5112 815 3917 26 66.75 164 5.6500000953674 15.375 2272.5493545532 32367.250135387
34415	73939 5410 798 3917 25.75 66.75 165 483.14999389648 733.78927612305 88258.409103394 48193801.786028
34414	79349 5403 798 3917 25.75 66.75 165 168.58435058594 486.85000610352 64684.105316162 27389467.170409
vector 34470  IntersectionExampleScenario.node[15].veinsmobility  posx  ETV
vector 34471  IntersectionExampleScenario.node[15].veinsmobility  posy  ETV
vector 34472  IntersectionExampleScenario.node[15].veinsmobility  speed  ETV
vector 34473  IntersectionExampleScenario.node[15].veinsmobility  acceleration  ETV
vector 34474  IntersectionExampleScenario.node[15].veinsmobility  co2emission  ETV
34369	85153 7310 12 3966 1.75 67.5 264 0.973 12.099024792222 656.66364310478 3316.1754450884
34368	92463 6578 12 3966 1.75 67.5 264 -6.9978852272034 4 41.227170944214 492.65880119239
34367	99041 6868 9 3966 1.5 67.5 265 0 16.27499961853 2205.6507912874 32465.664712985
34366	105909 8593 6 3966 1.25 67.5 266 238.59759521484 785.82187652588 136366.74622345 73918773.986745
34365	114502 8608 6 3966 1.25 67.5 266 483.14999389648 483.14999389648 128517.89837646 62093421.816178
34390	123110 6494 329 4165 16.5 70.75 218 0.973 11.648172402475 576.21275553274 2917.6009945408
34389	129604 6888 329 4165 16.5 70.75 218 -3.7897484302521 2.5 38.171613693237 337.13865725048
34388	136492 7010 320 4165 16.25 70.75 219 0 15.64999961853 2216.8800134771 29582.629229466
34387	143502 7166 311 4165 16 70.75 220 236.42144775391 785.82187652588 114258.8415451 63513481.513793
34386	150668 7208 311 4165 16 70.75 220 483.14999389648 483.14999389648 106292.99865723 51355461.652478
34397	157876 6611 387 4279 18 73 221 0.973 11.648172402475 605.69583554828 3026.6907597865
34396	164487 6759 387 4279 18 73 221 -4.5 2.5 39.190130233765 441.12295438726
34395	171246 7050 376 4279 17.75 73 222 0 15.64999961853 2295.4274704009 30586.716598443
34394	178296 7289 365 4279 17.5 73 223 237.35626220703 806.11563110352 118428.76828003 67461403.02495
34393	185585 7312 365 4279 17.5 73 223 483.14999389648 483.14999389648 107742.44863892 52055763.402284
vector 34477  IntersectionExampleScenario.node[16].veinsmobility  posx  ETV
vector 34478  IntersectionExampleScenario.node[16].veinsmobility  posy  ETV
vector 34484  IntersectionExampleScenario.node[17].veinsmobility  posx  ETV
vector 34485  IntersectionExampleScenario.node[17].veinsmobility  posy  ETV
vector 34479  IntersectionExampleScenario.node[16].veinsmobility  speed  ETV
vector 34480  IntersectionExampleScenario.node[16].veinsmobility  acceleration  ETV
vector 34481  IntersectionExampleScenario.node[16].veinsmobility  co2emission  ETV
vector 34486  IntersectionExampleScenario.node[17].veinsmobility  speed  ETV
vector 34491  IntersectionExampleScenario.node[18].veinsmobility  posx  ETV
vector 34492  IntersectionExampleScenario.node[18].veinsmobility  posy  ETV
vector 34487  IntersectionExampleScenario.node[17].veinsmobility  acceleration  ETV
vector 34488  IntersectionExampleScenario.node[17].veinsmobility  co2emission  ETV
vector 34493  IntersectionExampleScenario.node[18].veinsmobility  speed  ETV
vector 34494  IntersectionExampleScenario.node[18].veinsmobility  acceleration  ETV
vector 34495  IntersectionExampleScenario.node[18].veinsmobility  co2emission  ETV
34404	194100 6783 479 4433 20 76 225 0.97223939240464 11.810082123732 614.23194398291 3179.2449310979
34403	200883 6957 479 4433 20 76 225 -4.5 2.5 38.680875778198 448.8602628839
34402	207840 7071 466 4433 19.75 76 226 1.677811384201 15.875 2289.9099781513 29577.269099717
34401	214911 7429 453 4433 19.5 76 227 486.85000610352 814.06876373291 129943.8067627 76672083.452881
34400	222340 7439 453 4433 19.5 76 227 238.57049560547 483.14999389648 101646.90594482 46536739.275023
34432	229779 5590 1290 4620 33 78.75 184 0.973 11.200708441096 533.23566900556 2779.9013369953
34431	235369 5497 1290 4620 33 78.75 184 -3.4046859741211 2.5 35.795072555542 297.81682465031
34430	240866 5828 1271 4620 32.75 78.75 185 5.5011262893677 15.02499961853 2216.6567292213 28314.434823608
34429	246694 6123 1252 4620 32.5 78.75 186 483.14999389648 785.82187652588 105749.15613556 61969529.385449
34428	252817 6131 1252 4620 32.5 78.75 186 483.14999389648 735.29649353027 98772.290084839 53522285.943825
vector 34498  IntersectionExampleScenario.node[19].veinsmobility  posx  ETV
vector 34499  IntersectionExampleScenario.node[19].veinsmobility  posy  ETV
vector 34500  IntersectionExampleScenario.node[19].veinsmobility  speed  ETV
vector 34501  IntersectionExampleScenario.node[19].veinsmobility  acceleration  ETV
vector 34502  IntersectionExampleScenario.node[19].veinsmobility  co2emission  ETV
vector 34505  IntersectionExampleScenario.node[20].veinsmobility  posx  ETV
vector 34506  IntersectionExampleScenario.node[20].veinsmobility  posy  ETV
vector 34512  IntersectionExampleScenario.node[21].veinsmobility  posx  ETV
vector 34513  IntersectionExampleScenario.node[21].veinsmobility  posy  ETV
vector 34507  IntersectionExampleScenario.node[20].veinsmobility  speed  ETV
34439	259735 5715 1731 5044 38.75 84.5 184 0.973 11.450879080643 547.85114775394 2792.5893505486
34438	265450 5112 1731 5044 38.75 84.5 184 -6.8462600708008 4 37.492597579956 464.90183729215
34437	270562 5604 1710 5044 38.5 84.5 185 0 15.375 2204.1751737595 30797.221239908
34436	276166 6134 1689 5044 38.25 84.5 186 236.23193359375 486.85000610352 81998.553192139 37185223.883947
34435	282300 6127 1689 5044 38.25 84.5 186 483.14999389648 785.82187652588 104554.6230545 60675650.943268
vector 34508  IntersectionExampleScenario.node[20].veinsmobility  acceleration  ETV
vector 34509  IntersectionExampleScenario.node[20].veinsmobility  co2emission  ETV
vector 34514  IntersectionExampleScenario.node[21].veinsmobility  speed  ETV
vector 34515  IntersectionExampleScenario.node[21].veinsmobility  acceleration  ETV
vector 34516  IntersectionExampleScenario.node[21].veinsmobility  co2emission  ETV
vector 34519  IntersectionExampleScenario.node[22].veinsmobility  posx  ETV
vector 34520  IntersectionExampleScenario.node[22].veinsmobility  posy  ETV
vector 34521  IntersectionExampleScenario.node[22].veinsmobility  speed  ETV
vector 34522  IntersectionExampleScenario.node[22].veinsmobility  acceleration  ETV
vector 34523  IntersectionExampleScenario.node[22].veinsmobility  co2emission  ETV
34446	289244 5978 1819 5219 39.75 86.5 188 0.973 11.450879080643 566.74899121197 2832.0023299065
34445	295222 5581 1819 5219 39.75 86.5 188 -4.5 2.5 38.511121749878 462.67753490858
34444	300803 6037 1796 5219 39.5 86.5 189 0 15.375 2291.0152795184 32125.107657083
34443	306840 6254 1773 5219 39.25 86.5 190 237.79754638672 486.85000610352 84176.000732422 38308679.177028
34442	313094 6255 1773 5219 39.25 86.5 190 482.90826416016 807.99687957764 108514.60362244 64219134.422522
34453	319349 5417 2375 5408 45.75 88.75 173 0.97223939240464 11.648172402475 533.78896975376 2863.6886871353
34452	324766 5255 2375 5408 45.75 88.75 173 -2.9892845153809 2.5 38.680875778198 286.27179759869
34451	330021 5505 2350 5408 45.5 88.75 174 5.6500000953674 15.64999961853 2211.8621797562 30093.041602701
34450	335526 5773 2325 5408 45.25 88.75 175 236.16198730469 486.85000610352 76784.923217773 34690877.218374
34449	341299 5766 2325 5408 45.25 88.75 175 483.14999389648 785.82187652588 99436.618873596 58301079.319396
vector 34526  IntersectionExampleScenario.node[23].veinsmobility  posx  ETV
vector 34527  IntersectionExampleScenario.node[23].veinsmobility  posy  ETV
vector 34533  IntersectionExampleScenario.node[24].veinsmobility  posx  ETV
vector 34534  IntersectionExampleScenario.node[24].veinsmobility  posy  ETV
vector 34528  IntersectionExampleScenario.node[23].veinsmobility  speed  ETV
vector 34529  IntersectionExampleScenario.node[23].veinsmobility  acceleration  ETV
vector 34530  IntersectionExampleScenario.node[23].veinsmobility  co2emission  ETV
vector 34535  IntersectionExampleScenario.node[24].veinsmobility  speed  ETV
vector 34536  IntersectionExampleScenario.node[24].veinsmobility  acceleration  ETV
vector 34537  IntersectionExampleScenario.node[24].veinsmobility  co2emission  ETV
34383	347867 9544 220 6355 12.75 100.5 352 0.973 11.450879080643 713.61030925001 2957.0462069378
34382	357411 8172 220 6355 12.75 100.5 352 -28.614356994629 4 37.15309715271 1195.3657551714
34381	365583 8668 213 6355 12.5 100.5 353 0 15.375 2201.9740152359 31000.964835819
34380	374251 11598 206 6355 12.25 100.5 354 184.17810058594 486.85000610352 155093.85009766 70217007.754479
34379	385849 11613 206 6355 12.25 100.5 354 237.33026123047 486.85000610352 163818.4593811 77022579.999264
34460	397462 5505 3394 6510 58.25 102.5 178 0.97223939240464 11.648172402475 532.067441945 2812.0558856103
34459	402967 5461 3394 6510 58.25 102.5 178 -2.1208915710449 2.5 38.680875778198 271.98246236578
34458	408428 5700 3377 6510 58 102.5 179 3.9074597358704 15.64999961853 2202.852519989 29690.705305959
34457	414128 5924 3360 6510 57.75 102.5 180 184.17810058594 486.98480224609 72497.822753906 31006285.201109
34456	420052 5942 3360 6510 57.75 102.5 180 237.11260986328 486.85000610352 79289.229675293 35928232.486971
vector 34540  IntersectionExampleScenario.node[25].veinsmobility  posx  ETV
vector 34541  IntersectionExampleScenario.node[25].veinsmobility  posy  ETV
vector 34542  IntersectionExampleScenario.node[25].veinsmobility  speed  ETV
vector 34543  IntersectionExampleScenario.node[25].veinsmobility  acceleration  ETV
vector 34544  IntersectionExampleScenario.node[25].veinsmobility  co2emission  ETV
34474	426395 5028 3966 6845 67.5 107 159 0.973 11.317959105479 473.10667056849 2556.100774278
34473	431423 4911 3966 6845 67.5 107 159 -3.0276222229004 2.5 35.795072555542 197.26913403228
34472	436334 5090 3949 6845 67.25 107 160 5.6500000953674 15.197310447693 2211.8237257004 31087.94814534
34471	441424 5310 3932 6845 67 107 161 184.17810058594 732.35649108887 72291.542617798 36709863.657616
34470	446734 5340 3932 6845 67 107 161 486.85000610352 486.85000610352 78382.850982666 38160691.479322
vector 34547  IntersectionExampleScenario.node[26].veinsmobility  posx  ETV
vector 34548  IntersectionExampleScenario.node[26].veinsmobility  posy  ETV
vector 34549  IntersectionExampleScenario.node[26].veinsmobility  speed  ETV
vector 34550  IntersectionExampleScenario.node[26].veinsmobility  acceleration  ETV
vector 34551  IntersectionExampleScenario.node[26].veinsmobility  co2emission  ETV
vector 34554  IntersectionExampleScenario.node[27].veinsmobility  posx  ETV
vector 34555  IntersectionExampleScenario.node[27].veinsmobility  posy  ETV
34488	452629 5201 4399 7543 75.5 115.5 161 0.973 11.648172402475 503.93163231616 2728.3624623199
34487	457830 4881 4399 7543 75.5 115.5 161 -4.1973419189453 2.5 37.662351608276 286.19379198726
34486	462711 5086 4384 7543 75.25 115.5 162 5.6500000953674 15.64999961853 2190.9282245636 30916.537392921
34485	467797 5416 4369 7543 75 115.5 163 184.17810058594 483.14999389648 64854.220916748 27557705.153587
34484	473213 5435 4369 7543 75 115.5 163 486.85000610352 735.09066772461 87759.444351196 48203215.754522
vector 34556  IntersectionExampleScenario.node[27].veinsmobility  speed  ETV
vector 34557  IntersectionExampleScenario.node[27].veinsmobility  acceleration  ETV
vector 34558  IntersectionExampleScenario.node[27].veinsmobility  co2emission  ETV
34425	478895 9735 980 7655 28.5 116.75 354 0.973 11.648172402475 753.88261920995 3181.350086243
34424	488630 9051 980 7655 28.5 116.75 354 -7.0267176628113 4 40.110845565796 495.39971798831
34423	497681 9156 963 7655 28.25 116.75 355 0 15.718603134155 2320.9133991003 33262.416363624
34422	506837 11812 946 7655 28 116.75 356 483.14999389648 483.14999389648 172001.39782715 83102474.310374
34421	518649 11785 946 7655 28 116.75 356 159.49530029297 735.11204528809 162356.71037292 78820067.778499
vector 34561  IntersectionExampleScenario.node[28].veinsmobility  posx  ETV
vector 34562  IntersectionExampleScenario.node[28].veinsmobility  posy  ETV
vector 34563  IntersectionExampleScenario.node[28].veinsmobility  speed  ETV
vector 34564  IntersectionExampleScenario.node[28].veinsmobility  acceleration  ETV
vector 34565  IntersectionExampleScenario.node[28].veinsmobility  co2emission  ETV
34502	530835 5355 4777 8073 81 122 165 0.973 11.075724760436 490.01271651233 2544.7501119829
34501	536190 4988 4777 8073 81 122 165 -3.2238464355469 2.5 34.94630241394 233.28118557559
34500	541178 5286 4758 8073 80.75 122 166 5.6500000953674 14.84960269928 2215.7732906342 30275.344020801
34499	546464 5595 4739 8073 80.5 122 167 483.14999389648 735.39392089844 89719.074539185 49232395.530169
34498	552059 5564 4739 8073 80.5 122 167 184.17810058594 486.85000610352 66587.638763428 28385967.812686
34467	557623 8183 3647 8829 62.25 133 284 0.973 11.200708441096 634.74385990331 2751.4119040994
34466	565806 7265 3647 8829 62.25 133 284 -7.5428676605225 4 35.964826583862 464.89642763928
34465	573071 7690 3632 8829 62 133 285 0 15.02499961853 2209.8560891151 30237.050045116
34464	580761 9563 3616 8829 61.75 133 286 483.14999389648 785.82187652588 154552.84789276 85704311.037659
34463	590324 9561 3616 8829 61.75 133 286 483.14999389648 735.53648376465 147074.57258606 76853047.724923
34481	599885 7340 4384 8908 75.25 134.5 238 0.97223939240464 11.648172402475 599.49742767787 2833.2533842482
34480	607225 7824 4384 8908 75.25 134.5 238 -3.8517127037048 2.5 38.680875778198 324.07988255645
34479	615049 7813 4369 8908 75 134.5 239 0 15.64999961853 2204.709809484 29272.207567707
34478	622862 8040 4356 8908 74.75 134.5 240 483.01162719727 785.82187652588 132478.4292984 75102024.632428
34477	630902 8049 4356 8908 74.75 134.5 240 483.14999389648 732.83518981934 124311.07232666 65485717.022152
vector 34568  IntersectionExampleScenario.node[29].veinsmobility  posx  ETV
vector 34569  IntersectionExampleScenario.node[29].veinsmobility  posy  ETV
vector 34570  IntersectionExampleScenario.node[29].veinsmobility  speed  ETV
vector 34571  IntersectionExampleScenario.node[29].veinsmobility  acceleration  ETV
vector 34572  IntersectionExampleScenario.node[29].veinsmobility  co2emission  ETV
34523	639352 6428 5174 9078 86 138 209 0.973 11.200708441096 545.2729619735 2608.207127079
34522	645780 6619 5174 9078 86 138 209 -4.5 2.5 35.455564498901 350.17875619923
34521	652399 6820 5151 9078 85.75 138 210 0 15.02499961853 2209.4605409354 27987.540117055
34520	659219 7099 5128 9078 85.5 138 211 483.14999389648 785.82187652588 118472.3531723 68429574.118864
34519	666318 7107 5128 9078 85.5 138 211 483.14999389648 733.58903503418 110778.42999268 59266211.110322
vector 34575  IntersectionExampleScenario.node[30].veinsmobility  posx  ETV
vector 34576  IntersectionExampleScenario.node[30].veinsmobility  posy  ETV
vector 34577  IntersectionExampleScenario.node[30].veinsmobility  speed  ETV
vector 34578  IntersectionExampleScenario.node[30].veinsmobility  acceleration  ETV
vector 34579  IntersectionExampleScenario.node[30].veinsmobility  co2emission  ETV
34537	673826 5432 6117 9163 97.75 139.75 169 0.973 11.648172402475 539.93558919858 2938.4835305088
34536	679258 5255 6117 9163 97.75 139.75 169 -4.5 2.5 39.529638290405 285.58706082031
34535	684513 5489 6094 9163 97.5 139.75 170 5.6500000953674 15.64999961853 2215.9892606735 30311.698950837
34534	690002 5796 6071 9163 97.25 139.75 171 483.14999389648 785.82187652588 97451.361534119 57320063.39353
34533	695798 5796 6071 9163 97.25 139.75 171 483.14999389648 735.03915405273 91015.973968506 49438027.625649
vector 34582  IntersectionExampleScenario.node[31].veinsmobility  posx  ETV
vector 34583  IntersectionExampleScenario.node[31].veinsmobility  posy  ETV
vector 34584  IntersectionExampleScenario.node[31].veinsmobility  speed  ETV
vector 34585  IntersectionExampleScenario.node[31].veinsmobility  acceleration  ETV
vector 34586  IntersectionExampleScenario.node[31].veinsmobility  co2emission  ETV
vector 34589  IntersectionExampleScenario.node[32].veinsmobility  posx  ETV
vector 34590  IntersectionExampleScenario.node[32].veinsmobility  posy  ETV
vector 34591  IntersectionExampleScenario.node[32].veinsmobility  speed  ETV
vector 34592  IntersectionExampleScenario.node[32].veinsmobility  acceleration  ETV
vector 34593  IntersectionExampleScenario.node[32].veinsmobility  co2emission  ETV
34495	702396 8267 4433 9591 76 148 289 0.973 11.90022389248 668.60424356163 3164.800208711
34494	710663 7448 4433 9591 76 148 289 -7.2641291618347 4 39.699392318726 485.24806203163
34493	718111 7726 4416 9591 75.75 148 290 0 16 2204.2747706175 31714.977261645
34492	725837 9795 4399 9591 75.5 148 291 236.35540771484 486.85000610352 133414.30319214 62309990.586417
34491	735632 9789 4399 9591 75.5 148 291 483.14999389648 785.82187652588 156641.30786896 86465810.083427
vector 34596  IntersectionExampleScenario.node[33].veinsmobility  posx  ETV
vector 34597  IntersectionExampleScenario.node[33].veinsmobility  posy  ETV
vector 34598  IntersectionExampleScenario.node[33].veinsmobility  speed  ETV
vector 34599  IntersectionExampleScenario.node[33].veinsmobility  acceleration  ETV
vector 34600  IntersectionExampleScenario.node[33].veinsmobility  co2emission  ETV
34509	745822 8143 5065 9717 84.75 150 262 0.973 11.36141391502 612.82175326214 2803.0389282669
34508	753965 8509 5065 9717 84.75 150 262 -3.7957725524902 2.500000115484 37.15309715271 332.94149411995
34507	762474 8566 5044 9717 84.5 150 263 0 15.25 2184.2758401958 28354.608078982
34506	771040 8890 5024 9717 84.25 150 264 486.85000610352 733.15235900879 136863.23912048 72055324.441687
34505	779930 8894 5024 9717 84.25 150 264 486.85000610352 785.82187652588 144994.47689056 81644528.254076
vector 34603  IntersectionExampleScenario.node[34].veinsmobility  posx  ETV
vector 34604  IntersectionExampleScenario.node[34].veinsmobility  posy  ETV
vector 34605  IntersectionExampleScenario.node[34].veinsmobility  speed  ETV
34516	789056 8317 5086 9804 85 151.25 266 0.973 11.54047740176 650.89256216474 2923.1867551675
34515	797373 8598 5086 9804 85 151.25 266 -4.5 2.5000009536743 38.680875778198 449.63058931601
34514	805971 8823 5065 9804 84.75 151.25 267 0 15.5 2306.4517458025 30501.6929095
34513	814794 9050 5044 9804 84.5 151.25 268 486.85000610352 486.85000610352 130475.80163574 63522144.822722
34512	823844 9021 5044 9804 84.5 151.25 268 238.36175537109 810.23281097412 142090.27418518 80081413.205508
vector 34606  IntersectionExampleScenario.node[34].veinsmobility  acceleration  ETV
vector 34607  IntersectionExampleScenario.node[34].veinsmobility  co2emission  ETV
34551	833034 5599 7039 9975 109.5 153.5 177 0.973 11.90022389248 564.48591241072 3216.5634220247
34550	838633 5543 7039 9975 109.5 153.5 177 -4.5 2.5000019073486 39.869146347046 349.26391105567
34549	844176 5742 7018 9975 109.25 153.5 178 4.7043418884277 16 2214.3948807716 29976.088958064
34548	849918 6077 6997 9975 109 153.5 179 235.77209472656 486.85000610352 78863.211029053 35746523.71437
34547	855995 6078 6997 9975 109 153.5 179 483.14999389648 785.82187652588 101769.17671967 59644028.436377
vector 34610  IntersectionExampleScenario.node[35].veinsmobility  posx  ETV
vector 34611  IntersectionExampleScenario.node[35].veinsmobility  posy  ETV
34565	862227 5101 7996 10412 121 159.25 154 0.973 11.90022389248 500.22280205006 2839.8672292862
34564	867328 5011 7996 10412 121 159.25 154 -4.1841506958008 2.5 39.699392318726 261.08644317472
34563	872339 4996 7975 10412 120.75 159.25 155 5.6500000953674 16 2203.2881402969 32324.690677604
34562	877335 5319 7954 10412 120.5 159.25 156 237.49890136719 486.85000610352 67762.172332764 30364239.739771
34561	882654 5317 7954 10412 120.5 159.25 156 482.95794677734 785.82187652588 89313.81337738 52886974.289416
vector 34612  IntersectionExampleScenario.node[35].veinsmobility  speed  ETV
vector 34613  IntersectionExampleScenario.node[35].veinsmobility  acceleration  ETV
vector 34614  IntersectionExampleScenario.node[35].veinsmobility  co2emission  ETV
vector 34617  IntersectionExampleScenario.node[36].veinsmobility  posx  ETV
vector 34618  IntersectionExampleScenario.node[36].veinsmobility  posy  ETV
vector 34619  IntersectionExampleScenario.node[36].veinsmobility  speed  ETV
vector 34624  IntersectionExampleScenario.node[37].veinsmobility  posx  ETV
vector 34625  IntersectionExampleScenario.node[37].veinsmobility  posy  ETV
vector 34620  IntersectionExampleScenario.node[36].veinsmobility  acceleration  ETV
vector 34621  IntersectionExampleScenario.node[36].veinsmobility  co2emission  ETV
vector 34626  IntersectionExampleScenario.node[37].veinsmobility  speed  ETV
vector 34627  IntersectionExampleScenario.node[37].veinsmobility  acceleration  ETV
vector 34628  IntersectionExampleScenario.node[37].veinsmobility  co2emission  ETV
vector 34631  IntersectionExampleScenario.node[38].veinsmobility  posx  ETV
vector 34632  IntersectionExampleScenario.node[38].veinsmobility  posy  ETV
vector 34633  IntersectionExampleScenario.node[38].veinsmobility  speed  ETV
vector 34634  IntersectionExampleScenario.node[38].veinsmobility  acceleration  ETV
vector 34635  IntersectionExampleScenario.node[38].veinsmobility  co2emission  ETV
vector 34638  IntersectionExampleScenario.node[39].veinsmobility  posx  ETV
vector 34639  IntersectionExampleScenario.node[39].veinsmobility  posy  ETV
vector 34640  IntersectionExampleScenario.node[39].veinsmobility  speed  ETV
vector 34641  IntersectionExampleScenario.node[39].veinsmobility  acceleration  ETV
vector 34642  IntersectionExampleScenario.node[39].veinsmobility  co2emission  ETV
34579	889822 5311 9137 12085 139.25 178.75 159 0.973 11.810082123732 508.49538687659 2854.0891032743
34578	895133 5022 9137 12085 139.25 178.75 159 -3.5987892150879 2.5 38.511121749878 289.97413352837
34577	900155 5211 9124 12085 139 178.75 160 5.6500000953674 15.875 2187.4261054993 31251.807394893
34576	905366 5554 9111 12085 138.75 178.75 161 184.17810058594 483.33880615234 63994.011108398 27176069.18173
34575	910920 5555 9111 12085 138.75 178.75 161 486.85000610352 733.91084289551 86585.107162476 47495228.222459
vector 34645  IntersectionExampleScenario.node[40].veinsmobility  posx  ETV
vector 34646  IntersectionExampleScenario.node[40].veinsmobility  posy  ETV
vector 34647  IntersectionExampleScenario.node[40].veinsmobility  speed  ETV
vector 34648  IntersectionExampleScenario.node[40].veinsmobility  acceleration  ETV
vector 34649  IntersectionExampleScenario.node[40].veinsmobility  co2emission  ETV
34530	916876 9429 6094 12183 97.5 179.75 330 0.973 11.90022389248 705.74520012118 3193.7785202324
34529	926305 8511 6094 12183 97.5 179.75 330 -8.1522026062012 4 39.529638290405 492.74633385995
34528	934816 8716 6071 12183 97.25 179.75 331 0 16 2186.4730093479 31364.557238738
34527	943532 11373 6050 12183 97 179.75 332 483.14999389648 734.1416015625 168714.34959412 86918833.863276
34526	954905 11360 6050 12183 97 179.75 332 184.17810058594 486.85000610352 144927.64053345 65470427.041864
34544	966265 9098 6788 12258 106.25 180.5 298 0.973 12.099024792222 688.43899426939 3334.7373959955
34543	975363 9328 6788 12258 106.25 180.5 298 -3.9527788162231 2.5 42.415441513062 360.10863274021
34542	984691 9406 6769 12258 106 180.5 299 0 16.27499961853 2219.3107376331 31061.799168901
34541	994097 10307 6750 12258 105.75 180.5 300 483.14999389648 483.14999389648 144944.99816895 70030174.980652
34540	1004404 10257 6750 12258 105.75 180.5 300 184.17810058594 733.91999816895 136140.86352539 65791707.163022
vector 34652  IntersectionExampleScenario.node[41].veinsmobility  posx  ETV
vector 34653  IntersectionExampleScenario.node[41].veinsmobility  posy  ETV
vector 34654  IntersectionExampleScenario.node[41].veinsmobility  speed  ETV
vector 34655  IntersectionExampleScenario.node[41].veinsmobility  acceleration  ETV
vector 34656  IntersectionExampleScenario.node[41].veinsmobility  co2emission  ETV
vector 34659  IntersectionExampleScenario.node[42].veinsmobility  posx  ETV
vector 34660  IntersectionExampleScenario.node[42].veinsmobility  posy  ETV
vector 34661  IntersectionExampleScenario.node[42].veinsmobility  speed  ETV
vector 34662  IntersectionExampleScenario.node[42].veinsmobility  acceleration  ETV
vector 34663  IntersectionExampleScenario.node[42].veinsmobility  co2emission  ETV
vector 34666  IntersectionExampleScenario.node[43].veinsmobility  posx  ETV
vector 34667  IntersectionExampleScenario.node[43].veinsmobility  posy  ETV
vector 34668  IntersectionExampleScenario.node[43].veinsmobility  speed  ETV
vector 34669  IntersectionExampleScenario.node[43].veinsmobility  acceleration  ETV
vector 34670  IntersectionExampleScenario.node[43].veinsmobility  co2emission  ETV
34572	1015864 7646 9042 13502 137.25 197 240 0.973 12.099024792222 622.21174667199 3224.8184048516
34571	1023510 7959 9042 13502 137.25 197 240 -3.9311535358429 2.5000000596046 41.057416915894 363.34429160191
34570	1031469 8121 9029 13502 137 197 241 0 16.27499961853 2205.6249233671 30193.004518605
34569	1039590 8368 9016 13502 136.75 197 242 483.13479614258 785.82187652588 133302.97637177 75382074.226838
34568	1047958 8392 9016 13502 136.75 197 242 483.14999389648 732.47805786133 124949.26890564 65579133.033292
34558	1056350 9523 7589 13502 116 197 325 0.973 11.00486315618 666.3547469377 2688.9369201796
34557	1065873 8370 7589 13502 116 197 325 -9.1513252258301 4 34.94630241394 472.49813860294
34556	1074243 8893 7566 13502 115.75 197 326 0 14.75 2207.684722662 29804.15356052
34555	1083136 11263 7543 13502 115.5 197 327 237.65270996094 785.82187652588 166641.38885498 89261428.640297
34554	1094399 11290 7543 13502 115.5 197 327 483.14999389648 483.14999389648 157990.04800415 76332890.728911
34586	1105689 6897 9460 13687 145.75 200 218 0.973 11.648172402475 570.6377767183 2876.9691965104
34585	1112586 7083 9460 13687 145.75 200 218 -3.8899457454681 2.5 38.341367721558 329.098675348
34584	1119669 7353 9447 13687 145.5 200 219 0 15.64999961853 2202.9978652 28673.547444179
34583	1127022 7649 9434 13687 145.25 200 220 483.13986206055 785.82187652588 123006.24874115 70668966.423899
34582	1134671 7658 9434 13687 145.25 200 220 483.14999389648 731.97290039062 114623.50874329 60786027.316628
vector 34673  IntersectionExampleScenario.node[44].veinsmobility  posx  ETV
vector 34674  IntersectionExampleScenario.node[44].veinsmobility  posy  ETV
vector 34675  IntersectionExampleScenario.node[44].veinsmobility  speed  ETV
vector 34676  IntersectionExampleScenario.node[44].veinsmobility  acceleration  ETV
vector 34677  IntersectionExampleScenario.node[44].veinsmobility  co2emission  ETV
vector 34680  IntersectionExampleScenario.node[45].veinsmobility  posx  ETV
vector 34681  IntersectionExampleScenario.node[45].veinsmobility  posy  ETV
vector 34682  IntersectionExampleScenario.node[45].veinsmobility  speed  ETV
34607	1142962 6585 9823 13855 151.5 202.5 205 0.973 11.200708441096 549.53635344888 2697.5175275958
34606	1149547 6787 9823 13855 151.5 202.5 205 -3.2169761657715 2.5 37.32285118103 320.603648392
34605	1156334 6920 9804 13855 151.25 202.5 206 2.1070291996002 15.28214931488 2204.6199014187 28185.213040513
34604	1163254 7216 9785 13855 151 202.5 207 483.14422607422 785.82187652588 116794.72457123 67750406.537679
34603	1170470 7220 9785 13855 151 202.5 207 483.14999389648 732.52230834961 108510.83261108 57945866.988409
vector 34683  IntersectionExampleScenario.node[45].veinsmobility  acceleration  ETV
vector 34684  IntersectionExampleScenario.node[45].veinsmobility  co2emission  ETV
34614	1177859 5728 10454 14007 159.75 204.5 180 0.97223939240464 11.810082123732 548.49178526323 3199.6145818693
34613	1183587 5857 10454 14007 159.75 204.5 180 -4.4193077087402 2.5000019073486 38.680875778198 357.41216491459
34612	1189444 5996 10433 14007 159.5 204.5 181 5.6500000953674 15.875 2175.2185368538 28265.656758871
34611	1195440 6365 10412 14007 159.25 204.5 182 486.8134765625 785.82187652588 104016.30887604 61203415.060551
34610	1201805 6368 10412 14007 159.25 204.5 182 238.82568359375 483.14999389648 79923.013336182 36045380.287154
vector 34687  IntersectionExampleScenario.node[46].veinsmobility  posx  ETV
vector 34688  IntersectionExampleScenario.node[46].veinsmobility  posy  ETV
vector 34689  IntersectionExampleScenario.node[46].veinsmobility  speed  ETV
vector 34690  IntersectionExampleScenario.node[46].veinsmobility  acceleration  ETV
vector 34691  IntersectionExampleScenario.node[46].veinsmobility  co2emission  ETV
34628	1208574 5494 10841 14150 164.5 206.25 168 0.973 11.200708441096 476.18697488082 2524.7147324776
34627	1214068 5471 10841 14150 164.5 206.25 168 -3.2437744140625 2.5 35.625318527222 207.76015144581
34626	1219539 5695 10820 14150 164.25 206.25 169 5.6500000953674 15.02499961853 2210.6111516953 29630.103575228
34625	1225234 5933 10799 14150 164 206.25 170 238.21173095703 785.82187652588 88850.095970154 50695487.71803
34624	1231167 5949 10799 14150 164 206.25 170 483.14999389648 483.14999389648 82135.498962402 39683765.822369
vector 34694  IntersectionExampleScenario.node[47].veinsmobility  posx  ETV
vector 34695  IntersectionExampleScenario.node[47].veinsmobility  posy  ETV
vector 34696  IntersectionExampleScenario.node[47].veinsmobility  speed  ETV
vector 34697  IntersectionExampleScenario.node[47].veinsmobility  acceleration  ETV
vector 34698  IntersectionExampleScenario.node[47].veinsmobility  co2emission  ETV
vector 34701  IntersectionExampleScenario.node[48].veinsmobility  posx  ETV
vector 34702  IntersectionExampleScenario.node[48].veinsmobility  posy  ETV
vector 34703  IntersectionExampleScenario.node[48].veinsmobility  speed  ETV
vector 34704  IntersectionExampleScenario.node[48].veinsmobility  acceleration  ETV
vector 34705  IntersectionExampleScenario.node[48].veinsmobility  co2emission  ETV
34600	1237918 7638 9700 14638 149.75 211.75 249 0.973 11.90022389248 631.34272426492 3153.1837066761
34599	1245556 6893 9700 14638 149.75 211.75 249 -6.9388580322266 4 39.869146347046 486.92859174969
34598	1252449 7265 9683 14638 149.5 211.75 250 0 16 2204.3578848839 31907.458465355
34597	1259714 8768 9666 14638 149.25 211.75 251 486.85000610352 486.85000610352 122199.35153198 59492755.039191
34596	1268482 8756 9666 14638 149.25 211.75 251 238.82672119141 785.82187652588 128904.24941254 70263508.323191
vector 34708  IntersectionExampleScenario.node[49].veinsmobility  posx  ETV
vector 34709  IntersectionExampleScenario.node[49].veinsmobility  posy  ETV
vector 34710  IntersectionExampleScenario.node[49].veinsmobility  speed  ETV
vector 34711  IntersectionExampleScenario.node[49].veinsmobility  acceleration  ETV
vector 34712  IntersectionExampleScenario.node[49].veinsmobility  co2emission  ETV
vector 34715  IntersectionExampleScenario.node[50].veinsmobility  posx  ETV
vector 34716  IntersectionExampleScenario.node[50].veinsmobility  posy  ETV
vector 34717  IntersectionExampleScenario.node[50].veinsmobility  speed  ETV
34635	1277871 6450 10966 14987 166 215.5 199 0.973 10.756497587458 518.73613043949 2385.8564985002
34634	1284321 6307 10966 14987 166 215.5 199 -2.2144050598145 2.5 33.248777389526 276.88087952374
34633	1290628 6698 10945 14987 165.75 215.5 200 2.0312905311584 14.39999961853 2189.9070401192 27123.833078927
34632	1297326 7023 10924 14987 165.5 215.5 201 486.85000610352 734.7156829834 106866.45899963 57900829.269911
34631	1304349 7013 10924 14987 165.5 215.5 201 486.79309082031 785.82187652588 113520.81494141 66005146.386599
vector 34718  IntersectionExampleScenario.node[50].veinsmobility  acceleration  ETV
vector 34719  IntersectionExampleScenario.node[50].veinsmobility  co2emission  ETV
vector 34722  IntersectionExampleScenario.node[51].veinsmobility  posx  ETV
vector 34723  IntersectionExampleScenario.node[51].veinsmobility  posy  ETV
vector 34724  IntersectionExampleScenario.node[51].veinsmobility  speed  ETV
vector 34725  IntersectionExampleScenario.node[51].veinsmobility  acceleration  ETV
vector 34726  IntersectionExampleScenario.node[51].veinsmobility  co2emission  ETV
vector 34729  IntersectionExampleScenario.node[52].veinsmobility  posx  ETV
vector 34730  IntersectionExampleScenario.node[52].veinsmobility  posy  ETV
vector 34731  IntersectionExampleScenario.node[52].veinsmobility  speed  ETV
vector 34732  IntersectionExampleScenario.node[52].veinsmobility  acceleration  ETV
vector 34733  IntersectionExampleScenario.node[52].veinsmobility  co2emission  ETV
vector 34736  IntersectionExampleScenario.node[53].veinsmobility  posx  ETV
vector 34737  IntersectionExampleScenario.node[53].veinsmobility  posy  ETV
vector 34738  IntersectionExampleScenario.node[53].veinsmobility  speed  ETV
vector 34739  IntersectionExampleScenario.node[53].veinsmobility  acceleration  ETV
vector 34740  IntersectionExampleScenario.node[53].veinsmobility  co2emission  ETV
34593	1312734 9741 9516 16221 146.75 229 330 0.973 11.200708441096 677.58384470344 2807.0145269868
34592	1322475 8714 9516 16221 146.75 229 330 -6.8669729232788 4 35.625318527222 451.20992833426
34591	1331189 9105 9501 16221 146.5 229 331 0 15.02499961853 2216.7981929779 30264.344400869
34590	1340294 11557 9486 16221 146.25 229 332 184.17810058594 734.74969482422 153103.07733154 74952490.030923
34589	1351851 11589 9486 16221 146.25 229 332 486.85000610352 486.85000610352 161634.20202637 78691612.243074
34621	1363440 8445 10799 16266 164 229.5 263 0.973 11.648172402475 624.35677114959 2955.680026082
34620	1371885 8849 10799 16266 164 229.5 263 -3.7288765907288 2.5 38.341367721558 342.52825321442
34619	1380734 8828 10779 16266 163.75 229.5 264 0 15.64999961853 2200.8626603168 29145.469866516
34618	1389562 9243 10758 16266 163.5 229.5 265 184.17810058594 486.86529541016 111899.88607788 49277487.731031
34617	1398805 9262 10758 16266 163.5 229.5 265 238.45654296875 486.85000610352 120715.08157349 56102859.400902
34642	1408067 7486 11579 16434 173.25 231.5 234 0.97223939240464 11.648172402475 592.61370441192 2849.917780744
34641	1415553 7758 11579 16434 173.25 231.5 234 -3.9530122280121 2.5000009536743 38.680875778198 330.13474166485
34640	1423311 8016 11556 16434 173 231.5 235 0 15.64999961853 2223.3340066932 29303.734383966
34639	1431327 8220 11533 16434 172.75 231.5 236 184.17810058594 735.05041503906 105931.12789917 51740590.78156
34638	1439547 8260 11533 16434 172.75 231.5 236 486.85000610352 486.85000610352 114896.60144043 55937411.112546
vector 34743  IntersectionExampleScenario.node[54].veinsmobility  posx  ETV
vector 34744  IntersectionExampleScenario.node[54].veinsmobility  posy  ETV
vector 34745  IntersectionExampleScenario.node[54].veinsmobility  speed  ETV
vector 34746  IntersectionExampleScenario.node[54].veinsmobility  acceleration  ETV
vector 34747  IntersectionExampleScenario.node[54].veinsmobility  co2emission  ETV
vector 34750  IntersectionExampleScenario.node[55].veinsmobility  posx  ETV
vector 34751  IntersectionExampleScenario.node[55].veinsmobility  posy  ETV
vector 34752  IntersectionExampleScenario.node[55].veinsmobility  speed  ETV
34656	1448440 5893 12897 16597 188.75 233.5 180 0.973 11.648172402475 541.60278846393 2818.9315110574
34655	1454333 5642 12897 16597 188.75 233.5 180 -3.6888084411621 2.5 38.341367721558 296.68733341469
34654	1459975 6151 12880 16597 188.5 233.5 181 4.3552317619324 15.64999961853 2217.6991915703 29661.121475034
34653	1466126 6326 12863 16597 188.25 233.5 182 184.17810058594 733.2735748291 81187.087402344 40375959.752561
34652	1472452 6371 12863 16597 188.25 233.5 182 486.85000610352 486.85000610352 88606.70111084 43138172.976625
vector 34753  IntersectionExampleScenario.node[55].veinsmobility  acceleration  ETV
vector 34754  IntersectionExampleScenario.node[55].veinsmobility  co2emission  ETV
vector 34757  IntersectionExampleScenario.node[56].veinsmobility  posx  ETV
vector 34758  IntersectionExampleScenario.node[56].veinsmobility  posy  ETV
vector 34759  IntersectionExampleScenario.node[56].veinsmobility  speed  ETV
vector 34760  IntersectionExampleScenario.node[56].veinsmobility  acceleration  ETV
vector 34761  IntersectionExampleScenario.node[56].veinsmobility  co2emission  ETV
vector 34764  IntersectionExampleScenario.node[57].veinsmobility  posx  ETV
vector 34765  IntersectionExampleScenario.node[57].veinsmobility  posy  ETV
vector 34766  IntersectionExampleScenario.node[57].veinsmobility  speed  ETV
vector 34767  IntersectionExampleScenario.node[57].veinsmobility  acceleration  ETV
vector 34768  IntersectionExampleScenario.node[57].veinsmobility  co2emission  ETV
34684	1479794 5354 13874 17490 202.75 242 158 0.973 11.810082123732 513.43619907667 2875.6901887968
34683	1485148 4965 13874 17490 202.75 242 158 -3.2695980072021 2.5 39.529638290405 284.07426481974
34682	1490113 5234 13855 17490 202.5 242 159 5.6500000953674 15.875 2188.4404091835 31584.254385782
34681	1495347 5572 13836 17490 202.25 242 160 184.17810058594 483.14999389648 63625.503479004 27033162.848805
34680	1500919 5594 13836 17490 202.25 242 160 486.85000610352 734.3169708252 86012.820007324 47160665.690723
vector 34771  IntersectionExampleScenario.node[58].veinsmobility  posx  ETV
vector 34772  IntersectionExampleScenario.node[58].veinsmobility  posy  ETV
vector 34773  IntersectionExampleScenario.node[58].veinsmobility  speed  ETV
vector 34774  IntersectionExampleScenario.node[58].veinsmobility  acceleration  ETV
vector 34775  IntersectionExampleScenario.node[58].veinsmobility  co2emission  ETV
34649	1506914 7889 12158 17720 179.5 244 259 0.973 11.648172402475 629.73243206983 3074.139604617
34648	1514803 7410 12158 17720 179.5 244 259 -8.4519214630127 4 37.832105636597 500.77414787827
34647	1522213 7502 12133 17720 179.25 244 260 0 15.64999961853 2177.7968482971 30577.805811099
34646	1529715 9126 12108 17720 179 244 261 483.14999389648 732.12088012695 134499.76254272 70435293.453049
34645	1538841 9111 12108 17720 179 244 261 184.17810058594 486.85000610352 111277.41622925 49552244.582477
34663	1547952 7272 12969 17912 189.75 245.75 225 0.973 11.200708441096 570.21767164074 2679.949297798
34662	1555224 7533 12969 17912 189.75 245.75 225 -3.850293636322 2.5000004768372 36.474081039429 325.57819710399
34661	1562757 7777 12950 17912 189.5 245.75 226 0 15.02499961853 2216.3455787711 28940.853230135
34660	1570534 7947 12931 17912 189.25 245.75 227 483.14999389648 483.14999389648 109675.0486145 52989499.068693
34659	1578481 7919 12931 17912 189.25 245.75 227 184.17810058594 733.62442016602 102457.2046814 50504686.597754
vector 34778  IntersectionExampleScenario.node[59].veinsmobility  posx  ETV
vector 34779  IntersectionExampleScenario.node[59].veinsmobility  posy  ETV
vector 34780  IntersectionExampleScenario.node[59].veinsmobility  speed  ETV
vector 34781  IntersectionExampleScenario.node[59].veinsmobility  acceleration  ETV
vector 34782  IntersectionExampleScenario.node[59].veinsmobility  co2emission  ETV
vector 34785  IntersectionExampleScenario.node[60].veinsmobility  posx  ETV
vector 34786  IntersectionExampleScenario.node[60].veinsmobility  posy  ETV
vector 34787  IntersectionExampleScenario.node[60].veinsmobility  speed  ETV
34670	1587033 7185 13127 18154 192 248 225 0.973 11.810082123732 608.06231338288 3031.3220021315
34669	1594218 7464 13127 18154 192 248 225 -4.5 2.5 39.699392318726 409.49792262767
34668	1601682 7581 13108 18154 191.75 248 226 0.99422734975815 15.875 2257.2602273822 29534.242614901
34667	1609263 7941 13089 18154 191.5 248 227 235.56585693359 483.14999389648 101573.06567383 46492532.39134
34666	1617204 7907 13089 18154 191.5 248 227 167.29217529297 483.14999389648 91722.996734619 39181151.802424
vector 34788  IntersectionExampleScenario.node[60].veinsmobility  acceleration  ETV
vector 34789  IntersectionExampleScenario.node[60].veinsmobility  co2emission  ETV
vector 34792  IntersectionExampleScenario.node[61].veinsmobility  posx  ETV
vector 34793  IntersectionExampleScenario.node[61].veinsmobility  posy  ETV
vector 34794  IntersectionExampleScenario.node[61].veinsmobility  speed  ETV
vector 34795  IntersectionExampleScenario.node[61].veinsmobility  acceleration  ETV
vector 34796  IntersectionExampleScenario.node[61].veinsmobility  co2emission  ETV
vector 34799  IntersectionExampleScenario.node[62].veinsmobility  posx  ETV
vector 34800  IntersectionExampleScenario.node[62].veinsmobility  posy  ETV
vector 34801  IntersectionExampleScenario.node[62].veinsmobility  speed  ETV
vector 34802  IntersectionExampleScenario.node[62].veinsmobility  acceleration  ETV
vector 34803  IntersectionExampleScenario.node[62].veinsmobility  co2emission  ETV
34691	1626082 6956 14087 19555 205.5 260.25 220 0.973 11.648172402475 594.31748966816 2968.8122513495
34690	1633038 6250 14087 19555 205.5 260.25 220 -6.8117866516113 4 38.850629806519 469.91515502781
34689	1639288 6700 14066 19555 205.25 260.25 221 0 15.64999961853 2207.1536474228 31385.929364603
34688	1645988 7761 14045 19555 205 260.25 222 483.14999389648 785.82187652588 122328.39740753 69417345.244317
34687	1653749 7762 14045 19555 205 260.25 222 483.14999389648 734.32060241699 115676.25944519 61363876.355498
vector 34806  IntersectionExampleScenario.node[63].veinsmobility  posx  ETV
vector 34807  IntersectionExampleScenario.node[63].veinsmobility  posy  ETV
34712	1661665 6430 14870 19925 214.25 263.75 199 0.973 11.00486315618 525.19458448752 2452.1732836291
34711	1668095 6635 14870 19925 214.25 263.75 199 -2.1141128540039 2.5 34.437047958374 263.10334073491
34710	1674730 6802 14847 19925 214 263.75 200 2.0798811912537 14.75 2205.0629770756 27872.081100947
34709	1681532 7022 14824 19925 213.75 263.75 201 483.12774658203 785.82187652588 113161.91891479 65628741.457898
34708	1688554 7029 14824 19925 213.75 263.75 201 483.14999389648 733.04621887207 106052.48503113 57049570.975884
vector 34813  IntersectionExampleScenario.node[64].veinsmobility  posx  ETV
vector 34814  IntersectionExampleScenario.node[64].veinsmobility  posy  ETV
vector 34808  IntersectionExampleScenario.node[63].veinsmobility  speed  ETV
vector 34809  IntersectionExampleScenario.node[63].veinsmobility  acceleration  ETV
vector 34810  IntersectionExampleScenario.node[63].veinsmobility  co2emission  ETV
vector 34815  IntersectionExampleScenario.node[64].veinsmobility  speed  ETV
vector 34816  IntersectionExampleScenario.node[64].veinsmobility  acceleration  ETV
vector 34817  IntersectionExampleScenario.node[64].veinsmobility  co2emission  ETV
34726	1696231 6019 15366 20034 219.75 264.75 181 0.973 11.093806525473 526.6609388802 2687.7804256735
34725	1702250 5878 15366 20034 219.75 264.75 181 -3.7009811401367 2.5 35.625318527222 292.49988076277
34724	1708128 6128 15343 20034 219.5 264.75 182 5.2787919044495 14.875 2213.4109301567 28819.244292395
34723	1714256 6390 15320 20034 219.25 264.75 183 237.35083007812 785.82187652588 95884.845733643 54530170.794449
34722	1720646 6407 15320 20034 219.25 264.75 183 483.14999389648 483.14999389648 88416.448883057 42718406.738198
vector 34820  IntersectionExampleScenario.node[65].veinsmobility  posx  ETV
vector 34821  IntersectionExampleScenario.node[65].veinsmobility  posy  ETV
vector 34822  IntersectionExampleScenario.node[65].veinsmobility  speed  ETV
vector 34823  IntersectionExampleScenario.node[65].veinsmobility  acceleration  ETV
vector 34824  IntersectionExampleScenario.node[65].veinsmobility  co2emission  ETV
vector 34827  IntersectionExampleScenario.node[66].veinsmobility  posx  ETV
vector 34828  IntersectionExampleScenario.node[66].veinsmobility  posy  ETV
vector 34829  IntersectionExampleScenario.node[66].veinsmobility  speed  ETV
vector 34830  IntersectionExampleScenario.node[66].veinsmobility  acceleration  ETV
vector 34831  IntersectionExampleScenario.node[66].veinsmobility  co2emission  ETV
vector 34834  IntersectionExampleScenario.node[67].veinsmobility  posx  ETV
vector 34835  IntersectionExampleScenario.node[67].veinsmobility  posy  ETV
34754	1728009 5446 16620 21023 233.75 273.25 159 0.973 11.200708441096 454.35911991347 2192.1748794677
34753	1733455 4950 16620 21023 233.75 273.25 159 -2.95166015625 2.5 35.795072555542 167.30536973474
34752	1738405 5384 16597 21023 233.5 273.25 160 5.6500000953674 15.02499961853 2213.0065221786 31118.933839836
34751	1743789 5622 16574 21023 233.25 273.25 161 237.48425292969 785.82187652588 83850.817939758 47922565.566958
34750	1749411 5636 16574 21023 233.25 273.25 161 483.14999389648 483.14999389648 77787.149017334 37582860.57295
vector 34836  IntersectionExampleScenario.node[67].veinsmobility  speed  ETV
vector 34837  IntersectionExampleScenario.node[67].veinsmobility  acceleration  ETV
vector 34838  IntersectionExampleScenario.node[67].veinsmobility  co2emission  ETV
vector 34841  IntersectionExampleScenario.node[68].veinsmobility  posx  ETV
vector 34842  IntersectionExampleScenario.node[68].veinsmobility  posy  ETV
vector 34843  IntersectionExampleScenario.node[68].veinsmobility  speed  ETV
vector 34844  IntersectionExampleScenario.node[68].veinsmobility  acceleration  ETV
vector 34845  IntersectionExampleScenario.node[68].veinsmobility  co2emission  ETV
34677	1755695 8998 13751 21405 201 276.25 302 0.973 11.648172402475 670.39443942921 2953.761001848
34676	1764693 8192 13751 21405 201 276.25 302 -7.7750473022461 4 38.511121749878 470.9000398676
34675	1772885 8429 13734 21405 200.75 276.25 303 0 15.64999961853 2199.8885836601 31098.910762345
34674	1781314 10634 13717 21405 200.5 276.25 304 237.19812011719 486.85000610352 139636.95501709 65300262.917481
34673	1791948 10628 13717 21405 200.5 276.25 304 483.14999389648 785.82187652588 163239.10642242 89834210.979879
vector 34848  IntersectionExampleScenario.node[69].veinsmobility  posx  ETV
vector 34849  IntersectionExampleScenario.node[69].veinsmobility  posy  ETV
vector 34850  IntersectionExampleScenario.node[69].veinsmobility  speed  ETV
vector 34851  IntersectionExampleScenario.node[69].veinsmobility  acceleration  ETV
vector 34852  IntersectionExampleScenario.node[69].veinsmobility  co2emission  ETV
34705	1802977 8840 14613 21810 211.5 279.5 273 0.973 11.200708441096 614.64091552094 2676.3975479128
34704	1811817 9435 14613 21810 211.5 279.5 273 -3.9751117229462 2.5 35.625318527222 312.83539675569
34703	1821252 9376 14588 21810 211.25 279.5 274 0 15.02499961853 2204.5923501719 28214.332238147
34702	1830628 9609 14563 21810 211 279.5 275 236.70697021484 486.85000610352 125094.91000366 58089773.29265
34701	1840237 9605 14563 21810 211 279.5 275 482.9700012207 785.82187652588 150433.18793488 84369962.229721
34761	1849842 5882 16716 21841 234.75 279.75 181 0.973 11.648172402475 544.30690305864 2909.6203822392
34760	1855724 5909 16716 21841 234.75 279.75 181 -2.1087760925293 2.5000019073486 39.020376205444 302.24508005381
34759	1861633 6164 16691 21841 234.5 279.75 182 3.2969999313354 15.64999961853 2214.3414134979 29954.08419573
34758	1867797 6407 16666 21841 234.25 279.75 183 486.85000610352 486.85000610352 89093.551116943 43375195.905068
34757	1874204 6390 16666 21841 234.25 279.75 183 237.64471435547 785.82187652588 95842.780433655 54299489.370799
vector 34855  IntersectionExampleScenario.node[70].veinsmobility  posx  ETV
vector 34856  IntersectionExampleScenario.node[70].veinsmobility  posy  ETV
vector 34857  IntersectionExampleScenario.node[70].veinsmobility  speed  ETV
vector 34858  IntersectionExampleScenario.node[70].veinsmobility  acceleration  ETV
vector 34859  IntersectionExampleScenario.node[70].veinsmobility  co2emission  ETV
vector 34862  IntersectionExampleScenario.node[71].veinsmobility  posx  ETV
vector 34863  IntersectionExampleScenario.node[71].veinsmobility  posy  ETV
vector 34864  IntersectionExampleScenario.node[71].veinsmobility  speed  ETV
vector 34869  IntersectionExampleScenario.node[72].veinsmobility  posx  ETV
vector 34870  IntersectionExampleScenario.node[72].veinsmobility  posy  ETV
vector 34865  IntersectionExampleScenario.node[71].veinsmobility  acceleration  ETV
vector 34866  IntersectionExampleScenario.node[71].veinsmobility  co2emission  ETV
vector 34871  IntersectionExampleScenario.node[72].veinsmobility  speed  ETV
vector 34872  IntersectionExampleScenario.node[72].veinsmobility  acceleration  ETV
vector 34873  IntersectionExampleScenario.node[72].veinsmobility  co2emission  ETV
34796	1881797 5276 18269 22798 249 287.5 155 0.973 11.90022389248 498.62205862347 2773.0017976887
34795	1887073 4897 18269 22798 249 287.5 155 -3.4550094604492 2.5 39.529638290405 246.43326624265
34794	1891970 5156 18240 22798 248.75 287.5 156 5.6500000953674 16 2207.5682678223 32251.76089572
34793	1897126 5487 18211 22798 248.5 287.5 157 237.04211425781 486.85000610352 68194.974517822 30559734.274168
34792	1902613 5489 18211 22798 248.5 287.5 157 483.14999389648 785.82187652588 89823.176643372 53149534.893294
vector 34876  IntersectionExampleScenario.node[73].veinsmobility  posx  ETV
vector 34877  IntersectionExampleScenario.node[73].veinsmobility  posy  ETV
vector 34878  IntersectionExampleScenario.node[73].veinsmobility  speed  ETV
vector 34879  IntersectionExampleScenario.node[73].veinsmobility  acceleration  ETV
vector 34880  IntersectionExampleScenario.node[73].veinsmobility  co2emission  ETV
vector 34883  IntersectionExampleScenario.node[74].veinsmobility  posx  ETV
vector 34884  IntersectionExampleScenario.node[74].veinsmobility  posy  ETV
vector 34885  IntersectionExampleScenario.node[74].veinsmobility  speed  ETV
vector 34886  IntersectionExampleScenario.node[74].veinsmobility  acceleration  ETV
vector 34887  IntersectionExampleScenario.node[74].veinsmobility  co2emission  ETV
34698	1908904 9633 14448 23373 209.75 291.75 329 0.973 11.90022389248 720.29860941656 3281.3789614275
34697	1918537 8841 14448 23373 209.75 291.75 329 -8.4820737838745 4 41.057416915894 520.15093187699
34696	1927378 8940 14425 23373 209.5 291.75 330 0 16 2218.335000515 32664.800370822
34695	1936318 11558 14402 23373 209.25 291.75 331 184.17810058594 734.86402893066 152528.2780304 74384134.277315
34694	1947876 11587 14402 23373 209.25 291.75 331 486.85000610352 486.85000610352 161147.35202026 78454589.314631
34719	1959463 9857 15011 23696 215.75 294.25 315 0.973 11.648172402475 678.60247994218 3027.1900484951
34718	1969320 10185 15011 23696 215.75 294.25 315 -3.8749516010284 2.5 38.511121749878 341.67257366773
34717	1979505 10154 14987 23696 215.5 294.25 316 0 15.64999961853 2213.3334829034 29942.540882787
34716	1989659 11048 14962 23696 215.25 294.25 317 184.17810058594 732.82537841797 144334.807724 69868074.431751
34715	2000707 11096 14962 23696 215.25 294.25 317 486.85000610352 486.85000610352 154331.45193481 75136268.316429
34775	2011803 6875 17575 23941 242.75 296.25 215 0.973 11.90022389248 584.03881362545 3043.2003135072
34774	2018678 7144 17575 23941 242.75 296.25 215 -3.8851737976074 2.5000019073486 39.869146347046 337.8680325222
34773	2025822 7287 17546 23941 242.5 296.25 216 0 16 2206.6234226786 29604.153741852
34772	2033109 7570 17517 23941 242.25 296.25 217 184.17810058594 486.85000610352 89302.630706787 38629234.374499
34771	2040679 7585 17517 23941 242.25 296.25 217 237.86077880859 486.85000610352 97507.730621338 44859607.939703
vector 34890  IntersectionExampleScenario.node[75].veinsmobility  posx  ETV
vector 34891  IntersectionExampleScenario.node[75].veinsmobility  posy  ETV
34782	2048418 6507 18098 24139 247.5 298 203 0.973 11.648172402475 569.75153211035 2936.2384144127
34781	2054925 6669 18098 24139 247.5 298 203 -4.5 2.5000019073486 39.869146347046 351.01932167259
34780	2061594 6930 18071 24139 247.25 298 204 1.6568002700806 15.64999961853 2221.9343665838 29844.261389726
34779	2068524 7143 18044 24139 247 298 205 184.17810058594 734.5531463623 91341.069229126 44819822.098307
34778	2075667 7173 18044 24139 247 298 205 486.85000610352 486.85000610352 99804.251251221 48589700.330813
vector 34892  IntersectionExampleScenario.node[75].veinsmobility  speed  ETV
vector 34893  IntersectionExampleScenario.node[75].veinsmobility  acceleration  ETV
vector 34894  IntersectionExampleScenario.node[75].veinsmobility  co2emission  ETV
34824	2083087 5536 20173 25011 266 306.25 162 0.973 11.200708441096 476.08751514023 2369.9055514619
34823	2088623 4996 20173 25011 266 306.25 162 -3.5860557556152 2.5 35.795072555542 221.1589862443
34822	2093619 5430 20144 25011 265.75 306.25 163 5.6500000953674 15.02499961853 2208.9732542038 30681.656625061
34821	2099049 5721 20115 25011 265.5 306.25 164 184.17810058594 487.07064819336 65340.204406738 27846274.673014
34820	2104770 5733 20115 25011 265.5 306.25 164 236.2294921875 486.85000610352 71047.395355225 31777439.103052
34733	2110503 9533 15984 25160 226.5 307.75 326 0.973 12.099024792222 706.41251359831 3298.1617766163
34732	2120036 8672 15984 25160 226.5 307.75 326 -7.8777370452881 4 40.038900375366 507.630947468
34731	2128708 8836 15961 25160 226.25 307.75 327 0 16.27499961853 2168.8228039742 31233.113068193
34730	2137544 11409 15938 25160 226 307.75 328 239.04711914062 483.14999389648 150634.55410767 70262206.706002
34729	2148953 11458 15938 25160 226 307.75 328 184.17810058594 483.36395263672 142904.08459473 64426730.785954
34740	2160411 9588 16080 25229 227.5 308.5 325 0.973 12.099024792222 725.51730064737 3393.1636001645
34739	2169999 8384 16080 25229 227.5 308.5 325 -4.5 2.5 41.566686630249 514.58120245432
34738	2178383 8873 16055 25229 227.25 308.5 326 0 16.27499961853 2299.8566818237 33917.667913942
34737	2187256 11444 16030 25229 227 308.5 327 483.14999389648 483.14999389648 157990.04800415 76332890.728911
34736	2198700 11407 16030 25229 227 308.5 327 162.00311279297 731.8217010498 147594.68070984 71139850.936485
34747	2210107 9909 16553 25527 233 312 317 0.973 11.648172402475 681.4633948353 3029.9315514389
34746	2220016 10122 16553 25527 233 312 317 -3.8797566890717 2.5 38.341367721558 350.02438633456
34745	2230138 10169 16532 25527 232.75 312 318 0 15.64999961853 2228.8414487364 29599.308910133
34744	2240307 11158 16511 25527 232.5 312 319 483.14999389648 732.74476623535 162509.11529541 83960819.417118
34743	2251465 11136 16511 25527 232.5 312 319 178.716796875 486.85000610352 135758.9992981 59932418.588868
34817	2262601 6077 20007 25527 264.5 312 191 0.973 12.553400930962 593.27319952829 3409.7341294919
34816	2268678 6203 20007 25527 264.5 312 191 -2.2198753356934 2.5000019073486 44.112981796265 339.76470434596
34815	2274881 6496 19980 25527 264.25 312 192 1.3882331848145 16.89999961853 2210.4431767464 31181.734366898
34814	2281377 6753 19952 25527 264 312 193 483.14999389648 483.14999389648 93247.948822021 45052745.904219
34813	2288130 6712 19952 25527 264 312 193 184.17810058594 731.12483215332 85601.244247437 41836657.577102
vector 34897  IntersectionExampleScenario.node[76].veinsmobility  posx  ETV
vector 34898  IntersectionExampleScenario.node[76].veinsmobility  posy  ETV
vector 34899  IntersectionExampleScenario.node[76].veinsmobility  speed  ETV
vector 34900  IntersectionExampleScenario.node[76].veinsmobility  acceleration  ETV
vector 34901  IntersectionExampleScenario.node[76].veinsmobility  co2emission  ETV
34831	2295243 5824 20757 25849 271 316 181 0.973 11.648172402475 546.01828781716 3050.3989863584
34830	2301067 5762 20757 25849 271 316 181 -2.8946342468262 2.5 38.511121749878 314.59406003714
34829	2306829 6082 20726 25849 270.75 316 182 5.4044861793518 15.64999961853 2208.2023239136 28977.965271126
34828	2312911 6399 20695 25849 270.5 316 183 483.14999389648 733.2986907959 96816.020263672 52234074.276287
34827	2319310 6377 20695 25849 270.5 316 183 184.17810058594 486.85000610352 73243.488189697 31110659.246972
vector 34904  IntersectionExampleScenario.node[77].veinsmobility  posx  ETV
vector 34905  IntersectionExampleScenario.node[77].veinsmobility  posy  ETV
vector 34906  IntersectionExampleScenario.node[77].veinsmobility  speed  ETV
vector 34907  IntersectionExampleScenario.node[77].veinsmobility  acceleration  ETV
vector 34908  IntersectionExampleScenario.node[77].veinsmobility  co2emission  ETV
34845	2326088 5713 21306 26100 275.5 318.75 174 0.973 11.36141391502 513.63019411341 2752.9385318982
34844	2331801 5739 21306 26100 275.5 318.75 174 -2.8886833190918 2.5 37.32285118103 261.4272712975
34843	2337540 5803 21273 26100 275.25 318.75 175 5.6500000953674 15.25 2190.8200588226 28959.63412803
34842	2343343 6155 21240 26100 275 318.75 176 235.19561767578 483.14999389648 76602.575836182 34326179.77467
34841	2349498 6132 21240 26100 275 318.75 176 184.17810058594 483.16445922852 70245.959960938 29811737.255136
vector 34911  IntersectionExampleScenario.node[78].veinsmobility  posx  ETV
vector 34912  IntersectionExampleScenario.node[78].veinsmobility  posy  ETV
vector 34913  IntersectionExampleScenario.node[78].veinsmobility  speed  ETV
vector 34914  IntersectionExampleScenario.node[78].veinsmobility  acceleration  ETV
vector 34915  IntersectionExampleScenario.node[78].veinsmobility  co2emission  ETV
vector 34918  IntersectionExampleScenario.node[79].veinsmobility  posx  ETV
vector 34919  IntersectionExampleScenario.node[79].veinsmobility  posy  ETV
34768	2356185 10239 16895 26568 236.5 323.75 350 0.973 11.810082123732 755.02238436794 3371.9118364574
34767	2366424 8892 16895 26568 236.5 323.75 350 -18.331977844238 4 40.208654403687 814.82775012488
34766	2375316 9356 16868 26568 236.25 323.75 351 0 15.875 2230.1750059128 32316.882290444
34765	2384672 12315 16841 26568 236 323.75 352 486.63604736328 800.04531860352 188441.07304382 103380073.80714
34764	2396987 12249 16841 26568 236 323.75 352 238.56188964844 483.14999389648 162218.74673462 75857823.263621
vector 34920  IntersectionExampleScenario.node[79].veinsmobility  speed  ETV
vector 34921  IntersectionExampleScenario.node[79].veinsmobility  acceleration  ETV
vector 34922  IntersectionExampleScenario.node[79].veinsmobility  co2emission  ETV
34789	2409483 9575 18183 26698 248.25 325 308 0.973 12.099024792222 693.22944570843 3303.9023765399
34788	2419058 9520 18183 26698 248.25 325 308 -3.7638320922852 2.5 41.396924972534 361.95148789236
34787	2428578 9758 18154 26698 248 325 309 0 16.27499961853 2209.40845815 30327.327504272
34786	2438336 10830 18125 26698 247.75 325 310 483.13442993164 785.82187652588 167617.18083954 92693847.95617
34785	2449166 10839 18125 26698 247.75 325 310 483.14999389648 733.48168945312 157828.02865601 81485529.621816
34803	2460005 8785 19497 26954 259.75 327.75 273 0.973 11.648172402475 633.76754405845 2946.1111309564
34802	2468790 9177 19497 26954 259.75 327.75 273 -3.8764753341675 2.5000009536743 38.511121749878 330.71099814461
34801	2477967 9285 19468 26954 259.5 327.75 274 0 15.64999961853 2202.3328997903 28916.632148161
34800	2487252 9590 19439 26954 259.25 327.75 275 482.94677734375 785.82187652588 151008.34131622 84913176.853538
34799	2496842 9618 19439 26954 259.25 327.75 275 483.14999389648 732.09429931641 141180.87452698 73607786.711539
vector 34925  IntersectionExampleScenario.node[80].veinsmobility  posx  ETV
vector 34926  IntersectionExampleScenario.node[80].veinsmobility  posy  ETV
vector 34927  IntersectionExampleScenario.node[80].veinsmobility  speed  ETV
vector 34928  IntersectionExampleScenario.node[80].veinsmobility  acceleration  ETV
vector 34929  IntersectionExampleScenario.node[80].veinsmobility  co2emission  ETV
vector 34932  IntersectionExampleScenario.node[81].veinsmobility  posx  ETV
vector 34933  IntersectionExampleScenario.node[81].veinsmobility  posy  ETV
vector 34939  IntersectionExampleScenario.node[82].veinsmobility  posx  ETV
vector 34940  IntersectionExampleScenario.node[82].veinsmobility  posy  ETV
vector 34934  IntersectionExampleScenario.node[81].veinsmobility  speed  ETV
vector 34935  IntersectionExampleScenario.node[81].veinsmobility  acceleration  ETV
vector 34936  IntersectionExampleScenario.node[81].veinsmobility  co2emission  ETV
vector 34941  IntersectionExampleScenario.node[82].veinsmobility  speed  ETV
vector 34942  IntersectionExampleScenario.node[82].veinsmobility  acceleration  ETV
vector 34943  IntersectionExampleScenario.node[82].veinsmobility  co2emission  ETV
34810	2507663 9083 19980 28053 264.25 340.25 305 0.973 11.648172402475 671.55071244211 3046.7888945767
34809	2516746 8292 19980 28053 264.25 340.25 305 -8.4908542633057 4 38.001859664917 493.50280433518
34808	2525038 8514 19952 28053 264 340.25 306 0 15.64999961853 2207.1771929264 31179.874350652
34807	2533552 10745 19925 28053 263.75 340.25 307 486.85000610352 486.85000610352 149462.95187378 72766039.031999
34806	2544297 10726 19925 28053 263.75 340.25 307 237.69897460938 785.82187652588 156684.48358917 84143259.694905
vector 34946  IntersectionExampleScenario.node[83].veinsmobility  posx  ETV
vector 34947  IntersectionExampleScenario.node[83].veinsmobility  posy  ETV
34859	2555177 7998 21938 28196 280.5 342 247 0.973 11.200708441096 591.51032490918 2686.044188726
34858	2563175 8248 21938 28196 280.5 342 247 -3.9314744472504 2.5000009536743 36.304327011108 327.86354583925
34857	2571423 8459 21905 28196 280.25 342 248 0 15.02499961853 2201.5507254843 28444.980719475
34856	2579882 8701 21872 28196 280 342 249 238.02301025391 486.85000610352 112623.13504028 52069701.178425
34855	2588583 8695 21872 28196 280 342 249 483.13479614258 785.82187652588 137242.38407135 77665055.352426
vector 34948  IntersectionExampleScenario.node[83].veinsmobility  speed  ETV
vector 34949  IntersectionExampleScenario.node[83].veinsmobility  acceleration  ETV
vector 34950  IntersectionExampleScenario.node[83].veinsmobility  co2emission  ETV
vector 34953  IntersectionExampleScenario.node[84].veinsmobility  posx  ETV
vector 34954  IntersectionExampleScenario.node[84].veinsmobility  posy  ETV
vector 34955  IntersectionExampleScenario.node[84].veinsmobility  speed  ETV
vector 34956  IntersectionExampleScenario.node[84].veinsmobility  acceleration  ETV
vector 34957  IntersectionExampleScenario.node[84].veinsmobility  co2emission  ETV
34866	2597926 7621 22567 28434 285.75 344.75 237 0.973 11.36141391502 589.59358842905 2821.622807714
34865	2605547 7919 22567 28434 285.75 344.75 237 -3.7564730644226 2.5 37.15309715271 366.19464654935
34864	2613466 7986 22536 28434 285.5 344.75 238 0 15.25 2187.74102097 27687.789495928
34863	2621452 8359 22505 28434 285.25 344.75 239 486.85000610352 734.17802429199 124768.30075073 66221223.533597
34862	2629811 8348 22505 28434 285.25 344.75 239 486.85000610352 785.82187652588 133215.76371002 76157299.205465
34873	2638159 7942 22633 28665 286.25 347.5 246 0.973 11.218599164603 601.45682878143 2708.6648787832
34872	2646101 7856 22633 28665 286.25 347.5 246 -4.5 2.5000019073486 36.643835067749 402.13053492085
34871	2653957 8126 22600 28665 286 347.5 247 0 15.050077438354 2309.5916143507 29431.156618021
34870	2662083 8674 22567 28665 285.75 347.5 248 235.65002441406 486.85000610352 112016.89254761 51749289.338286
34869	2670757 8640 22567 28665 285.75 347.5 248 483.14999389648 809.56562805176 140307.84480286 81822385.685444
vector 34960  IntersectionExampleScenario.node[85].veinsmobility  posx  ETV
vector 34961  IntersectionExampleScenario.node[85].veinsmobility  posy  ETV
vector 34962  IntersectionExampleScenario.node[85].veinsmobility  speed  ETV
vector 34963  IntersectionExampleScenario.node[85].veinsmobility  acceleration  ETV
vector 34964  IntersectionExampleScenario.node[85].veinsmobility  co2emission  ETV
34894	2679798 6694 24197 28933 298.5 350.5 209 0.973 10.756497587458 536.3292414358 2458.9046482232
34893	2686492 6968 24197 28933 298.5 350.5 209 -3.8541457653046 2.5 34.437047958374 307.81251058495
34892	2693460 7072 24168 28933 298.25 350.5 210 0 14.63746547699 2209.8965633512 27598.095539164
34891	2700532 7380 24139 28933 298 350.5 211 236.42742919922 486.85000610352 93744.992584229 42768457.121104
34890	2707912 7373 24139 28933 298 350.5 211 483.14999389648 785.82187652588 118977.07862854 68986114.961071
vector 34967  IntersectionExampleScenario.node[86].veinsmobility  posx  ETV
vector 34968  IntersectionExampleScenario.node[86].veinsmobility  posy  ETV
vector 34969  IntersectionExampleScenario.node[86].veinsmobility  speed  ETV
vector 34970  IntersectionExampleScenario.node[86].veinsmobility  acceleration  ETV
vector 34971  IntersectionExampleScenario.node[86].veinsmobility  co2emission  ETV
34838	2715686 9578 21085 29423 273.75 355.5 328 0.973 12.353032912318 724.13776855559 3409.2229108331
34837	2725264 8801 21085 29423 273.75 355.5 328 -7.37841796875 4 41.736440658569 508.10137163116
34836	2734065 8844 21054 29423 273.5 355.5 329 0 16.625 2200.1702463627 32526.203752206
34835	2742909 11528 21023 29423 273.25 355.5 330 184.17810058594 486.85000610352 144213.48193359 65203739.568409
34834	2754437 11547 21023 29423 273.25 355.5 330 237.53265380859 486.85000610352 152724.79104614 71807583.038035
34852	2765984 9919 21717 29651 278.75 358 318 0.973 11.200708441096 662.06182060338 2762.2059395199
34851	2775903 10171 21717 29651 278.75 358 318 -3.8884990215302 2.5 35.964826583862 332.89923682309
34850	2786074 10102 21686 29651 278.5 358 319 0 15.02499961853 2221.8754189983 29154.179526648
34849	2796176 11154 21654 29651 278.25 358 320 184.17810058594 735.10899353027 146011.02609253 70946502.442197
34848	2807330 11200 21654 29651 278.25 358 320 486.85000610352 486.85000610352 155792.00195312 75847337.101758
vector 34974  IntersectionExampleScenario.node[87].veinsmobility  posx  ETV
vector 34975  IntersectionExampleScenario.node[87].veinsmobility  posy  ETV
vector 34976  IntersectionExampleScenario.node[87].veinsmobility  speed  ETV
vector 34977  IntersectionExampleScenario.node[87].veinsmobility  acceleration  ETV
vector 34978  IntersectionExampleScenario.node[87].veinsmobility  co2emission  ETV
34887	2818931 8829 23234 29808 290.75 359.75 277 0.93438186594183 12.26218747632 659.13063437378 3366.1029889979
34886	2827760 9371 23234 29808 290.75 359.75 277 -3.823117017746 2.5 41.057416915894 362.14305328155
34885	2837131 9300 23199 29808 290.5 359.75 278 0 16.5 2191.1564463982 29435.131537687
34884	2846431 9735 23164 29808 290.25 359.75 279 184.17810058594 483.14999389648 117535.6746521 51455296.102711
34883	2856166 9760 23164 29808 290.25 359.75 279 486.85000610352 734.52749633789 143765.90666199 75160842.612907
vector 34981  IntersectionExampleScenario.node[88].veinsmobility  posx  ETV
vector 34982  IntersectionExampleScenario.node[88].veinsmobility  posy  ETV
vector 34983  IntersectionExampleScenario.node[88].veinsmobility  speed  ETV
vector 34984  IntersectionExampleScenario.node[88].veinsmobility  acceleration  ETV
vector 34985  IntersectionExampleScenario.node[88].veinsmobility  co2emission  ETV
34880	2866327 9755 23065 30994 289.5 372.25 332 0.973 11.450879080643 686.88818373104 2914.504375001
34879	2876082 8771 23065 30994 289.5 372.25 332 -6.7711095809937 4 36.98334312439 452.58186531079
34878	2884853 9084 23031 30994 289.25 372.25 333 0 15.375 2182.7726492882 30224.122440747
34877	2893937 11680 22996 30994 289 372.25 334 483.14999389648 733.20059204102 169952.18626404 87689684.981535
34876	2905617 11661 22996 30994 289 372.25 334 184.17810058594 486.85000610352 145576.24087524 65692078.759841
34922	2917278 6309 26622 31129 324.25 373.75 199 0.973 11.810082123732 554.80139358257 2970.9235840735
34921	2923587 6620 26622 31129 324.25 373.75 199 -2.0975685119629 2.5000004768372 38.511121749878 317.61332815488
34920	2930207 6663 26595 31129 324 373.75 200 1.0668412446976 15.875 2178.2090703249 28774.129555
34919	2936870 7034 26568 31129 323.75 373.75 201 238.45269775391 483.14999389648 89054.126800537 40443028.653538
34918	2943904 7009 26568 31129 323.75 373.75 201 184.17810058594 483.15124511719 81928.899810791 35230126.249382
vector 34988  IntersectionExampleScenario.node[89].veinsmobility  posx  ETV
vector 34989  IntersectionExampleScenario.node[89].veinsmobility  posy  ETV
vector 34990  IntersectionExampleScenario.node[89].veinsmobility  speed  ETV
vector 34991  IntersectionExampleScenario.node[89].veinsmobility  acceleration  ETV
vector 34992  IntersectionExampleScenario.node[89].veinsmobility  co2emission  ETV
vector 34995  IntersectionExampleScenario.node[90].veinsmobility  posx  ETV
vector 34996  IntersectionExampleScenario.node[90].veinsmobility  posy  ETV
vector 34997  IntersectionExampleScenario.node[90].veinsmobility  speed  ETV
vector 34998  IntersectionExampleScenario.node[90].veinsmobility  acceleration  ETV
vector 34999  IntersectionExampleScenario.node[90].veinsmobility  co2emission  ETV
vector 35002  IntersectionExampleScenario.node[91].veinsmobility  posx  ETV
vector 35003  IntersectionExampleScenario.node[91].veinsmobility  posy  ETV
vector 35004  IntersectionExampleScenario.node[91].veinsmobility  speed  ETV
vector 35005  IntersectionExampleScenario.node[91].veinsmobility  acceleration  ETV
vector 35006  IntersectionExampleScenario.node[91].veinsmobility  co2emission  ETV
vector 35009  IntersectionExampleScenario.node[92].veinsmobility  posx  ETV
vector 35010  IntersectionExampleScenario.node[92].veinsmobility  posy  ETV
vector 35011  IntersectionExampleScenario.node[92].veinsmobility  speed  ETV
vector 35016  IntersectionExampleScenario.node[93].veinsmobility  posx  ETV
vector 35017  IntersectionExampleScenario.node[93].veinsmobility  posy  ETV
vector 35012  IntersectionExampleScenario.node[92].veinsmobility  acceleration  ETV
vector 35013  IntersectionExampleScenario.node[92].veinsmobility  co2emission  ETV
vector 35018  IntersectionExampleScenario.node[93].veinsmobility  speed  ETV
vector 35019  IntersectionExampleScenario.node[93].veinsmobility  acceleration  ETV
vector 35020  IntersectionExampleScenario.node[93].veinsmobility  co2emission  ETV
vector 35023  IntersectionExampleScenario.node[94].veinsmobility  posx  ETV
vector 35024  IntersectionExampleScenario.node[94].veinsmobility  posy  ETV
vector 35025  IntersectionExampleScenario.node[94].veinsmobility  speed  ETV
vector 35026  IntersectionExampleScenario.node[94].veinsmobility  acceleration  ETV
vector 35027  IntersectionExampleScenario.node[94].veinsmobility  co2emission  ETV
34901	2953319 8937 25702 32660 314.25 388.5 298 0.973 11.36141391502 655.87076604097 2875.3831179632
[...]
37817	21355040 8114 192098 199264 1711 1765.75 220 184.17810058594 483.25354003906 90793.814758301 39360805.388265
37816	21363154 8126 192098 199264 1711 1765.75 220 486.85000610352 732.64149475098 115198.10534668 61344168.167578
37841	21371280 6764 192992 199376 1717.5 1767 199 0.973 11.648172402475 564.10468684564 2929.6264620305
37840	21378044 6933 192992 199376 1717.5 1767 199 -3.0901641845703 2.5 40.378400802612 313.56552331333
37839	21384977 7116 192958 199376 1717.25 1767 200 1.7182412147522 15.79927444458 2211.9803072214 29274.22407871
37838	21392093 7396 192923 199376 1717 1767 201 184.17810058594 486.87814331055 81657.43170166 34998050.850712
37837	21399489 7416 192923 199376 1717 1767 201 235.70910644531 486.85000610352 89628.762298584 41004923.660948
vector 37935  IntersectionExampleScenario.node[510].veinsmobility  posx  ETV
vector 37936  IntersectionExampleScenario.node[510].veinsmobility  posy  ETV
vector 37937  IntersectionExampleScenario.node[510].veinsmobility  speed  ETV
vector 37938  IntersectionExampleScenario.node[510].veinsmobility  acceleration  ETV
vector 37939  IntersectionExampleScenario.node[510].veinsmobility  co2emission  ETV
37869	21407311 6546 193581 199552 1721.5 1769 191 0.973 12.099024792222 578.90314446085 3239.097092863
37868	21413857 6420 193581 199552 1721.5 1769 191 -4.5 2.5000009536743 42.245687484741 401.47538694358
37867	21420277 6780 193542 199552 1721.25 1769 192 1.0941281318665 16.27499961853 2125.642570138 28749.356727234
37866	21427057 7115 193503 199552 1721 1769 193 199.35546875 483.14999389648 79202.72833252 34045381.212465
37865	21434172 7135 193503 199552 1721 1769 193 486.85000610352 733.22132873535 101694.65158081 54537835.717368
vector 37942  IntersectionExampleScenario.node[511].veinsmobility  posx  ETV
vector 37943  IntersectionExampleScenario.node[511].veinsmobility  posy  ETV
vector 37949  IntersectionExampleScenario.node[512].veinsmobility  posx  ETV
vector 37950  IntersectionExampleScenario.node[512].veinsmobility  posy  ETV
vector 37944  IntersectionExampleScenario.node[511].veinsmobility  speed  ETV
vector 37945  IntersectionExampleScenario.node[511].veinsmobility  acceleration  ETV
vector 37946  IntersectionExampleScenario.node[511].veinsmobility  co2emission  ETV
vector 37951  IntersectionExampleScenario.node[512].veinsmobility  speed  ETV
37862	21441948 7011 193466 199706 1720.75 1770.75 201 0.973 11.990504229548 583.15966061934 3095.0510231848
37861	21448959 6940 193466 199706 1720.75 1770.75 201 -4.5 2.5 39.529638290405 392.28571393495
37860	21455899 7255 193429 199706 1720.5 1770.75 202 1.4627883434296 16.125 2263.3812841177 29980.635963497
37859	21463154 7482 193391 199706 1720.25 1770.75 203 172.9296875 733.32775878906 88389.581390381 43123058.416332
37858	21470636 7513 193391 199706 1720.25 1770.75 203 486.85000610352 486.85000610352 98830.551239014 48115654.473927
vector 37952  IntersectionExampleScenario.node[512].veinsmobility  acceleration  ETV
vector 37953  IntersectionExampleScenario.node[512].veinsmobility  co2emission  ETV
vector 37956  IntersectionExampleScenario.node[513].veinsmobility  posx  ETV
vector 37957  IntersectionExampleScenario.node[513].veinsmobility  posy  ETV
vector 37958  IntersectionExampleScenario.node[513].veinsmobility  speed  ETV
vector 37959  IntersectionExampleScenario.node[513].veinsmobility  acceleration  ETV
vector 37960  IntersectionExampleScenario.node[513].veinsmobility  co2emission  ETV
37876	21478726 6692 194266 200068 1726 1774.5 195 0.973 11.36141391502 551.74657583637 2870.8985090179
37875	21485418 6802 194266 200068 1726 1774.5 195 -3.3335742950439 2.5 36.134572982788 346.62873040221
37874	21492220 6924 194227 200068 1725.75 1774.5 196 2.7162799835205 15.25 2226.9743123055 28447.545796857
37873	21499144 7270 194188 200068 1725.5 1774.5 197 174.07104492188 483.14999389648 78615.520111084 33356534.690058
37872	21506414 7285 194188 200068 1725.5 1774.5 197 486.85000610352 733.55963134766 104402.97998047 56358840.262002
37883	21513699 6266 195206 200276 1732 1776.75 180 0.973 11.36141391502 531.77540637455 2719.6479953892
37882	21519965 6258 195206 200276 1732 1776.75 180 -3.7404403686523 2.5 38.001859664917 298.01489228663
37881	21526223 6369 195165 200276 1731.75 1776.75 181 4.3947949409485 15.25 2184.1259598732 28861.445645298
37880	21532592 6705 195124 200276 1731.5 1776.75 182 184.17810058594 483.14999389648 73016.103729248 31074715.68545
37879	21539297 6728 195124 200276 1731.5 1776.75 182 486.85000610352 733.01222229004 96833.904006958 52494203.473876
vector 37963  IntersectionExampleScenario.node[514].veinsmobility  posx  ETV
vector 37964  IntersectionExampleScenario.node[514].veinsmobility  posy  ETV
vector 37965  IntersectionExampleScenario.node[514].veinsmobility  speed  ETV
37806	21546260 9255 191756 200577 1708 1780 289 0.973 11.648172402475 665.064423133 3070.7871995825
37805	21555515 8449 191756 200577 1708 1780 289 -7.6570272445679 4 39.190130233765 492.31926275315
37804	21563964 8725 191729 200577 1707.75 1780 290 0 15.64999961853 2208.5904912949 31702.289224318
37803	21572689 10766 191702 200577 1707.5 1780 291 483.14999389648 483.14999389648 140596.64822388 67929269.731232
37802	21583455 10743 191702 200577 1707.5 1780 291 184.17810058594 732.46667480469 133542.92172241 65409349.703229
vector 37966  IntersectionExampleScenario.node[514].veinsmobility  acceleration  ETV
vector 37967  IntersectionExampleScenario.node[514].veinsmobility  co2emission  ETV
vector 37970  IntersectionExampleScenario.node[515].veinsmobility  posx  ETV
vector 37971  IntersectionExampleScenario.node[515].veinsmobility  posy  ETV
37834	21594525 9530 192199 200780 1711.75 1782.25 283 0.973 11.648172402475 661.91318424758 3053.108703186
37833	21604055 9352 192199 200780 1711.75 1782.25 283 -4.5 2.5 39.529638290405 420.0561756961
37832	21613407 9610 192164 200780 1711.5 1782.25 284 0 15.64999961853 2243.6789600533 31866.374372964
37831	21623017 10546 192129 200780 1711.25 1782.25 285 483.14999389648 483.14999389648 137697.7482605 66528666.231619
37830	21633563 10491 192129 200780 1711.25 1782.25 285 176.21716308594 732.58676147461 129146.93002319 62800423.79309
vector 37972  IntersectionExampleScenario.node[515].veinsmobility  speed  ETV
vector 37973  IntersectionExampleScenario.node[515].veinsmobility  acceleration  ETV
vector 37974  IntersectionExampleScenario.node[515].veinsmobility  co2emission  ETV
vector 37977  IntersectionExampleScenario.node[516].veinsmobility  posx  ETV
vector 37978  IntersectionExampleScenario.node[516].veinsmobility  posy  ETV
vector 37979  IntersectionExampleScenario.node[516].veinsmobility  speed  ETV
vector 37980  IntersectionExampleScenario.node[516].veinsmobility  acceleration  ETV
vector 37981  IntersectionExampleScenario.node[516].veinsmobility  co2emission  ETV
37848	21644710 9179 193095 201057 1718.25 1785.25 269 0.973 11.513270771719 628.73198490273 2889.287478349
37847	21653889 9636 193095 201057 1718.25 1785.25 269 -3.8121168613434 2.5000019073486 36.98334312439 334.48509976439
37846	21663525 9774 193060 201057 1718 1785.25 270 0 15.498262405396 2218.5688707409 28813.412258236
37845	21673299 10027 193025 201057 1717.75 1785.25 271 483.14999389648 483.14999389648 130933.64834595 63260591.399189
37844	21683326 9975 193025 201057 1717.75 1785.25 271 184.17810058594 733.97332763672 122093.64137268 59258274.464765
vector 37984  IntersectionExampleScenario.node[517].veinsmobility  posx  ETV
vector 37985  IntersectionExampleScenario.node[517].veinsmobility  posy  ETV
vector 37986  IntersectionExampleScenario.node[517].veinsmobility  speed  ETV
vector 37987  IntersectionExampleScenario.node[517].veinsmobility  acceleration  ETV
vector 37988  IntersectionExampleScenario.node[517].veinsmobility  co2emission  ETV
vector 37991  IntersectionExampleScenario.node[518].veinsmobility  posx  ETV
vector 37992  IntersectionExampleScenario.node[518].veinsmobility  posy  ETV
vector 37993  IntersectionExampleScenario.node[518].veinsmobility  speed  ETV
vector 37994  IntersectionExampleScenario.node[518].veinsmobility  acceleration  ETV
vector 37995  IntersectionExampleScenario.node[518].veinsmobility  co2emission  ETV
37897	21694113 7503 195334 201302 1732.75 1787.75 221 0.973 11.648172402475 581.9397329296 2953.273876384
37896	21701616 7728 195334 201302 1732.75 1787.75 221 -3.8284003734589 2.5000009536743 38.341367721558 338.71590217614
37895	21709344 7932 195291 201302 1732.5 1787.75 222 0 15.64999961853 2206.8570216112 28830.549000189
37894	21717276 8236 195247 201302 1732.25 1787.75 223 483.14999389648 732.42687988281 116104.60987854 61524485.539542
37893	21725512 8218 195247 201302 1732.25 1787.75 223 184.17810058594 486.85000610352 91540.871307373 39455484.102518
37911	21733730 5355 197968 201502 1752.5 1789.75 150 0.973 12.099024792222 525.71781467947 3245.0204893717
37910	21739085 5015 197968 201502 1752.5 1789.75 150 -3.5039863586426 2.5 41.057416915894 261.92155536585
37909	21744100 5345 197941 201502 1752.25 1789.75 151 5.6500000953674 16.27499961853 2210.6191854477 33153.565256948
37908	21749445 5624 197914 201502 1752 1789.75 152 483.14999389648 483.14999389648 73438.799072266 35481955.32353
37907	21755069 5597 197914 201502 1752 1789.75 152 184.17810058594 731.7342376709 67878.234283447 34301409.462705
vector 37998  IntersectionExampleScenario.node[519].veinsmobility  posx  ETV
vector 37999  IntersectionExampleScenario.node[519].veinsmobility  posy  ETV
vector 38000  IntersectionExampleScenario.node[519].veinsmobility  speed  ETV
vector 38001  IntersectionExampleScenario.node[519].veinsmobility  acceleration  ETV
vector 38002  IntersectionExampleScenario.node[519].veinsmobility  co2emission  ETV
37827	21761072 10621 192199 202120 1711.75 1796.25 339 0.973 11.648172402475 707.62191236005 3090.0298895118
37826	21771693 9578 192199 202120 1711.75 1796.25 339 -7.03919506073 4 38.341367721558 481.63103295482
37825	21781271 9913 192164 202120 1711.5 1796.25 340 0 15.64999961853 2212.4081838131 31409.619262413
37824	21791184 12603 192129 202120 1711.25 1796.25 341 236.58178710938 785.82187652588 173556.43978119 92521084.678758
37823	21803787 12618 192129 202120 1711.25 1796.25 341 483.14999389648 483.14999389648 164754.1479187 79600965.561341
vector 38005  IntersectionExampleScenario.node[520].veinsmobility  posx  ETV
vector 38006  IntersectionExampleScenario.node[520].veinsmobility  posy  ETV
vector 38007  IntersectionExampleScenario.node[520].veinsmobility  speed  ETV
vector 38008  IntersectionExampleScenario.node[520].veinsmobility  acceleration  ETV
vector 38009  IntersectionExampleScenario.node[520].veinsmobility  co2emission  ETV
37855	21816811 10417 193169 202253 1718.75 1797.75 317 0.973 11.648172402475 668.56141364511 2977.7059966307
37854	21827228 10759 193169 202253 1718.75 1797.75 317 -3.8375995159149 2.5 37.662351608276 337.72683773795
37853	21837987 10622 193132 202253 1718.5 1797.75 318 0 15.64999961853 2206.8605577182 29111.15953156
37852	21848609 11773 193095 202253 1718.25 1797.75 319 483.13442993164 785.82187652588 172399.74311066 95288669.466598
37851	21860382 11798 193095 202253 1718.25 1797.75 319 483.14999389648 733.20736694336 162621.81999207 84092431.522964
37890	21872180 9210 195334 202450 1732.75 1800 270 0.973 11.648172402475 629.5155525634 2964.6413955836
37889	21881390 9643 195334 202450 1732.75 1800 270 -3.8778624534607 2.5 37.832105636597 344.11928296885
37888	21891033 9650 195291 202450 1732.5 1800 271 0 15.64999961853 2184.4462747825 28270.400350509
37887	21900683 10047 195247 202450 1732.25 1800 272 486.74865722656 785.82187652588 149689.40016937 84343182.74851
37886	21910730 10049 195247 202450 1732.25 1800 272 237.27716064453 483.14999389648 123185.97027588 56884735.793359
37904	21920779 6138 197941 202450 1752.25 1800 192 0.973 11.90022389248 516.31462340488 2890.1453500027
37903	21926917 5513 197941 202450 1752.25 1800 192 -7.2641291618347 4 40.102949142456 485.2247957554
37902	21932430 5792 197914 202450 1752 1800 193 0 16 1456.3794611692 20061.895376921
37901	21938222 7177 197889 202450 1751.75 1800 194 423.37063598633 486.85000610352 93821.139801025 45396371.246497
37900	21945399 7171 197889 202450 1751.75 1800 194 483.14999389648 785.82187652588 109028.508461 63089256.944637
37918	21952570 5501 198251 202450 1755.25 1800 180 0.973 12.099024792222 360.93958617332 1677.060172518
37917	21958071 5326 198251 202450 1755.25 1800 180 -7.2479605674744 2.5 -22.60000038147 343.57401028316
37916	21963397 5340 198225 202450 1755 1800 181 0 16.27499961853 1146.8655434847 16517.437427312
37915	21968737 6708 198198 202450 1754.75 1800 182 184.17810058594 471.60000610352 73238.130126953 31179661.118448
37914	21975445 6733 198198 202450 1754.75 1800 182 486.85000610352 486.85000610352 88606.70111084 43138172.976625
37925	21982178 5728 198663 202450 1759.5 1800 163 0.973 11.00486315618 511.32636446581 2838.7222909461
37924	21987906 5600 198663 202450 1759.5 1800 163 -3.9705009460449 2.5 34.267293930054 330.44044311528
37923	21993506 5781 198638 202450 1759.25 1800 164 5.6500000953674 14.75 2037.495973587 26221.459724013
37922	21999287 6089 198613 202450 1759 1800 165 483.14999389648 785.82187652588 95124.165786743 56593964.009466
37921	22005376 6102 198613 202450 1759 1800 165 483.14999389648 690.82008361816 85947.931259155 45397249.708416
37932	22011478 4747 198925 202450 1762.25 1800 152 0.96333723109819 12.099024792222 332.79351013212 1636.5638695528
37931	22016225 4586 198925 202450 1762.25 1800 152 -6.7176465988159 2.5 -22.60000038147 319.06445157456
37930	22020811 4720 198900 202450 1762 1800 153 0 16.27499961853 1147.6357698441 16460.077923743
37929	22025531 5697 198875 202450 1761.75 1800 154 483.14999389648 483.14999389648 74405.099060059 35948823.156735
37928	22031228 5667 198875 202450 1761.75 1800 154 184.17810058594 471.60000610352 60032.918060303 24949907.81188
37939	22036895 4539 199506 202450 1768.5 1800 127 0.973 11.648172402475 439.96585135074 2574.1397148796
37938	22041434 4464 199506 202450 1768.5 1800 127 -3.3941230773926 2.5 39.872129440308 238.81360137562
37937	22045898 4462 199483 202450 1768.25 1800 128 5.6500000953674 15.912252426147 1770.0108175278 25430.992052249
37936	22050360 4763 199460 202450 1768 1800 129 483.14999389648 785.82187652588 76261.727058411 46575713.043797
37935	22055123 4769 199460 202450 1768 1800 129 483.14999389648 623.47105407715 65026.686798096 32971155.764774
37946	22059892 4177 199706 202450 1770.75 1800 118 0.97223939240464 11.648172402475 399.24422364032 2429.1030210007
37945	22064069 3973 199706 202450 1770.75 1800 118 -3.2211990356445 2.5 38.69012260437 223.48792941784
37944	22068042 4118 199681 202450 1770.5 1800 119 5.6500000953674 15.64999961853 1613.9039821625 22729.907774725
37943	22072160 4429 199658 202450 1770.25 1800 120 483.12225341797 802.70781707764 73558.563186646 46586599.046971
37942	22076589 4438 199658 202450 1770.25 1800 120 483.14999389648 567.87841796875 59037.329040527 29093814.736167
37953	22081027 3956 199731 202450 1771 1800 117 0.973 11.648172402475 363.11808842217 2043.2870384847
37952	22084983 4110 199731 202450 1771 1800 117 -2.129093170166 2.5000019073486 26.39999961853 248.6541784144
37951	22089093 4201 199706 202450 1770.75 1800 118 4.5176520347595 15.64999961853 1306.3891048431 16049.923883892
37950	22093294 4402 199681 202450 1770.5 1800 119 460.63638305664 486.85000610352 57776.697509766 28054161.499199
37949	22097696 4379 199681 202450 1770.5 1800 119 482.95837402344 785.82187652588 72589.04271698 45449563.268052
37960	22102075 3679 199993 202450 1773.75 1800 106 0.973 11.648172402475 342.26120066984 1827.0732837417
37959	22105754 3664 199993 202450 1773.75 1800 106 -4.5 2.5 13.39999961853 310.90376074593
37958	22109418 3844 199968 202450 1773.5 1800 107 4.4088163375854 16.656410217285 1266.2338366508 16825.777770227
37957	22113262 3996 199943 202450 1773.25 1800 108 482.69430541992 486.85000610352 52569.558410645 25588532.968668
37956	22117258 3990 199943 202450 1773.25 1800 108 487.06433105469 800.04531860352 68090.115333557 43997552.630124
37967	22121248 2796 200602 202450 1780.25 1800 80 0.973 12.099024792222 263.4150440111 1570.2561779931
37966	22124044 2832 200602 202450 1780.25 1800 80 -3.3179149627686 2.5 3.1936988830566 220.39937734161
37965	22126876 2979 200577 202450 1780 1800 81 5.6500000953674 16.27499961853 1127.3632082939 16401.950321885
37964	22129855 3017 200552 202450 1779.75 1800 82 505.91784667969 785.82187652588 53451.835090637 35491430.351268
37963	22132872 3033 200552 202450 1779.75 1800 82 483.14999389648 483.14999389648 39618.299499512 19141581.161378
37974	22135905 2461 200826 202450 1782.75 1800 70 0.973 11.200708441096 220.85393981136 1240.4410012491
37973	22138366 2550 200826 202450 1782.75 1800 70 -2.1178741455078 2.5 15.362520217896 133.46096613353
37972	22140916 2610 200803 202450 1782.5 1800 71 5.6500000953674 15.02499961853 935.26629257202 12731.985865477
37971	22143526 2664 200780 202450 1782.25 1800 72 483.14999389648 483.14999389648 34786.799560547 16807241.995356
37970	22146190 2640 200780 202450 1782.25 1800 72 184.17810058594 414.92797851562 21140.841369629 6590364.1569444
37981	22148830 2404 200919 202450 1783.75 1800 66 0.973 11.200708441096 226.2427328389 1267.8570855178
37980	22151234 2294 200919 202450 1783.75 1800 66 -0.67911148071289 2.5 35.486211776733 94.584393865578
37979	22153528 2466 200896 202450 1783.5 1800 67 5.6500000953674 15.02499961853 926.66479492188 13206.108427604
37978	22155994 2507 200872 202450 1783.25 1800 68 568.64129638672 795.46562957764 47034.057319641 32869235.484195
37977	22158501 2516 200872 202450 1783.25 1800 68 483.14999389648 483.14999389648 32854.199584961 15873506.328948
37988	22161017 2050 201129 202450 1786 1800 57 0.973 10.455401760039 205.54631463959 1130.7686575463
37987	22163067 2117 201129 202450 1786 1800 57 -2.2032337188721 2.5 30.436834335327 101.30936228514
37986	22165184 2139 201105 202450 1785.75 1800 58 5.6500000953674 15.179699897766 732.02264261246 9869.0181325796
37985	22167323 2182 201080 202450 1785.5 1800 59 483.14999389648 483.14999389648 28505.849639893 13772601.079528
37984	22169505 2172 201080 202450 1785.5 1800 59 172.9296875 351.58184814453 14714.564819336 3856669.3037711
37995	22171677 1961 201202 202450 1786.75 1800 54 0.973 11.200708441096 202.5094024284 1220.8974356473
37994	22173638 1803 201202 202450 1786.75 1800 54 -4.5 2.5 24.059644699097 154.50627504979
37993	22175441 2020 201177 202450 1786.5 1800 55 5.6500000953674 15.039911270142 739.03108119965 10309.778910754
37992	22177461 2072 201152 202450 1786.25 1800 56 483.14999389648 483.14999389648 27056.399658203 13072299.329722
37991	22179533 2056 201152 202450 1786.25 1800 56 199.35546875 380.17944335938 15763.164978027 4619798.3739442
38002	22181589 918 201908 202450 1794 1800 25 1.6778656626784 11.200708441096 142.22442453903 1091.8537746113
38001	22182507 785 201908 202450 1794 1800 25 -0.12916564941406 2.5 37.01243019104 93.788003921032
38000	22183292 951 201883 202450 1793.75 1800 26 5.6500000953674 15.02499961853 314.72400951385 4072.4090167201
37999	22184243 996 201858 202450 1793.5 1800 27 712.10871887207 785.82187652588 20400.33441925 15428550.072975
37998	22185239 998 201858 202450 1793.5 1800 27 483.14999389648 483.14999389648 13045.049835205 6302715.7482587
38009	22186237 403 202230 202450 1797.5 1800 11 5.2162187258585 9.442030466751 80.452460202964 608.047069496
38008	22186640 286 202230 202450 1797.5 1800 11 2.4999980926514 2.5 27.499998092651 68.74999046326
38007	22186926 439 202207 202450 1797.25 1800 12 5.6500000953674 12.52499961853 109.04999732971 1046.8511919308
38006	22187365 467 202184 202450 1797 1800 13 184.17810058594 207.45001220703 2516.7592773438 487981.01338524
38005	22187832 479 202184 202450 1797 1800 13 486.85000610352 486.85000610352 6329.0500793457 3081298.0697589
34361	22188311 638 0 202449 0 1800 31 0 30 559 11045
34362	22188949 652 0 202449 0 1800 31 0 220 3165 462121
