file 19758321 1591488867                                        
version 2
run nodebug-20-20200606-20:10:47-18208
attr configname nodebug
attr datetime 20200606-20:10:47
attr experiment nodebug
attr inifile omnetpp.ini
attr iterationvars ""
attr iterationvars2 $repetition=20
attr measurement ""
attr network "\"org.car2x.veins.modules.application.ExtTraCIScenarioManagerLaunchd.IntersectionExampleScenario\""
attr processid 18208
attr repetition 20
attr replication #20
attr resultdir results
attr runnumber 20
attr seedset 20
param **.coreDebug false
param **.debug false
param *.**.nic.mac1609_4.bitrate 18Mbps
param *.**.nic.mac1609_4.txPower 20mW
param *.**.nic.mac1609_4.useServiceChannel false
param *.**.nic.phy80211p.analogueModels "xmldoc(\"config.xml\")"
param *.**.nic.phy80211p.decider "xmldoc(\"config.xml\")"
param *.**.nic.phy80211p.sensitivity -89dBm
param *.**.nic.phy80211p.thermalNoise -110dBm
param *.**.nic.phy80211p.usePropagationDelay true
param *.**.nic.phy80211p.useThermalNoise true
param *.annotations.draw false
param *.connectionManager.alpha 2.0
param *.connectionManager.carrierFrequency "5.890e9 Hz"
param *.connectionManager.pMax 20mW
param *.connectionManager.sat -89dBm
param *.connectionManager.sendDirect true
param *.manager.autoShutdown true
param *.manager.host "\"localhost\""
param *.manager.launchConfig "xmldoc(\"paramics.launchd.xml\")"
param *.manager.margin 25
param *.manager.moduleDisplayString "\"\""
param *.manager.moduleName "\"node\""
param *.manager.moduleType "\"org.car2x.veins.nodes.Car\""
param *.manager.port 9999
param *.manager.updateInterval 250ms
param *.node[*0].veinsmobility.accidentCount 0
param *.node[*0].veinsmobility.accidentDuration 30s
param *.node[*0].veinsmobility.accidentStart 75s
param *.node[*].appl.LiderSelectZoneRadio 55.0
param *.node[*].appl.ShareDataZoneRadio 110.0
param *.node[*].appl.TiempoSemaforo 30.0
param *.node[*].appl.beaconInterval 1s
param *.node[*].appl.beaconPriority 3
param *.node[*].appl.dataOnSch false
param *.node[*].appl.dataPriority 2
param *.node[*].appl.debug false
param *.node[*].appl.headerLength "256 bit"
param *.node[*].appl.maxOffset 0.005s
param *.node[*].appl.sendBeacons false
param *.node[*].appl.sendData true
param *.node[*].applType "\"Dummy\""
param *.node[*].mobilityType "\"TraCIMobility\""
param *.node[*].mobilityType.debug true
param *.node[*].veinsmobility.x 0
param *.node[*].veinsmobility.y 0
param *.node[*].veinsmobility.z 1.895
param *.node[*].veinsmobilityType "\"org.car2x.veins.modules.mobility.traci.TraCIMobility\""
param *.node[*].veinsmobilityType.debug true
param *.playgroundSizeX 8500m
param *.playgroundSizeY 8500m
param *.playgroundSizeZ 50m
param *.world.use2D false
param *.world.useTorus false

vector 16973  IntersectionExampleScenario.manager  vehiclesinsim  ETV
attr type  int
vector 16974  IntersectionExampleScenario.manager  realtime  ETV
attr type  int
attr unit  s
vector 16977  IntersectionExampleScenario.node[0].veinsmobility  posx  ETV
vector 16978  IntersectionExampleScenario.node[0].veinsmobility  posy  ETV
vector 16979  IntersectionExampleScenario.node[0].veinsmobility  speed  ETV
vector 16980  IntersectionExampleScenario.node[0].veinsmobility  acceleration  ETV
vector 16981  IntersectionExampleScenario.node[0].veinsmobility  co2emission  ETV
vector 16984  IntersectionExampleScenario.node[1].veinsmobility  posx  ETV
vector 16985  IntersectionExampleScenario.node[1].veinsmobility  posy  ETV
vector 16986  IntersectionExampleScenario.node[1].veinsmobility  speed  ETV
vector 16987  IntersectionExampleScenario.node[1].veinsmobility  acceleration  ETV
vector 16988  IntersectionExampleScenario.node[1].veinsmobility  co2emission  ETV
vector 16991  IntersectionExampleScenario.node[2].veinsmobility  posx  ETV
vector 16992  IntersectionExampleScenario.node[2].veinsmobility  posy  ETV
vector 16993  IntersectionExampleScenario.node[2].veinsmobility  speed  ETV
vector 16994  IntersectionExampleScenario.node[2].veinsmobility  acceleration  ETV
vector 16995  IntersectionExampleScenario.node[2].veinsmobility  co2emission  ETV
vector 16998  IntersectionExampleScenario.node[3].veinsmobility  posx  ETV
vector 16999  IntersectionExampleScenario.node[3].veinsmobility  posy  ETV
vector 17000  IntersectionExampleScenario.node[3].veinsmobility  speed  ETV
vector 17001  IntersectionExampleScenario.node[3].veinsmobility  acceleration  ETV
vector 17002  IntersectionExampleScenario.node[3].veinsmobility  co2emission  ETV
vector 17005  IntersectionExampleScenario.node[4].veinsmobility  posx  ETV
vector 17006  IntersectionExampleScenario.node[4].veinsmobility  posy  ETV
vector 17007  IntersectionExampleScenario.node[4].veinsmobility  speed  ETV
vector 17008  IntersectionExampleScenario.node[4].veinsmobility  acceleration  ETV
vector 17009  IntersectionExampleScenario.node[4].veinsmobility  co2emission  ETV
vector 17012  IntersectionExampleScenario.node[5].veinsmobility  posx  ETV
vector 17013  IntersectionExampleScenario.node[5].veinsmobility  posy  ETV
vector 17014  IntersectionExampleScenario.node[5].veinsmobility  speed  ETV
vector 17015  IntersectionExampleScenario.node[5].veinsmobility  acceleration  ETV
vector 17016  IntersectionExampleScenario.node[5].veinsmobility  co2emission  ETV
vector 17019  IntersectionExampleScenario.node[6].veinsmobility  posx  ETV
vector 17020  IntersectionExampleScenario.node[6].veinsmobility  posy  ETV
vector 17021  IntersectionExampleScenario.node[6].veinsmobility  speed  ETV
vector 17022  IntersectionExampleScenario.node[6].veinsmobility  acceleration  ETV
vector 17023  IntersectionExampleScenario.node[6].veinsmobility  co2emission  ETV
vector 17026  IntersectionExampleScenario.node[7].veinsmobility  posx  ETV
vector 17027  IntersectionExampleScenario.node[7].veinsmobility  posy  ETV
vector 17028  IntersectionExampleScenario.node[7].veinsmobility  speed  ETV
vector 17029  IntersectionExampleScenario.node[7].veinsmobility  acceleration  ETV
vector 17030  IntersectionExampleScenario.node[7].veinsmobility  co2emission  ETV
vector 17033  IntersectionExampleScenario.node[8].veinsmobility  posx  ETV
vector 17034  IntersectionExampleScenario.node[8].veinsmobility  posy  ETV
vector 17035  IntersectionExampleScenario.node[8].veinsmobility  speed  ETV
vector 17036  IntersectionExampleScenario.node[8].veinsmobility  acceleration  ETV
vector 17037  IntersectionExampleScenario.node[8].veinsmobility  co2emission  ETV
vector 17040  IntersectionExampleScenario.node[9].veinsmobility  posx  ETV
vector 17041  IntersectionExampleScenario.node[9].veinsmobility  posy  ETV
vector 17042  IntersectionExampleScenario.node[9].veinsmobility  speed  ETV
vector 17043  IntersectionExampleScenario.node[9].veinsmobility  acceleration  ETV
vector 17044  IntersectionExampleScenario.node[9].veinsmobility  co2emission  ETV
vector 17047  IntersectionExampleScenario.node[10].veinsmobility  posx  ETV
vector 17048  IntersectionExampleScenario.node[10].veinsmobility  posy  ETV
vector 17049  IntersectionExampleScenario.node[10].veinsmobility  speed  ETV
vector 17054  IntersectionExampleScenario.node[11].veinsmobility  posx  ETV
vector 17055  IntersectionExampleScenario.node[11].veinsmobility  posy  ETV
vector 17050  IntersectionExampleScenario.node[10].veinsmobility  acceleration  ETV
vector 17051  IntersectionExampleScenario.node[10].veinsmobility  co2emission  ETV
vector 17056  IntersectionExampleScenario.node[11].veinsmobility  speed  ETV
vector 17057  IntersectionExampleScenario.node[11].veinsmobility  acceleration  ETV
vector 17058  IntersectionExampleScenario.node[11].veinsmobility  co2emission  ETV
vector 17061  IntersectionExampleScenario.node[12].veinsmobility  posx  ETV
vector 17062  IntersectionExampleScenario.node[12].veinsmobility  posy  ETV
vector 17063  IntersectionExampleScenario.node[12].veinsmobility  speed  ETV
vector 17064  IntersectionExampleScenario.node[12].veinsmobility  acceleration  ETV
vector 17065  IntersectionExampleScenario.node[12].veinsmobility  co2emission  ETV
vector 17068  IntersectionExampleScenario.node[13].veinsmobility  posx  ETV
vector 17069  IntersectionExampleScenario.node[13].veinsmobility  posy  ETV
vector 17070  IntersectionExampleScenario.node[13].veinsmobility  speed  ETV
vector 17071  IntersectionExampleScenario.node[13].veinsmobility  acceleration  ETV
vector 17072  IntersectionExampleScenario.node[13].veinsmobility  co2emission  ETV
16988	8500 5600 68 2657 5.75 52 186 0.973 11.648172402475 553.37689572056 2906.9266440574
16987	14100 5299 68 2657 5.75 52 186 -8.4909067153931 4 38.001859664917 490.00336635314
16986	19399 5478 63 2657 5.5 52 187 0 15.64999961853 2179.8509018421 30655.562777253
16985	24877 6073 58 2657 5.25 52 188 483.14999389648 732.64976501465 99243.329711914 53412734.882923
16984	30950 6057 58 2657 5.25 52 188 184.17810058594 486.85000610352 76867.159667969 33329260.49094
17002	37007 5198 272 2951 13.25 55.5 170 0.973 11.450879080643 517.72413990851 2820.3416123177
17001	42205 5122 272 2951 13.25 55.5 170 -3.0401077270508 2.5 36.98334312439 271.34520782964
17000	47327 5284 263 2951 13 55.5 171 5.6500000953674 15.375 2203.4375238419 29687.977692207
16999	52611 5600 254 2951 12.75 55.5 172 483.14999389648 731.88316345215 91602.00050354 49773950.704836
16998	58211 5573 254 2951 12.75 55.5 172 184.17810058594 486.85000610352 68791.916595459 29320449.967716
vector 17075  IntersectionExampleScenario.node[14].veinsmobility  posx  ETV
vector 17076  IntersectionExampleScenario.node[14].veinsmobility  posy  ETV
vector 17077  IntersectionExampleScenario.node[14].veinsmobility  speed  ETV
17009	64016 5111 447 3226 18 58.75 164 0.973 11.36141391502 511.60772987664 2819.2941103398
17008	69127 5001 447 3226 18 58.75 164 -3.7051391601562 2.5 36.98334312439 295.5357673101
17007	74128 5077 436 3226 17.75 58.75 165 5.6500000953674 15.25 2183.3557271957 30075.95333593
17006	79205 5425 425 3226 17.5 58.75 166 236.79455566406 483.14999389648 71837.347747803 32036755.553916
17005	84630 5404 425 3226 17.5 58.75 166 184.17810058594 483.20114135742 66034.308624268 28032638.997122
vector 17078  IntersectionExampleScenario.node[14].veinsmobility  acceleration  ETV
vector 17079  IntersectionExampleScenario.node[14].veinsmobility  co2emission  ETV
16981	90203 7337 10 4023 1.25 67.5 266 0.973 12.26218747632 666.78031326553 3425.1036035635
16980	97540 6508 10 4023 1.25 67.5 266 -7.0093650817871 4 42.415441513062 500.8220278914
16979	104048 6817 7 4023 1 67.5 267 0 16.5 2183.4749882221 32334.051822106
16978	110865 8650 4 4023 0.75 67.5 268 486.63604736328 785.82187652588 145140.10124969 80657011.116957
16977	119515 8593 4 4023 0.75 67.5 268 235.73986816406 483.14999389648 121710.8336792 56324294.458706
vector 17082  IntersectionExampleScenario.node[15].veinsmobility  posx  ETV
vector 17083  IntersectionExampleScenario.node[15].veinsmobility  posy  ETV
vector 17084  IntersectionExampleScenario.node[15].veinsmobility  speed  ETV
vector 17085  IntersectionExampleScenario.node[15].veinsmobility  acceleration  ETV
vector 17086  IntersectionExampleScenario.node[15].veinsmobility  co2emission  ETV
vector 17089  IntersectionExampleScenario.node[16].veinsmobility  posx  ETV
vector 17090  IntersectionExampleScenario.node[16].veinsmobility  posy  ETV
vector 17091  IntersectionExampleScenario.node[16].veinsmobility  speed  ETV
vector 17092  IntersectionExampleScenario.node[16].veinsmobility  acceleration  ETV
vector 17093  IntersectionExampleScenario.node[16].veinsmobility  co2emission  ETV
vector 17096  IntersectionExampleScenario.node[17].veinsmobility  posx  ETV
vector 17097  IntersectionExampleScenario.node[17].veinsmobility  posy  ETV
vector 17098  IntersectionExampleScenario.node[17].veinsmobility  speed  ETV
vector 17099  IntersectionExampleScenario.node[17].veinsmobility  acceleration  ETV
vector 17100  IntersectionExampleScenario.node[17].veinsmobility  co2emission  ETV
vector 17103  IntersectionExampleScenario.node[18].veinsmobility  posx  ETV
vector 17104  IntersectionExampleScenario.node[18].veinsmobility  posy  ETV
vector 17105  IntersectionExampleScenario.node[18].veinsmobility  speed  ETV
vector 17106  IntersectionExampleScenario.node[18].veinsmobility  acceleration  ETV
vector 17107  IntersectionExampleScenario.node[18].veinsmobility  co2emission  ETV
vector 17110  IntersectionExampleScenario.node[19].veinsmobility  posx  ETV
vector 17111  IntersectionExampleScenario.node[19].veinsmobility  posy  ETV
vector 17112  IntersectionExampleScenario.node[19].veinsmobility  speed  ETV
vector 17113  IntersectionExampleScenario.node[19].veinsmobility  acceleration  ETV
vector 17114  IntersectionExampleScenario.node[19].veinsmobility  co2emission  ETV
vector 17117  IntersectionExampleScenario.node[20].veinsmobility  posx  ETV
vector 17118  IntersectionExampleScenario.node[20].veinsmobility  posy  ETV
vector 17119  IntersectionExampleScenario.node[20].veinsmobility  speed  ETV
vector 17120  IntersectionExampleScenario.node[20].veinsmobility  acceleration  ETV
vector 17121  IntersectionExampleScenario.node[20].veinsmobility  co2emission  ETV
vector 17124  IntersectionExampleScenario.node[21].veinsmobility  posx  ETV
vector 17125  IntersectionExampleScenario.node[21].veinsmobility  posy  ETV
vector 17126  IntersectionExampleScenario.node[21].veinsmobility  speed  ETV
vector 17127  IntersectionExampleScenario.node[21].veinsmobility  acceleration  ETV
vector 17128  IntersectionExampleScenario.node[21].veinsmobility  co2emission  ETV
vector 17131  IntersectionExampleScenario.node[22].veinsmobility  posx  ETV
vector 17132  IntersectionExampleScenario.node[22].veinsmobility  posy  ETV
vector 17138  IntersectionExampleScenario.node[23].veinsmobility  posx  ETV
vector 17139  IntersectionExampleScenario.node[23].veinsmobility  posy  ETV
vector 17133  IntersectionExampleScenario.node[22].veinsmobility  speed  ETV
vector 17134  IntersectionExampleScenario.node[22].veinsmobility  acceleration  ETV
vector 17135  IntersectionExampleScenario.node[22].veinsmobility  co2emission  ETV
vector 17140  IntersectionExampleScenario.node[23].veinsmobility  speed  ETV
vector 17141  IntersectionExampleScenario.node[23].veinsmobility  acceleration  ETV
vector 17142  IntersectionExampleScenario.node[23].veinsmobility  co2emission  ETV
17051	131717 5049 1902 5590 43.5 83 159 0.973 11.810082123732 508.49538687659 2854.0891032743
17050	136766 4760 1902 5590 43.5 83 159 -3.5987949371338 2.5 38.511121749878 289.97426918725
17049	141526 4951 1885 5590 43.25 83 160 5.6500000953674 15.875 2187.4260525703 31251.806350984
17048	146477 5300 1868 5590 43 83 161 486.6611328125 785.82187652588 92175.98639679 54512584.595682
17047	151777 5308 1868 5590 43 83 161 236.08911132812 483.14999389648 69584.890655518 31005018.71986
16995	157085 8630 107 5880 7.5 85.25 312 0.973 10.916047529558 649.44869498962 2628.4408371743
16994	165715 7541 107 5880 7.5 85.25 312 -9.2687568664551 4 34.606801986694 476.05791541435
16993	173256 7988 100 5880 7.25 85.25 313 0 14.625 2183.7566738129 29158.564798194
16992	181244 10196 93 5880 7 85.25 314 486.85000610352 735.21826171875 161702.59382629 84485186.610067
16991	191440 10252 93 5880 7 85.25 314 486.63604736328 785.82187652588 168972.67503357 93153714.464023
17058	201692 5171 1940 5911 44 85.5 167 0.973 12.099024792222 549.28858192773 3247.7750646825
17057	206863 5080 1940 5911 44 85.5 167 -4.4370346069336 2.5 40.887662887573 315.01084848598
17056	211943 5306 1921 5911 43.75 85.5 168 5.0329027175903 16.27499961853 2222.3616657257 31419.317857128
17055	217249 5577 1902 5911 43.5 85.5 169 486.85000610352 486.85000610352 82277.651031494 40056874.906866
17054	222826 5556 1902 5911 43.5 85.5 169 236.13702392578 785.82187652588 88498.223335266 50386776.555886
vector 17145  IntersectionExampleScenario.node[24].veinsmobility  posx  ETV
vector 17146  IntersectionExampleScenario.node[24].veinsmobility  posy  ETV
vector 17152  IntersectionExampleScenario.node[25].veinsmobility  posx  ETV
vector 17153  IntersectionExampleScenario.node[25].veinsmobility  posy  ETV
vector 17147  IntersectionExampleScenario.node[24].veinsmobility  speed  ETV
vector 17148  IntersectionExampleScenario.node[24].veinsmobility  acceleration  ETV
vector 17149  IntersectionExampleScenario.node[24].veinsmobility  co2emission  ETV
vector 17154  IntersectionExampleScenario.node[25].veinsmobility  speed  ETV
vector 17155  IntersectionExampleScenario.node[25].veinsmobility  acceleration  ETV
vector 17156  IntersectionExampleScenario.node[25].veinsmobility  co2emission  ETV
vector 17159  IntersectionExampleScenario.node[26].veinsmobility  posx  ETV
vector 17160  IntersectionExampleScenario.node[26].veinsmobility  posy  ETV
vector 17161  IntersectionExampleScenario.node[26].veinsmobility  speed  ETV
vector 17162  IntersectionExampleScenario.node[26].veinsmobility  acceleration  ETV
vector 17163  IntersectionExampleScenario.node[26].veinsmobility  co2emission  ETV
17079	229585 4897 3249 7242 59 97 153 0.973 12.099024792222 505.68717985179 2913.3578093168
17078	234482 4622 3249 7242 59 97 153 -3.3111114501953 2.5 40.717908859253 251.56310905633
17077	239104 4782 3226 7242 58.75 97 154 5.6500000953674 16.27499961853 2206.4048547745 32716.687507305
17076	243886 5110 3203 7242 58.5 97 155 237.37866210938 486.85000610352 67382.723083496 30212905.07303
17075	248996 5102 3203 7242 58.5 97 155 483.14999389648 785.82187652588 88679.159446716 52477532.785286
17016	254098 8642 693 7663 23.5 101 311 0.973 11.200708441096 659.45646731357 2771.3256690642
17015	262740 7657 693 7663 23.5 101 311 -8.6544380187988 4 35.795072555542 474.85016826786
17014	270397 8049 680 7663 23.25 101 312 0 15.02499961853 2207.0238060951 30119.554519985
17013	278446 10286 667 7663 23 101 313 184.17810058594 486.85000610352 135576.52435303 60955250.381568
17012	288732 10297 667 7663 23 101 313 235.04376220703 486.85000610352 143506.60195923 67035152.309919
vector 17166  IntersectionExampleScenario.node[27].veinsmobility  posx  ETV
vector 17167  IntersectionExampleScenario.node[27].veinsmobility  posy  ETV
vector 17168  IntersectionExampleScenario.node[27].veinsmobility  speed  ETV
vector 17169  IntersectionExampleScenario.node[27].veinsmobility  acceleration  ETV
vector 17170  IntersectionExampleScenario.node[27].veinsmobility  co2emission  ETV
17023	299430 8542 1113 7831 31.5 102.75 286 0.973 11.648172402475 643.48350644528 2867.7224778426
17022	307972 9162 1113 7831 31.5 102.75 286 -3.9807918071747 2.5 38.341367721558 325.38712584568
17021	317134 8994 1098 7831 31.25 102.75 287 0 15.64999961853 2199.9483522074 29197.254146216
17020	326128 9455 1083 7831 31 102.75 288 184.17810058594 487.04110717773 122663.81564331 54311092.502542
17019	335583 9510 1083 7831 31 102.75 288 238.25988769531 486.85000610352 131889.45550537 61535408.768094
vector 17173  IntersectionExampleScenario.node[28].veinsmobility  posx  ETV
vector 17174  IntersectionExampleScenario.node[28].veinsmobility  posy  ETV
vector 17180  IntersectionExampleScenario.node[29].veinsmobility  posx  ETV
vector 17181  IntersectionExampleScenario.node[29].veinsmobility  posy  ETV
vector 17175  IntersectionExampleScenario.node[28].veinsmobility  speed  ETV
vector 17176  IntersectionExampleScenario.node[28].veinsmobility  acceleration  ETV
vector 17177  IntersectionExampleScenario.node[28].veinsmobility  co2emission  ETV
vector 17182  IntersectionExampleScenario.node[29].veinsmobility  speed  ETV
vector 17183  IntersectionExampleScenario.node[29].veinsmobility  acceleration  ETV
vector 17184  IntersectionExampleScenario.node[29].veinsmobility  co2emission  ETV
17030	345895 9011 1177 8183 32.5 106 295 0.973 10.989787542608 652.50962885805 2712.0742514556
17029	354906 9240 1177 8183 32.5 106 295 -4.5 2.5000009536743 35.795072555542 391.40458797688
17028	364146 9445 1160 8183 32.25 106 296 0 14.728795051575 2271.6688587815 28337.127975015
17027	373591 9773 1143 8183 32 106 297 162.00311279297 483.15225219727 123018.824646 53390701.115897
17026	383364 9807 1143 8183 32 106 297 486.85000610352 733.01753234863 153116.003479 80087931.906936
17044	393171 8101 1724 8309 40.75 107.25 267 0.973 11.450879080643 628.2642225374 2913.2035833159
17043	401272 8410 1724 8309 40.75 107.25 267 -4.5 2.5 39.529638290405 399.25481482637
17042	409682 8524 1707 8309 40.5 107.25 268 0 15.601371765137 2203.0215320252 29013.205586058
17041	418206 8858 1690 8309 40.25 107.25 269 184.17810058594 486.88027954102 112239.78378296 48770032.640271
17040	427064 8898 1690 8309 40.25 107.25 269 238.31207275391 486.85000610352 122800.30648804 57162080.692825
vector 17187  IntersectionExampleScenario.node[30].veinsmobility  posx  ETV
vector 17188  IntersectionExampleScenario.node[30].veinsmobility  posy  ETV
vector 17189  IntersectionExampleScenario.node[30].veinsmobility  speed  ETV
17086	436194 5210 4199 8659 69.75 111 166 0.973 11.648172402475 561.54734545612 3321.2208949118
17085	441404 5033 4199 8659 69.75 111 166 -3.6469764709473 2.5 37.662351608276 361.78141912763
17084	446437 5241 4178 8659 69.5 111 167 5.6500000953674 15.64999961853 2193.2746629715 30066.565343349
17083	451678 5562 4157 8659 69.25 111 168 184.17810058594 483.14999389648 66887.852996826 28389585.208812
17082	457240 5583 4157 8659 69.25 111 168 486.85000610352 735.17124938965 90207.903137207 49403884.653426
vector 17190  IntersectionExampleScenario.node[30].veinsmobility  acceleration  ETV
vector 17191  IntersectionExampleScenario.node[30].veinsmobility  co2emission  ETV
17093	462992 5452 4339 8934 71.5 113.75 170 0.973 11.36141391502 512.35852954634 2654.7101658746
17092	468444 5291 4339 8934 71.5 113.75 170 -4.5 2.5 36.813589096069 286.16018630372
17091	473735 5385 4318 8934 71.25 113.75 171 5.6500000953674 15.25 2258.5710835457 31054.810600798
17090	479120 5718 4297 8934 71 113.75 172 164.94219970703 483.16244506836 67176.632537842 28309318.521082
17089	484838 5710 4297 8934 71 113.75 172 486.85000610352 732.58647155762 92083.54524231 50257657.742501
17037	490548 8826 1478 9184 37 116.25 318 0.973 11.648172402475 681.12455260614 3015.2802618475
17036	499374 7968 1478 9184 37 116.25 318 -8.4909067153931 4 38.001859664917 488.16077446915
17035	507342 8158 1461 9184 36.75 116.25 319 0 15.64999961853 2172.5754625797 30408.737036323
17034	515500 10561 1444 9184 36.5 116.25 320 237.98760986328 483.14999389648 146452.16885376 68146700.425366
17033	526061 10604 1444 9184 36.5 116.25 320 184.17810058594 483.36395263672 138884.48864746 62459902.47695
17065	536665 8574 2020 9277 45 117.25 290 0.973 11.90022389248 659.00781610346 3119.2905415303
17064	545239 8994 2020 9277 45 117.25 290 -3.7232689857483 2.5 39.869146347046 348.26100478556
17063	554233 8854 1999 9277 44.75 117.25 291 0 16 2206.5483680358 29847.90510645
17062	563087 9704 1978 9277 44.5 117.25 292 483.14999389648 732.91915893555 149273.77812195 77443583.813202
17061	572791 9669 1978 9277 44.5 117.25 292 184.17810058594 486.86566162109 124619.38046265 55242852.885754
17100	582460 5904 4406 9520 72.25 120 192 0.973 11.648172402475 562.80231247508 2955.8535327208
17099	588364 5886 4406 9520 72.25 120 192 -4.5 2.5 39.359884262085 350.19079213337
17098	594250 6114 4383 9520 72 120 193 2.2969164848328 15.64999961853 2185.1234791279 28975.242425665
17097	600364 6461 4360 9520 71.75 120 194 236.96820068359 483.14999389648 85672.036773682 38815666.281469
17096	606825 6443 4360 9520 71.75 120 194 184.17810058594 483.18118286133 78562.04119873 33608962.052384
vector 17194  IntersectionExampleScenario.node[31].veinsmobility  posx  ETV
vector 17195  IntersectionExampleScenario.node[31].veinsmobility  posy  ETV
vector 17196  IntersectionExampleScenario.node[31].veinsmobility  speed  ETV
17135	613500 5005 5458 9691 82 122.25 162 0.973 12.44402232946 534.39946179156 3140.1973928442
17134	618505 4901 5458 9691 82 122.25 162 -2.9680786132812 2.5 44.112981796265 249.4427924412
17133	623406 5219 5425 9691 81.75 122.25 163 5.6500000953674 16.75 2218.6440582275 31631.199669906
17132	628625 5502 5394 9691 81.5 122.25 164 483.14999389648 483.14999389648 79236.598999023 38283162.322756
17131	634127 5469 5394 9691 81.5 122.25 164 184.17810058594 732.94912719727 72331.486572266 35871099.805646
vector 17197  IntersectionExampleScenario.node[31].veinsmobility  acceleration  ETV
vector 17198  IntersectionExampleScenario.node[31].veinsmobility  co2emission  ETV
vector 17201  IntersectionExampleScenario.node[32].veinsmobility  posx  ETV
vector 17202  IntersectionExampleScenario.node[32].veinsmobility  posy  ETV
17107	639919 6171 4571 9748 74 123 197 0.973 11.200708441096 555.15219083374 2769.6972144775
17106	646090 6116 4571 9748 74 123 197 -4.5 2.5 35.455564498901 357.81783550294
17105	652206 6346 4546 9748 73.75 123 198 3.5914237499237 15.02499961853 2287.6439256668 29321.779718889
17104	658552 6650 4521 9748 73.5 123 199 483.14999389648 734.16806030273 105022.76930237 56515966.416981
17103	665202 6633 4521 9748 73.5 123 199 164.94219970703 486.85000610352 78852.330047607 33416881.007088
vector 17203  IntersectionExampleScenario.node[32].veinsmobility  speed  ETV
vector 17204  IntersectionExampleScenario.node[32].veinsmobility  acceleration  ETV
vector 17205  IntersectionExampleScenario.node[32].veinsmobility  co2emission  ETV
vector 17208  IntersectionExampleScenario.node[33].veinsmobility  posx  ETV
vector 17209  IntersectionExampleScenario.node[33].veinsmobility  posy  ETV
vector 17210  IntersectionExampleScenario.node[33].veinsmobility  speed  ETV
vector 17211  IntersectionExampleScenario.node[33].veinsmobility  acceleration  ETV
vector 17212  IntersectionExampleScenario.node[33].veinsmobility  co2emission  ETV
vector 17215  IntersectionExampleScenario.node[34].veinsmobility  posx  ETV
vector 17216  IntersectionExampleScenario.node[34].veinsmobility  posy  ETV
vector 17217  IntersectionExampleScenario.node[34].veinsmobility  speed  ETV
vector 17218  IntersectionExampleScenario.node[34].veinsmobility  acceleration  ETV
vector 17219  IntersectionExampleScenario.node[34].veinsmobility  co2emission  ETV
17072	672884 9732 2108 10606 46 133 349 0.973 11.200708441096 701.87589430021 2862.9521582295
17071	682616 8724 2108 10606 46 133 349 -7.15149974823 4 35.625318527222 456.5600572275
17070	691340 9024 2085 10606 45.75 133 350 0 15.02499961853 2267.8592016697 30922.96894886
17069	700364 11732 2062 10606 45.5 133 351 483.14999389648 801.41563415527 188358.35528564 103693155.64046
17068	712096 11741 2062 10606 45.5 133 351 483.14999389648 734.37588500977 178446.87440491 91982828.287495
17156	723837 5547 6524 10774 90.75 135 178 0.90753377507377 12.553400930962 571.77195519157 3464.5615329068
17155	729384 5503 6524 10774 90.75 135 178 -2.1598663330078 2.5 43.094457626343 329.11201045705
17154	734887 5859 6493 10774 90.5 135 179 3.1857228279114 16.89999961853 2219.4718225002 31163.743031291
17153	740746 6097 6462 10774 90.25 135 180 236.50244140625 785.82187652588 94593.158378601 53667022.888709
17152	746843 6118 6462 10774 90.25 135 180 483.14999389648 483.14999389648 86966.998901367 42018104.988391
17121	752961 6970 5124 10795 79.25 135.25 225 0.973 11.200708441096 572.45541643273 2674.6038152411
17120	759931 7299 5124 10795 79.25 135.25 225 -3.8368268013 2.5 36.98334312439 314.72881303265
17119	767230 7433 5095 10795 79 135.25 226 0 15.104276657104 2208.7962109838 28810.516823232
17118	774663 7657 5066 10795 78.75 135.25 227 483.01504516602 785.82187652588 126059.90013885 71968177.269187
17117	782320 7665 5066 10795 78.75 135.25 227 483.14999389648 734.61825561523 118360.2124176 62838406.451031
17163	789985 5278 7127 10963 96 137.25 166 0.973 12.099024792222 525.685965887 3043.8984272034
17162	795263 5285 7127 10963 96 137.25 166 -4.5 2.5 41.057416915894 295.00966267984
17161	800548 5463 7098 10963 95.75 137.25 167 5.6500000953674 16.27499961853 2218.1892280579 31355.617027224
17160	806011 5724 7069 10963 95.5 137.25 168 236.41149902344 785.82187652588 88027.262138367 50157004.102249
17159	811735 5740 7069 10963 95.5 137.25 168 483.14999389648 483.14999389648 81169.198974609 39216897.989165
17184	817475 4986 7940 11383 103.75 142.25 155 0.973 12.099024792222 519.43455094349 3345.6392269299
17183	822461 4898 7940 11383 103.75 142.25 155 -3.2789344787598 2.5 40.038900375366 280.96851539077
17182	827359 5067 7912 11383 103.5 142.25 156 5.6500000953674 16.27499961853 2213.5560264587 32453.666908997
17181	832426 5389 7883 11383 103.25 142.25 157 483.14999389648 785.82187652588 89793.537254333 53109872.079075
17180	837815 5398 7883 11383 103.25 142.25 157 483.14999389648 734.43035888672 84129.002532959 46028925.209343
vector 17222  IntersectionExampleScenario.node[35].veinsmobility  posx  ETV
vector 17223  IntersectionExampleScenario.node[35].veinsmobility  posy  ETV
vector 17224  IntersectionExampleScenario.node[35].veinsmobility  speed  ETV
vector 17225  IntersectionExampleScenario.node[35].veinsmobility  acceleration  ETV
vector 17226  IntersectionExampleScenario.node[35].veinsmobility  co2emission  ETV
vector 17229  IntersectionExampleScenario.node[36].veinsmobility  posx  ETV
vector 17230  IntersectionExampleScenario.node[36].veinsmobility  posy  ETV
vector 17231  IntersectionExampleScenario.node[36].veinsmobility  speed  ETV
vector 17232  IntersectionExampleScenario.node[36].veinsmobility  acceleration  ETV
vector 17233  IntersectionExampleScenario.node[36].veinsmobility  co2emission  ETV
17114	844015 8348 4850 11939 76.75 148.25 287 0.97223939240464 11.648172402475 657.76384855492 3025.5492859596
17113	852363 7454 4850 11939 76.75 148.25 287 -7.1630640029907 4 38.680875778198 471.71258299252
17112	859817 7819 4823 11939 76.5 148.25 288 0 15.64999961853 2204.4856579304 31271.545429211
17111	867636 9817 4796 11939 76.25 148.25 289 236.21789550781 486.85000610352 132296.6937561 61720674.843751
17110	877453 9812 4796 11939 76.25 148.25 289 483.14999389648 785.82187652588 155742.10684967 86084191.051908
vector 17236  IntersectionExampleScenario.node[37].veinsmobility  posx  ETV
vector 17237  IntersectionExampleScenario.node[37].veinsmobility  posy  ETV
vector 17238  IntersectionExampleScenario.node[37].veinsmobility  speed  ETV
vector 17239  IntersectionExampleScenario.node[37].veinsmobility  acceleration  ETV
vector 17240  IntersectionExampleScenario.node[37].veinsmobility  co2emission  ETV
vector 17243  IntersectionExampleScenario.node[38].veinsmobility  posx  ETV
vector 17244  IntersectionExampleScenario.node[38].veinsmobility  posy  ETV
vector 17245  IntersectionExampleScenario.node[38].veinsmobility  speed  ETV
vector 17246  IntersectionExampleScenario.node[38].veinsmobility  acceleration  ETV
vector 17247  IntersectionExampleScenario.node[38].veinsmobility  co2emission  ETV
vector 17250  IntersectionExampleScenario.node[39].veinsmobility  posx  ETV
vector 17251  IntersectionExampleScenario.node[39].veinsmobility  posy  ETV
vector 17252  IntersectionExampleScenario.node[39].veinsmobility  speed  ETV
vector 17253  IntersectionExampleScenario.node[39].veinsmobility  acceleration  ETV
vector 17254  IntersectionExampleScenario.node[39].veinsmobility  co2emission  ETV
vector 17257  IntersectionExampleScenario.node[40].veinsmobility  posx  ETV
vector 17258  IntersectionExampleScenario.node[40].veinsmobility  posy  ETV
vector 17259  IntersectionExampleScenario.node[40].veinsmobility  speed  ETV
vector 17260  IntersectionExampleScenario.node[40].veinsmobility  acceleration  ETV
vector 17261  IntersectionExampleScenario.node[40].veinsmobility  co2emission  ETV
vector 17264  IntersectionExampleScenario.node[41].veinsmobility  posx  ETV
vector 17265  IntersectionExampleScenario.node[41].veinsmobility  posy  ETV
vector 17266  IntersectionExampleScenario.node[41].veinsmobility  speed  ETV
vector 17267  IntersectionExampleScenario.node[41].veinsmobility  acceleration  ETV
vector 17268  IntersectionExampleScenario.node[41].veinsmobility  co2emission  ETV
17128	889270 9380 5302 13345 80.75 163.25 331 0.94018037365429 12.353032912318 745.1182861803 3611.4763940503
17127	898650 8366 5302 13345 80.75 163.25 331 -8.6849098205566 4 43.773473739624 541.10935175619
17126	907016 8626 5271 13345 80.5 163.25 332 0 16.794960021973 2206.648419857 33439.835967651
17125	915642 11371 5240 13345 80.25 163.25 333 184.17810058594 486.85000610352 145831.934021 66026319.719201
17124	927013 11388 5240 13345 80.25 163.25 333 235.86157226562 486.85000610352 154303.71359253 72620957.435947
vector 17271  IntersectionExampleScenario.node[42].veinsmobility  posx  ETV
vector 17272  IntersectionExampleScenario.node[42].veinsmobility  posy  ETV
17142	938555 10275 5491 13745 82.25 167.25 341 0.973 11.450879080643 702.07059855708 2910.60216511
17141	948830 10095 5491 13745 82.25 167.25 341 -4.5 2.5 36.98334312439 380.83070815082
17140	958925 10173 5458 13745 82 167.25 342 0 15.375 2292.4050078457 31207.825578413
17139	969098 11703 5425 13745 81.75 167.25 343 163.88433837891 487.09362792969 146861.68835449 65476007.596476
17138	980801 11755 5425 13745 81.75 167.25 343 235.09002685547 486.85000610352 158284.74926758 74284152.903655
vector 17273  IntersectionExampleScenario.node[42].veinsmobility  speed  ETV
vector 17274  IntersectionExampleScenario.node[42].veinsmobility  acceleration  ETV
vector 17275  IntersectionExampleScenario.node[42].veinsmobility  co2emission  ETV
vector 17278  IntersectionExampleScenario.node[43].veinsmobility  posx  ETV
vector 17279  IntersectionExampleScenario.node[43].veinsmobility  posy  ETV
vector 17280  IntersectionExampleScenario.node[43].veinsmobility  speed  ETV
17149	993035 9686 6493 13921 90.5 169 315 0.973 11.810082123732 686.56740623778 3105.1443139081
17148	1002721 9963 6493 13921 90.5 169 315 -3.9048278331757 2.5000004768372 38.850629806519 349.08996097197
17147	1012684 10008 6462 13921 90.25 169 316 0 15.875 2181.0862803934 28345.231507426
17146	1022692 10871 6433 13921 90 169 317 184.17810058594 483.14999389648 134719.14660645 59275467.401545
17145	1033563 10901 6433 13921 90 169 317 486.85000610352 732.25651550293 162395.29945374 84302638.967792
vector 17281  IntersectionExampleScenario.node[43].veinsmobility  acceleration  ETV
vector 17282  IntersectionExampleScenario.node[43].veinsmobility  co2emission  ETV
17191	1044633 7724 8684 14171 111.25 171.5 242 0.973 11.450879080643 595.51619971474 2836.8401908075
17190	1052357 8043 8684 14171 111.25 171.5 242 -3.9061715602875 2.5 37.15309715271 330.41134163946
17189	1060400 8160 8659 14171 111 171.5 243 0 15.375 2207.949202897 28452.943195537
17188	1068560 8449 8634 14171 110.75 171.5 244 184.17810058594 486.85000610352 100977.05160522 43717707.809972
17187	1077009 8477 8634 14171 110.75 171.5 244 237.29113769531 486.85000610352 110256.92129517 50943258.380937
vector 17285  IntersectionExampleScenario.node[44].veinsmobility  posx  ETV
vector 17286  IntersectionExampleScenario.node[44].veinsmobility  posy  ETV
vector 17287  IntersectionExampleScenario.node[44].veinsmobility  speed  ETV
vector 17288  IntersectionExampleScenario.node[44].veinsmobility  acceleration  ETV
vector 17289  IntersectionExampleScenario.node[44].veinsmobility  co2emission  ETV
vector 17292  IntersectionExampleScenario.node[45].veinsmobility  posx  ETV
vector 17293  IntersectionExampleScenario.node[45].veinsmobility  posy  ETV
vector 17294  IntersectionExampleScenario.node[45].veinsmobility  speed  ETV
vector 17295  IntersectionExampleScenario.node[45].veinsmobility  acceleration  ETV
vector 17296  IntersectionExampleScenario.node[45].veinsmobility  co2emission  ETV
17170	1086288 9109 7831 15059 102.75 180 310 0.97223939240464 11.648172402475 678.93462567383 3043.5130487027
17169	1095397 8133 7831 15059 102.75 180 310 -7.1630792617798 4 38.680875778198 471.71272919869
17168	1103530 8483 7806 15059 102.5 180 311 0 15.64999961853 2189.1655395031 31036.837682078
17167	1112013 10814 7781 15059 102.25 180 312 483.14999389648 734.76512145996 159207.98985291 82431097.806223
17166	1122827 10797 7781 15059 102.25 180 312 184.17810058594 486.85000610352 135419.44082642 60965336.710063
17177	1133624 9897 7912 15370 103.5 183 319 0.973 11.450879080643 695.47143151884 2989.210089342
17176	1143521 9357 7912 15370 103.5 183 319 -4.5 2.5 38.171613693237 441.57899570605
17175	1152878 9685 7883 15370 103.25 183 320 0 15.375 2303.5782438274 31979.779408044
17174	1162563 11133 7856 15370 103 183 321 483.14999389648 735.03326416016 163641.67472839 84630353.145364
17173	1173696 11107 7856 15370 103 183 321 161.1796875 486.99072265625 136406.87280273 60605964.436625
vector 17299  IntersectionExampleScenario.node[46].veinsmobility  posx  ETV
vector 17300  IntersectionExampleScenario.node[46].veinsmobility  posy  ETV
vector 17301  IntersectionExampleScenario.node[46].veinsmobility  speed  ETV
vector 17302  IntersectionExampleScenario.node[46].veinsmobility  acceleration  ETV
vector 17303  IntersectionExampleScenario.node[46].veinsmobility  co2emission  ETV
17205	1185204 8074 9790 15648 123.5 185.75 250 0.973 11.200708441096 591.88671540729 2642.7814493555
17204	1193278 8401 9790 15648 123.5 185.75 250 -3.9830234050751 2.5000004768372 35.964826583862 312.61709118081
17203	1201679 8562 9769 15648 123.25 185.75 251 0 15.02499961853 2210.8851301558 28282.035218593
17202	1210241 8785 9748 15648 123 185.75 252 483.14999389648 734.5421295166 130578.8384552 68832731.502712
17201	1219026 8770 9748 15648 123 185.75 252 184.17810058594 487.04296875 105088.58108521 45813882.561823
vector 17306  IntersectionExampleScenario.node[47].veinsmobility  posx  ETV
vector 17307  IntersectionExampleScenario.node[47].veinsmobility  posy  ETV
vector 17308  IntersectionExampleScenario.node[47].veinsmobility  speed  ETV
vector 17309  IntersectionExampleScenario.node[47].veinsmobility  acceleration  ETV
vector 17310  IntersectionExampleScenario.node[47].veinsmobility  co2emission  ETV
vector 17313  IntersectionExampleScenario.node[48].veinsmobility  posx  ETV
vector 17314  IntersectionExampleScenario.node[48].veinsmobility  posy  ETV
vector 17315  IntersectionExampleScenario.node[48].veinsmobility  speed  ETV
vector 17316  IntersectionExampleScenario.node[48].veinsmobility  acceleration  ETV
vector 17317  IntersectionExampleScenario.node[48].veinsmobility  co2emission  ETV
vector 17320  IntersectionExampleScenario.node[49].veinsmobility  posx  ETV
vector 17321  IntersectionExampleScenario.node[49].veinsmobility  posy  ETV
17198	1228752 8825 9710 16678 122.5 196.25 296 0.97223939240464 11.810082123732 666.11575159457 3120.1311923661
17197	1237577 8048 9710 16678 122.5 196.25 296 -7.1630640029907 4 38.680875778198 476.87792498683
17196	1245625 8239 9691 16678 122.25 196.25 297 0 15.875 2184.2047655582 30861.615730234
17195	1253864 10404 9672 16678 122 196.25 298 486.63604736328 785.82187652588 160476.82862091 88561469.323348
17194	1264268 10343 9672 16678 122 196.25 298 235.25335693359 483.14999389648 135738.64752197 62959011.269858
vector 17322  IntersectionExampleScenario.node[49].veinsmobility  speed  ETV
vector 17323  IntersectionExampleScenario.node[49].veinsmobility  acceleration  ETV
vector 17324  IntersectionExampleScenario.node[49].veinsmobility  co2emission  ETV
17219	1274858 8874 10266 16879 129.25 198.25 277 0.973 11.200708441096 615.85777514741 2692.2595621041
17218	1283732 9376 10266 16879 129.25 198.25 277 -3.7452802658081 2.5 35.285810470581 323.96154823852
17217	1293108 9226 10243 16879 129 198.25 278 0 15.02499961853 2201.9653001465 28157.194240934
17216	1302334 9723 10220 16879 128.75 198.25 279 483.13439941406 785.82187652588 152442.72179413 85383067.067288
17215	1312057 9759 10220 16879 128.75 198.25 279 483.14999389648 732.25186157227 143560.81811523 75051026.022323
vector 17327  IntersectionExampleScenario.node[50].veinsmobility  posx  ETV
vector 17328  IntersectionExampleScenario.node[50].veinsmobility  posy  ETV
vector 17334  IntersectionExampleScenario.node[51].veinsmobility  posx  ETV
vector 17335  IntersectionExampleScenario.node[51].veinsmobility  posy  ETV
vector 17329  IntersectionExampleScenario.node[50].veinsmobility  speed  ETV
vector 17336  IntersectionExampleScenario.node[51].veinsmobility  speed  ETV
vector 17330  IntersectionExampleScenario.node[50].veinsmobility  acceleration  ETV
vector 17331  IntersectionExampleScenario.node[50].veinsmobility  co2emission  ETV
vector 17337  IntersectionExampleScenario.node[51].veinsmobility  acceleration  ETV
vector 17338  IntersectionExampleScenario.node[51].veinsmobility  co2emission  ETV
17233	1322618 7040 11714 17148 146 201 221 0.973 11.36141391502 569.94562452872 2793.3803943098
17232	1329658 7306 11714 17148 146 201 221 -3.9145374298096 2.5 36.813589096069 347.48168814813
17231	1336964 7409 11689 17148 145.75 201 222 0 15.25 2183.2854646239 27993.415645802
17230	1344373 7787 11664 17148 145.5 201 223 486.83709716797 785.82187652588 124721.73416901 71643230.53069
17229	1352160 7802 11664 17148 145.5 201 223 237.22668457031 483.14999389648 99383.305938721 45345295.948491
17240	1359962 6543 12215 17248 151.25 202 204 0.973 11.54047740176 558.50688139856 2802.7250064492
17239	1366505 6691 12215 17248 151.25 202 204 -3.9776573181152 2.5 38.511121749878 359.05979452321
17238	1373196 6952 12192 17248 151 202 205 0 15.5 2214.5606610775 29444.313275017
17237	1380148 7188 12169 17248 150.75 202 206 237.18255615234 785.82187652588 107980.35578156 60745009.063421
17236	1387336 7209 12169 17248 150.75 202 206 483.14999389648 483.14999389648 99528.898742676 48087386.820047
17282	1394545 5101 13946 17673 169.25 206.25 149 0.973 12.099024792222 488.68126475418 2670.6048145283
17281	1399646 4758 13946 17673 169.25 206.25 149 -3.3615646362305 2.5 41.227170944214 206.17742630461
17280	1404404 5002 13921 17673 169 206.25 150 5.6500000953674 16.27499961853 2213.9450292587 33483.473608102
17279	1409406 5272 13895 17673 168.75 206.25 151 237.70886230469 785.82187652588 78936.983802795 45253793.380883
17278	1414678 5285 13895 17673 168.75 206.25 151 483.14999389648 483.14999389648 72955.649078369 35248521.406928
vector 17341  IntersectionExampleScenario.node[52].veinsmobility  posx  ETV
vector 17342  IntersectionExampleScenario.node[52].veinsmobility  posy  ETV
vector 17343  IntersectionExampleScenario.node[52].veinsmobility  speed  ETV
vector 17344  IntersectionExampleScenario.node[52].veinsmobility  acceleration  ETV
vector 17345  IntersectionExampleScenario.node[52].veinsmobility  co2emission  ETV
vector 17348  IntersectionExampleScenario.node[53].veinsmobility  posx  ETV
vector 17349  IntersectionExampleScenario.node[53].veinsmobility  posy  ETV
vector 17350  IntersectionExampleScenario.node[53].veinsmobility  speed  ETV
17212	1420596 9780 10178 18267 128.25 211.75 335 0.96333723109819 12.099024792222 717.38607095126 3331.3287123542
17211	1430376 8900 10178 18267 128.25 211.75 335 -6.7176246643066 4 40.208654403687 481.76706844698
17210	1439276 9064 10157 18267 128 211.75 336 0 16.27499961853 2195.6666045189 31787.620864243
17209	1448340 11795 10136 18267 127.75 211.75 337 238.72613525391 486.85000610352 156022.48812866 73371668.340627
17208	1460135 11778 10136 18267 127.75 211.75 337 483.14999389648 785.82187652588 179493.64412689 97800773.478561
vector 17351  IntersectionExampleScenario.node[53].veinsmobility  acceleration  ETV
vector 17352  IntersectionExampleScenario.node[53].veinsmobility  co2emission  ETV
17226	1472082 8850 11618 18514 145 214 277 0.973 12.099024792222 660.94938267924 3258.7248755036
17225	1480932 9360 11618 18514 145 214 277 -3.9311535358429 2.5 41.057416915894 356.80988853984
17224	1490292 9331 11595 18514 144.75 214 278 0 16.27499961853 2204.5295987837 30163.843703063
17223	1499623 9760 11572 18514 144.5 214 279 237.50830078125 486.85000610352 127804.52682495 59645736.905806
17222	1509383 9739 11572 18514 144.5 214 279 482.95895385742 785.82187652588 151980.9106369 84810845.862936
17275	1519122 6278 13795 18764 167.75 216.5 196 0.973 11.648172402475 558.8278071262 2939.1847569608
17274	1525400 6662 13795 18764 167.75 216.5 196 -2.0922584533691 2.5 39.020376205444 307.65246231293
17273	1532062 6678 13770 18764 167.5 216.5 197 1.8065246343613 15.882029533386 2215.9385937452 29469.592322148
17272	1538740 6924 13745 18764 167.25 216.5 198 235.10888671875 486.85000610352 87966.368041992 40136187.609964
17271	1545664 6919 13745 18764 167.25 216.5 198 483.14999389648 785.82187652588 111458.58860016 64588265.580477
vector 17355  IntersectionExampleScenario.node[54].veinsmobility  posx  ETV
vector 17356  IntersectionExampleScenario.node[54].veinsmobility  posy  ETV
vector 17357  IntersectionExampleScenario.node[54].veinsmobility  speed  ETV
vector 17358  IntersectionExampleScenario.node[54].veinsmobility  acceleration  ETV
vector 17359  IntersectionExampleScenario.node[54].veinsmobility  co2emission  ETV
vector 17362  IntersectionExampleScenario.node[55].veinsmobility  posx  ETV
vector 17363  IntersectionExampleScenario.node[55].veinsmobility  posy  ETV
vector 17364  IntersectionExampleScenario.node[55].veinsmobility  speed  ETV
vector 17365  IntersectionExampleScenario.node[55].veinsmobility  acceleration  ETV
vector 17366  IntersectionExampleScenario.node[55].veinsmobility  co2emission  ETV
17247	1553385 8630 12603 19923 155.75 227.75 289 0.973 12.099024792222 675.67789780344 3332.2252705461
17246	1562015 8048 12603 19923 155.75 227.75 289 -7.6006922721863 4 40.378400802612 504.6806293789
17245	1570063 8110 12582 19923 155.5 227.75 290 0 16.27499961853 2210.2454918623 32259.737570183
17244	1578173 10161 12561 19923 155.25 227.75 291 184.17810058594 732.75503540039 133565.57672119 65377694.916995
17243	1588334 10187 12561 19923 155.25 227.75 291 486.85000610352 486.85000610352 141673.35177612 68973672.176911
vector 17369  IntersectionExampleScenario.node[56].veinsmobility  posx  ETV
vector 17370  IntersectionExampleScenario.node[56].veinsmobility  posy  ETV
vector 17371  IntersectionExampleScenario.node[56].veinsmobility  speed  ETV
vector 17372  IntersectionExampleScenario.node[56].veinsmobility  acceleration  ETV
vector 17373  IntersectionExampleScenario.node[56].veinsmobility  co2emission  ETV
17303	1598922 5989 15498 20146 184.25 230 184 0.97223939240464 11.648172402475 540.78982190658 2865.570809993
17302	1604911 5917 15498 20146 184.25 230 184 -2.1208915710449 2.5000009536743 38.680875778198 293.66667769282
17301	1610828 6186 15472 20146 184 230 185 2.696161031723 15.64999961853 2212.1593074799 29689.460439735
17300	1617014 6484 15445 20146 183.75 230 186 184.17810058594 486.85000610352 75258.601623535 32277344.585979
17299	1623498 6507 15445 20146 183.75 230 186 236.25952148438 486.85000610352 82147.090118408 37303124.80718
vector 17376  IntersectionExampleScenario.node[57].veinsmobility  posx  ETV
vector 17377  IntersectionExampleScenario.node[57].veinsmobility  posy  ETV
17324	1630159 5388 16729 20637 196.75 236 158 0.973 11.648172402475 490.30051086847 2628.2899425702
17323	1635547 5029 16729 20637 196.75 236 158 -3.4391326904297 2.5 38.001859664917 238.01143567294
17322	1640576 5276 16704 20637 196.5 236 159 5.6500000953674 15.64999961853 2213.7336673737 31719.163289221
17321	1645852 5577 16678 20637 196.25 236 160 184.17810058594 486.86328125 63735.650054932 27170688.907872
17320	1651429 5594 16678 20637 196.25 236 160 235.29779052734 486.85000610352 69341.010131836 31027688.166183
vector 17378  IntersectionExampleScenario.node[57].veinsmobility  speed  ETV
vector 17383  IntersectionExampleScenario.node[58].veinsmobility  posx  ETV
vector 17384  IntersectionExampleScenario.node[58].veinsmobility  posy  ETV
vector 17379  IntersectionExampleScenario.node[57].veinsmobility  acceleration  ETV
vector 17380  IntersectionExampleScenario.node[57].veinsmobility  co2emission  ETV
vector 17385  IntersectionExampleScenario.node[58].veinsmobility  speed  ETV
vector 17386  IntersectionExampleScenario.node[58].veinsmobility  acceleration  ETV
vector 17387  IntersectionExampleScenario.node[58].veinsmobility  co2emission  ETV
17338	1657671 5352 17072 20885 200.25 239 156 0.973 11.648172402475 480.38314816452 2502.391334287
17337	1663023 5007 17072 20885 200.25 239 156 -3.5294380187988 2.5 38.850629806519 196.68361015126
17336	1668030 5267 17045 20885 200 239 157 5.6500000953674 15.64999961853 2263.0538892746 33285.342716452
17335	1673297 5495 17018 20885 199.75 239 158 174.53436279297 735.06770324707 70239.892852783 35595388.412508
17334	1678792 5529 17018 20885 199.75 239 158 486.85000610352 486.85000610352 76922.300964355 37449622.693993
17254	1684321 10074 12754 21270 157.5 243.75 346 0.973 12.099024792222 735.46246053183 3384.5308058836
17253	1694395 8904 12754 21270 157.5 243.75 346 -38.719058990479 4 40.038900375366 1871.0036955291
17252	1703299 9224 12731 21270 157.25 243.75 347 0 16.27499961853 2209.9526662827 32682.627555473
17251	1712523 12180 12708 21270 157 243.75 348 483.14999389648 483.14999389648 168136.19787598 81235002.977556
17250	1724703 12152 12708 21270 157 243.75 348 184.17810058594 731.70051574707 160441.72186279 78043970.205739
vector 17390  IntersectionExampleScenario.node[59].veinsmobility  posx  ETV
vector 17391  IntersectionExampleScenario.node[59].veinsmobility  posy  ETV
vector 17392  IntersectionExampleScenario.node[59].veinsmobility  speed  ETV
vector 17393  IntersectionExampleScenario.node[59].veinsmobility  acceleration  ETV
vector 17394  IntersectionExampleScenario.node[59].veinsmobility  co2emission  ETV
17261	1737256 10639 12942 21412 159.5 245.75 346 0.973 11.648172402475 726.05241594851 3102.3670954796
17260	1747895 10053 12942 21412 159.5 245.75 346 -4.5 2.5 38.341367721558 451.40923449641
17259	1757948 10263 12917 21412 159.25 245.75 347 0 15.64999961853 2287.9859949453 31916.14300276
17258	1768211 12169 12892 21412 159 245.75 348 483.14999389648 735.35983276367 176689.09991455 90937065.970183
17257	1780380 12129 12892 21412 159 245.75 348 166.078125 486.86560058594 149606.82931519 66846060.390826
17268	1792509 11040 13021 21514 160.25 247.25 349 0.973 11.450879080643 751.46219396553 3090.4609395808
17267	1803549 10972 13021 21514 160.25 247.25 349 -4.5 2.5 40.378400802612 446.59914176577
17266	1814521 11066 12994 21514 160 247.25 350 0 15.781936645508 2340.0613610102 32669.681218709
17265	1825587 12281 12967 21514 159.75 247.25 351 483.14999389648 734.16822814941 177805.83482361 91251505.822974
17264	1837868 12237 12967 21514 159.75 247.25 351 152.12969970703 486.87509155273 148491.75564575 65549667.70212
vector 17397  IntersectionExampleScenario.node[60].veinsmobility  posx  ETV
vector 17398  IntersectionExampleScenario.node[60].veinsmobility  posy  ETV
vector 17399  IntersectionExampleScenario.node[60].veinsmobility  speed  ETV
vector 17400  IntersectionExampleScenario.node[60].veinsmobility  acceleration  ETV
vector 17401  IntersectionExampleScenario.node[60].veinsmobility  co2emission  ETV
17296	1850506 9108 14887 21647 178.5 249.25 284 0.973 12.099024792222 669.93638273834 3282.0543839267
17295	1859614 9488 14887 21647 178.5 249.25 284 -3.7953519821167 2.5000019073486 41.227170944214 353.64090870692
17294	1869102 9530 14858 21647 178.25 249.25 285 0 16.27499961853 2213.1572371153 29879.42598679
17293	1878632 9991 14829 21647 178 249.25 286 483.14999389648 733.93940734863 146284.13856506 75943911.635301
17292	1888623 9967 14829 21647 178 249.25 286 184.17810058594 486.85000610352 120224.63195801 52470771.969034
17310	1898590 8065 15885 21757 188.25 251 252 0.973 11.990504229548 620.89657055265 3087.8994291475
17309	1906655 8458 15885 21757 188.25 251 252 -3.8193361759186 2.5 39.869146347046 333.53622509961
17308	1915113 8593 15860 21757 188 251 253 0 16.125 2222.7444900796 29513.702833136
17307	1923706 8889 15835 21757 187.75 251 254 483.14999389648 483.14999389648 122720.09844971 59292214.816952
17306	1932595 8841 15835 21757 187.75 251 254 184.17810058594 734.30757141113 112781.88500977 54208390.208288
vector 17404  IntersectionExampleScenario.node[61].veinsmobility  posx  ETV
vector 17405  IntersectionExampleScenario.node[61].veinsmobility  posy  ETV
vector 17406  IntersectionExampleScenario.node[61].veinsmobility  speed  ETV
vector 17407  IntersectionExampleScenario.node[61].veinsmobility  acceleration  ETV
vector 17408  IntersectionExampleScenario.node[61].veinsmobility  co2emission  ETV
vector 17411  IntersectionExampleScenario.node[62].veinsmobility  posx  ETV
vector 17412  IntersectionExampleScenario.node[62].veinsmobility  posy  ETV
vector 17413  IntersectionExampleScenario.node[62].veinsmobility  speed  ETV
vector 17414  IntersectionExampleScenario.node[62].veinsmobility  acceleration  ETV
vector 17415  IntersectionExampleScenario.node[62].veinsmobility  co2emission  ETV
17359	1942238 5326 19018 22261 219 258 157 0.973 11.810082123732 512.93932836398 2877.3139614037
17358	1947564 4924 19018 22261 219 258 157 -3.3704528808594 2.5 39.699392318726 285.64288050481
17357	1952488 5205 18991 22261 218.75 258 158 5.6500000953674 15.875 2176.3486738205 31459.086025827
17356	1957693 5558 18964 22261 218.5 258 159 238.85522460938 483.14999389648 68924.2862854 30765730.409292
17355	1963251 5531 18964 22261 218.5 258 159 184.17810058594 483.2028503418 63164.82800293 26818033.877916
17289	1968782 9687 14775 22410 177.5 260 331 0.96333723109819 12.099024792222 714.74618753455 3331.5462111634
17288	1978469 8813 14775 22410 177.5 260 331 -6.7176246643066 4 40.208654403687 481.76706844698
17287	1987282 8994 14748 22410 177.25 260 332 0 16.27499961853 2211.3687682152 32034.178808988
17286	1996276 11635 14721 22410 177 260 333 483.14999389648 785.82187652588 177484.79415131 96792194.625583
17285	2007911 11648 14721 22410 177 260 333 483.14999389648 735.19940185547 169186.96133423 87144689.980792
17317	2019559 8717 16303 22461 192.5 260.75 274 0.973 12.099024792222 659.40486032897 3278.7814515568
17316	2028276 9173 16303 22461 192.5 260.75 274 -3.9311535358429 2.5 41.057416915894 365.46407595049
17315	2037449 9104 16278 22461 192.25 260.75 275 0 16.27499961853 2218.7713757642 30627.437996676
17314	2046553 9627 16253 22461 192 260.75 276 236.24017333984 785.82187652588 142667.27291107 77802686.890552
17313	2056180 9660 16253 22461 192 260.75 276 483.14999389648 483.14999389648 133349.39831543 64427760.982199
17331	2065840 8243 17072 22699 200.25 264.25 257 0.973 11.200708441096 594.51554510159 2649.0691429891
17330	2074083 8632 17072 22699 200.25 264.25 257 -3.8252620697021 2.5 35.795072555542 312.10538600101
17329	2082715 8839 17045 22699 200 264.25 258 0 15.02499961853 2220.6775906216 28262.967341364
17328	2091554 9030 17018 22699 199.75 264.25 259 235.36853027344 785.82187652588 134623.37311554 74301249.150658
17327	2100584 9065 17018 22699 199.75 264.25 259 483.14999389648 483.14999389648 125135.84841919 60459384.399963
17352	2109649 6848 18296 22818 212 266 217 0.973 12.099024792222 596.91278010625 3247.3387774056
17351	2116497 7080 18296 22818 212 266 217 -3.8336522579193 2.5000019073486 40.038900375366 382.91491210816
17350	2123577 7290 18267 22818 211.75 266 218 0 16.27499961853 2178.6104979143 28572.190454673
17349	2130867 7645 18238 22818 211.5 266 219 486.8450012207 785.82187652588 122923.68984222 70810355.957035
17348	2138512 7657 18238 22818 211.5 266 219 238.431640625 483.14999389648 97928.35824585 44786188.295608
vector 17418  IntersectionExampleScenario.node[63].veinsmobility  posx  ETV
vector 17419  IntersectionExampleScenario.node[63].veinsmobility  posy  ETV
vector 17425  IntersectionExampleScenario.node[64].veinsmobility  posx  ETV
vector 17426  IntersectionExampleScenario.node[64].veinsmobility  posy  ETV
vector 17420  IntersectionExampleScenario.node[63].veinsmobility  speed  ETV
vector 17427  IntersectionExampleScenario.node[64].veinsmobility  speed  ETV
vector 17421  IntersectionExampleScenario.node[63].veinsmobility  acceleration  ETV
vector 17422  IntersectionExampleScenario.node[63].veinsmobility  co2emission  ETV
vector 17428  IntersectionExampleScenario.node[64].veinsmobility  acceleration  ETV
vector 17429  IntersectionExampleScenario.node[64].veinsmobility  co2emission  ETV
vector 17432  IntersectionExampleScenario.node[65].veinsmobility  posx  ETV
vector 17433  IntersectionExampleScenario.node[65].veinsmobility  posy  ETV
vector 17439  IntersectionExampleScenario.node[66].veinsmobility  posx  ETV
vector 17440  IntersectionExampleScenario.node[66].veinsmobility  posy  ETV
vector 17434  IntersectionExampleScenario.node[65].veinsmobility  speed  ETV
vector 17435  IntersectionExampleScenario.node[65].veinsmobility  acceleration  ETV
vector 17436  IntersectionExampleScenario.node[65].veinsmobility  co2emission  ETV
vector 17441  IntersectionExampleScenario.node[66].veinsmobility  speed  ETV
vector 17446  IntersectionExampleScenario.node[67].veinsmobility  posx  ETV
vector 17447  IntersectionExampleScenario.node[67].veinsmobility  posy  ETV
vector 17442  IntersectionExampleScenario.node[66].veinsmobility  acceleration  ETV
vector 17443  IntersectionExampleScenario.node[66].veinsmobility  co2emission  ETV
vector 17448  IntersectionExampleScenario.node[67].veinsmobility  speed  ETV
vector 17449  IntersectionExampleScenario.node[67].veinsmobility  acceleration  ETV
vector 17450  IntersectionExampleScenario.node[67].veinsmobility  co2emission  ETV
vector 17453  IntersectionExampleScenario.node[68].veinsmobility  posx  ETV
vector 17454  IntersectionExampleScenario.node[68].veinsmobility  posy  ETV
vector 17455  IntersectionExampleScenario.node[68].veinsmobility  speed  ETV
vector 17456  IntersectionExampleScenario.node[68].veinsmobility  acceleration  ETV
vector 17457  IntersectionExampleScenario.node[68].veinsmobility  co2emission  ETV
vector 17460  IntersectionExampleScenario.node[69].veinsmobility  posx  ETV
vector 17461  IntersectionExampleScenario.node[69].veinsmobility  posy  ETV
vector 17462  IntersectionExampleScenario.node[69].veinsmobility  speed  ETV
vector 17463  IntersectionExampleScenario.node[69].veinsmobility  acceleration  ETV
vector 17464  IntersectionExampleScenario.node[69].veinsmobility  co2emission  ETV
vector 17467  IntersectionExampleScenario.node[70].veinsmobility  posx  ETV
vector 17468  IntersectionExampleScenario.node[70].veinsmobility  posy  ETV
vector 17469  IntersectionExampleScenario.node[70].veinsmobility  speed  ETV
vector 17470  IntersectionExampleScenario.node[70].veinsmobility  acceleration  ETV
vector 17471  IntersectionExampleScenario.node[70].veinsmobility  co2emission  ETV
17373	2149377 6385 20001 23885 228.5 277 195 0.973 11.200708441096 543.43022153575 2638.3041303284
17372	2155762 5851 20001 23885 228.5 277 195 -6.8640689849854 4 35.625318527222 445.86479464531
17371	2161613 6246 19975 23885 228.25 277 196 0 15.02499961853 2184.6829628944 29567.904340929
17370	2167859 6827 19948 23885 228 277 197 486.85000610352 735.00680541992 104583.76342773 56571983.33972
17369	2174686 6887 19948 23885 228 277 197 486.63604736328 785.82187652588 110502.94052887 63903247.093244
vector 17474  IntersectionExampleScenario.node[71].veinsmobility  posx  ETV
vector 17475  IntersectionExampleScenario.node[71].veinsmobility  posy  ETV
vector 17476  IntersectionExampleScenario.node[71].veinsmobility  speed  ETV
vector 17477  IntersectionExampleScenario.node[71].veinsmobility  acceleration  ETV
vector 17478  IntersectionExampleScenario.node[71].veinsmobility  co2emission  ETV
vector 17481  IntersectionExampleScenario.node[72].veinsmobility  posx  ETV
vector 17482  IntersectionExampleScenario.node[72].veinsmobility  posy  ETV
vector 17483  IntersectionExampleScenario.node[72].veinsmobility  speed  ETV
vector 17484  IntersectionExampleScenario.node[72].veinsmobility  acceleration  ETV
vector 17485  IntersectionExampleScenario.node[72].veinsmobility  co2emission  ETV
vector 17488  IntersectionExampleScenario.node[73].veinsmobility  posx  ETV
vector 17489  IntersectionExampleScenario.node[73].veinsmobility  posy  ETV
vector 17490  IntersectionExampleScenario.node[73].veinsmobility  speed  ETV
vector 17491  IntersectionExampleScenario.node[73].veinsmobility  acceleration  ETV
vector 17492  IntersectionExampleScenario.node[73].veinsmobility  co2emission  ETV
vector 17495  IntersectionExampleScenario.node[74].veinsmobility  posx  ETV
vector 17496  IntersectionExampleScenario.node[74].veinsmobility  posy  ETV
vector 17497  IntersectionExampleScenario.node[74].veinsmobility  speed  ETV
vector 17502  IntersectionExampleScenario.node[75].veinsmobility  posx  ETV
vector 17503  IntersectionExampleScenario.node[75].veinsmobility  posy  ETV
vector 17498  IntersectionExampleScenario.node[74].veinsmobility  acceleration  ETV
vector 17499  IntersectionExampleScenario.node[74].veinsmobility  co2emission  ETV
17345	2183331 10060 17752 25624 207 292.5 343 0.973 11.36141391502 697.94698256408 2911.5838557943
17344	2193391 8935 17752 25624 207 292.5 343 -8.487024307251 4 37.15309715271 476.36028990498
17343	2202326 9289 17725 25624 206.75 292.5 344 0 15.25 2176.7447767258 30094.703459203
17342	2211615 12056 17698 25624 206.5 292.5 345 184.17810058594 483.36395263672 150549.19329834 67926190.296836
17341	2223671 12013 17698 25624 206.5 292.5 345 486.85000610352 733.15849304199 176300.59057617 91256711.440483
vector 17504  IntersectionExampleScenario.node[75].veinsmobility  speed  ETV
vector 17505  IntersectionExampleScenario.node[75].veinsmobility  acceleration  ETV
vector 17506  IntersectionExampleScenario.node[75].veinsmobility  co2emission  ETV
17366	2235931 9324 19177 25805 220.5 294 295 0.973 11.450879080643 646.20902040974 2850.500330289
17365	2245255 9707 19177 25805 220.5 294 295 -3.9813897609711 2.5 36.813589096069 336.41996636952
17364	2254962 9591 19150 25805 220.25 294 296 0 15.375 2210.8385643894 28766.824800014
17363	2264553 10361 19123 25805 220 294 297 184.17810058594 486.86563110352 126655.87585449 56114227.551581
17362	2274914 10381 19123 25805 220 294 297 235.76391601562 486.85000610352 135915.98922729 63399086.715981
17387	2285295 7441 20717 25921 237 295 233 0.90753377507377 12.553400930962 629.59307901726 3324.888446711
17386	2292736 7850 20717 25921 237 295 233 -3.7180926799774 2.5 43.094457626343 359.9031997551
17385	2300586 7879 20696 25921 236.75 295 234 0 16.89999961853 2190.1044216882 30010.382695747
17384	2308465 8187 20675 25921 236.5 295 235 184.17810058594 483.14999389648 97570.820281982 42363541.702195
17383	2316652 8210 20675 25921 236.5 295 235 486.85000610352 733.92028808594 122131.50440979 64479896.614035
17394	2324862 6525 21412 26171 245.75 297.25 207 0.973 11.648172402475 570.466213269 2946.377648413
17393	2331387 6724 21412 26171 245.75 297.25 207 -2.1119117736816 2.5 39.869146347046 317.30041948574
17392	2338111 6990 21395 26171 245.5 297.25 208 1.2746146917343 15.656349182129 2209.1810081005 28980.286087448
17391	2345101 7281 21377 26171 245.25 297.25 209 184.17810058594 486.85000610352 85112.993835449 36499365.429077
17390	2352382 7304 21377 26171 245.25 297.25 209 236.82037353516 486.85000610352 93532.389678955 42902407.121658
17408	2359686 5991 21806 26252 251.75 298 186 0.973 11.990504229548 559.12601825737 3067.0611789506
17407	2365677 5968 21806 26252 251.75 298 186 -3.5253524780273 2.5 41.566686630249 317.10041174704
17406	2371645 6279 21789 26252 251.5 298 187 3.5674076080322 16.125 2216.5767405033 30293.06435678
17405	2377924 6539 21772 26252 251.25 298 188 184.17810058594 732.92198181152 83225.470550537 40867547.27765
17404	2384463 6580 21772 26252 251.25 298 188 486.85000610352 486.85000610352 91527.801147461 44560310.547283
vector 17509  IntersectionExampleScenario.node[76].veinsmobility  posx  ETV
vector 17510  IntersectionExampleScenario.node[76].veinsmobility  posy  ETV
vector 17511  IntersectionExampleScenario.node[76].veinsmobility  speed  ETV
vector 17512  IntersectionExampleScenario.node[76].veinsmobility  acceleration  ETV
vector 17513  IntersectionExampleScenario.node[76].veinsmobility  co2emission  ETV
vector 17516  IntersectionExampleScenario.node[77].veinsmobility  posx  ETV
vector 17517  IntersectionExampleScenario.node[77].veinsmobility  posy  ETV
vector 17518  IntersectionExampleScenario.node[77].veinsmobility  speed  ETV
vector 17519  IntersectionExampleScenario.node[77].veinsmobility  acceleration  ETV
vector 17520  IntersectionExampleScenario.node[77].veinsmobility  co2emission  ETV
17380	2391845 8647 20675 27151 236.5 308.25 288 0.973 11.648172402475 651.93455260614 2986.8783918475
17379	2400492 7909 20675 27151 236.5 308.25 288 -8.4909067153931 4 38.001859664917 488.16077446915
17378	2408401 8101 20656 27151 236.25 308.25 289 0 15.64999961853 2172.5754625797 30408.737036323
17377	2416502 10084 20637 27151 236 308.25 290 237.98760986328 483.14999389648 131957.66903687 61143682.927301
17376	2426586 10127 20637 27151 236 308.25 290 184.17810058594 483.36395263672 124736.48846436 55787705.504245
17401	2436713 7973 21596 27298 248.5 310 247 0.973 11.200708441096 589.28289649388 2685.2675637715
17400	2444686 8348 21596 27298 248.5 310 247 -3.8773746490479 2.5 35.795072555542 326.9710415383
17399	2453034 8533 21579 27298 248.25 310 248 0 15.02499961853 2219.1652273685 28720.455987388
17398	2461567 8713 21562 27298 248 310 249 483.14999389648 483.14999389648 120304.34848022 58125045.233941
17397	2470280 8669 21562 27298 248 310 249 184.17810058594 734.4634552002 112768.88449097 55386673.200921
17415	2478949 7446 22014 27529 254.75 312.75 233 0.973 11.36141391502 581.62067259732 2804.245951525
17414	2486395 7707 22014 27529 254.75 312.75 233 -3.9099180698395 2.5 37.15309715271 353.65013284906
17413	2494102 7846 21995 27529 254.5 312.75 234 0 15.25 2187.5899138637 27462.008592594
17412	2501948 8215 21976 27529 254.25 312.75 235 235.86547851562 483.14999389648 105132.28146362 48114428.85205
17411	2510163 8200 21976 27529 254.25 312.75 235 184.17810058594 483.14999389648 96692.906951904 41684596.933259
17429	2518363 5852 23132 27697 270.5 314.75 178 0.973 11.450879080643 544.77740280393 2961.3641490486
17428	2524215 5729 23132 27697 270.5 314.75 178 -4.131404876709 2.5000019073486 36.813589096069 335.25393783412
17427	2529944 5974 23111 27697 270.25 314.75 179 5.6500000953674 15.375 2211.8139157295 29076.841176004
17426	2535918 6294 23090 27697 270 314.75 180 483.14999389648 734.42262268066 95659.403808594 51874311.83662
17425	2542212 6271 23090 27697 270 314.75 180 184.17810058594 486.87969970703 72177.558410645 30762500.713644
17443	2548483 6075 23226 27802 271.5 316 179 0.973 11.200708441096 543.53955328758 2754.565249635
17442	2554558 5647 23226 27802 271.5 316 179 -4.5 2.5 37.32285118103 326.59882969925
17441	2560205 6085 23201 27802 271.25 316 180 5.6500000953674 15.02499961853 2308.1158294678 30919.491129693
17440	2566290 6333 23176 27802 271 316 181 483.14999389648 483.14999389648 87450.148895264 42251538.904993
17439	2572623 6302 23176 27802 271 316 181 162.00311279297 733.6643371582 78931.722259521 39157812.16062
vector 17523  IntersectionExampleScenario.node[78].veinsmobility  posx  ETV
vector 17524  IntersectionExampleScenario.node[78].veinsmobility  posy  ETV
vector 17530  IntersectionExampleScenario.node[79].veinsmobility  posx  ETV
vector 17531  IntersectionExampleScenario.node[79].veinsmobility  posy  ETV
vector 17525  IntersectionExampleScenario.node[78].veinsmobility  speed  ETV
vector 17526  IntersectionExampleScenario.node[78].veinsmobility  acceleration  ETV
vector 17527  IntersectionExampleScenario.node[78].veinsmobility  co2emission  ETV
vector 17532  IntersectionExampleScenario.node[79].veinsmobility  speed  ETV
vector 17533  IntersectionExampleScenario.node[79].veinsmobility  acceleration  ETV
vector 17534  IntersectionExampleScenario.node[79].veinsmobility  co2emission  ETV
17464	2579727 5893 23512 28013 274 318.25 178 0.973 11.450879080643 544.77519573843 2934.4523007072
17463	2585620 5743 23512 28013 274 318.25 178 -4.5 2.5 38.171613693237 307.72917867973
17462	2591363 5978 23481 28013 273.75 318.25 179 5.6500000953674 15.375 2311.8501577377 31206.66983548
17461	2597341 6294 23450 28013 273.5 318.25 180 483.14999389648 732.05046081543 95326.260375977 51481528.520023
17460	2603635 6284 23450 28013 273.5 318.25 180 157.49688720703 486.85000610352 70064.82623291 29494896.745569
17471	2609919 5783 23761 28163 276 319.75 176 0.973 11.093806525473 505.47202539938 2581.9660986133
17470	2615702 5648 23761 28163 276 319.75 176 -3.0752296447754 2.5 36.910810470581 211.25804450005
17469	2621350 5979 23730 28163 275.75 319.75 177 5.6256947517395 14.98669719696 2346.8060092926 32005.454962432
17468	2627329 6231 23698 28163 275.5 319.75 178 483.14999389648 483.14999389648 86000.698913574 41551237.155187
17467	2633560 6214 23698 28163 275.5 319.75 178 152.73577880859 734.24853515625 77147.318450928 38433147.507666
17478	2639774 5883 23979 28488 277.75 323 182 0.87724236611116 12.717865293408 597.48483120865 3629.7948515054
17477	2645657 5573 23979 28488 277.75 323 182 -7.0508990287781 4 43.943227767944 514.48552926197
17476	2651230 5720 23948 28488 277.5 323 183 0 17.125 2169.6777569056 32711.439852213
17475	2656950 6426 23916 28488 277.25 323 184 486.63604736328 785.82187652588 103131.63762665 59619724.290374
17474	2663376 6356 23916 28488 277.25 323 184 239.22973632812 483.14999389648 81503.891662598 37000658.254963
vector 17537  IntersectionExampleScenario.node[80].veinsmobility  posx  ETV
vector 17538  IntersectionExampleScenario.node[80].veinsmobility  posy  ETV
vector 17539  IntersectionExampleScenario.node[80].veinsmobility  speed  ETV
vector 17540  IntersectionExampleScenario.node[80].veinsmobility  acceleration  ETV
vector 17541  IntersectionExampleScenario.node[80].veinsmobility  co2emission  ETV
vector 17544  IntersectionExampleScenario.node[81].veinsmobility  posx  ETV
vector 17545  IntersectionExampleScenario.node[81].veinsmobility  posy  ETV
vector 17546  IntersectionExampleScenario.node[81].veinsmobility  speed  ETV
vector 17551  IntersectionExampleScenario.node[82].veinsmobility  posx  ETV
vector 17552  IntersectionExampleScenario.node[82].veinsmobility  posy  ETV
vector 17547  IntersectionExampleScenario.node[81].veinsmobility  acceleration  ETV
vector 17548  IntersectionExampleScenario.node[81].veinsmobility  co2emission  ETV
vector 17553  IntersectionExampleScenario.node[82].veinsmobility  speed  ETV
vector 17554  IntersectionExampleScenario.node[82].veinsmobility  acceleration  ETV
vector 17555  IntersectionExampleScenario.node[82].veinsmobility  co2emission  ETV
vector 17558  IntersectionExampleScenario.node[83].veinsmobility  posx  ETV
vector 17559  IntersectionExampleScenario.node[83].veinsmobility  posy  ETV
vector 17560  IntersectionExampleScenario.node[83].veinsmobility  speed  ETV
vector 17561  IntersectionExampleScenario.node[83].veinsmobility  acceleration  ETV
vector 17562  IntersectionExampleScenario.node[83].veinsmobility  co2emission  ETV
vector 17565  IntersectionExampleScenario.node[84].veinsmobility  posx  ETV
vector 17566  IntersectionExampleScenario.node[84].veinsmobility  posy  ETV
vector 17572  IntersectionExampleScenario.node[85].veinsmobility  posx  ETV
vector 17573  IntersectionExampleScenario.node[85].veinsmobility  posy  ETV
vector 17579  IntersectionExampleScenario.node[86].veinsmobility  posx  ETV
vector 17580  IntersectionExampleScenario.node[86].veinsmobility  posy  ETV
vector 17567  IntersectionExampleScenario.node[84].veinsmobility  speed  ETV
vector 17574  IntersectionExampleScenario.node[85].veinsmobility  speed  ETV
vector 17568  IntersectionExampleScenario.node[84].veinsmobility  acceleration  ETV
vector 17569  IntersectionExampleScenario.node[84].veinsmobility  co2emission  ETV
vector 17575  IntersectionExampleScenario.node[85].veinsmobility  acceleration  ETV
vector 17576  IntersectionExampleScenario.node[85].veinsmobility  co2emission  ETV
vector 17581  IntersectionExampleScenario.node[86].veinsmobility  speed  ETV
vector 17582  IntersectionExampleScenario.node[86].veinsmobility  acceleration  ETV
vector 17583  IntersectionExampleScenario.node[86].veinsmobility  co2emission  ETV
vector 17586  IntersectionExampleScenario.node[87].veinsmobility  posx  ETV
vector 17587  IntersectionExampleScenario.node[87].veinsmobility  posy  ETV
vector 17588  IntersectionExampleScenario.node[87].veinsmobility  speed  ETV
vector 17589  IntersectionExampleScenario.node[87].veinsmobility  acceleration  ETV
vector 17590  IntersectionExampleScenario.node[87].veinsmobility  co2emission  ETV
17422	2672940 8345 23132 30435 270.5 339.5 277 0.973 12.099024792222 671.35234905744 3336.1790351559
17421	2681285 7295 23132 30435 270.5 339.5 277 -9.2126445770264 4 41.396924972534 525.32208356757
17420	2688580 7844 23111 30435 270.25 339.5 278 0 16.27499961853 2208.8033750057 32581.164432489
17419	2696424 9764 23090 30435 270 339.5 279 486.85000610352 486.85000610352 135831.15170288 66129397.035595
17418	2706188 9748 23090 30435 270 339.5 279 238.08117675781 785.82187652588 142814.35845184 77118939.391777
17485	2715936 6984 24964 30634 286.75 341 218 0.90753377507377 12.553400930962 616.66072415269 3407.7580590732
17484	2722920 7370 24964 30634 286.75 341 218 -3.903418302536 2.5 43.094457626343 362.47967703703
17483	2730290 7509 24937 30634 286.5 341 219 0 16.89999961853 2220.6214909069 31285.962446623
17482	2737799 7700 24910 30634 286.25 341 220 486.85000610352 486.85000610352 107107.00134277 52145044.257458
17481	2745499 7665 24910 30634 286.25 341 220 235.78009033203 785.82187652588 114422.38640594 63483641.002654
vector 17593  IntersectionExampleScenario.node[88].veinsmobility  posx  ETV
vector 17594  IntersectionExampleScenario.node[88].veinsmobility  posy  ETV
vector 17600  IntersectionExampleScenario.node[89].veinsmobility  posx  ETV
vector 17601  IntersectionExampleScenario.node[89].veinsmobility  posy  ETV
vector 17595  IntersectionExampleScenario.node[88].veinsmobility  speed  ETV
vector 17596  IntersectionExampleScenario.node[88].veinsmobility  acceleration  ETV
vector 17597  IntersectionExampleScenario.node[88].veinsmobility  co2emission  ETV
vector 17602  IntersectionExampleScenario.node[89].veinsmobility  speed  ETV
vector 17603  IntersectionExampleScenario.node[89].veinsmobility  acceleration  ETV
vector 17604  IntersectionExampleScenario.node[89].veinsmobility  co2emission  ETV
vector 17607  IntersectionExampleScenario.node[90].veinsmobility  posx  ETV
vector 17608  IntersectionExampleScenario.node[90].veinsmobility  posy  ETV
vector 17614  IntersectionExampleScenario.node[91].veinsmobility  posx  ETV
vector 17615  IntersectionExampleScenario.node[91].veinsmobility  posy  ETV
vector 17609  IntersectionExampleScenario.node[90].veinsmobility  speed  ETV
vector 17610  IntersectionExampleScenario.node[90].veinsmobility  acceleration  ETV
vector 17611  IntersectionExampleScenario.node[90].veinsmobility  co2emission  ETV
vector 17616  IntersectionExampleScenario.node[91].veinsmobility  speed  ETV
17506	2754599 6707 25686 31223 293 345.25 210 0.973 11.200708441096 552.5500267204 2671.6347892747
17505	2761306 6883 25686 31223 293 345.25 210 -3.9371128082275 2.5 35.285810470581 357.51151082618
17504	2768189 7245 25655 31223 292.75 345.25 211 0 15.02499961853 2212.9933295473 27885.096082346
17503	2775434 7420 25624 31223 292.5 345.25 212 486.85000610352 486.85000610352 103212.20129395 50248860.829914
17502	2782854 7407 25624 31223 292.5 345.25 212 237.16680908203 785.82187652588 110761.31394196 62181704.920436
vector 17617  IntersectionExampleScenario.node[91].veinsmobility  acceleration  ETV
vector 17618  IntersectionExampleScenario.node[91].veinsmobility  co2emission  ETV
vector 17621  IntersectionExampleScenario.node[92].veinsmobility  posx  ETV
vector 17622  IntersectionExampleScenario.node[92].veinsmobility  posy  ETV
vector 17623  IntersectionExampleScenario.node[92].veinsmobility  speed  ETV
vector 17624  IntersectionExampleScenario.node[92].veinsmobility  acceleration  ETV
vector 17625  IntersectionExampleScenario.node[92].veinsmobility  co2emission  ETV
vector 17628  IntersectionExampleScenario.node[93].veinsmobility  posx  ETV
vector 17629  IntersectionExampleScenario.node[93].veinsmobility  posy  ETV
vector 17630  IntersectionExampleScenario.node[93].veinsmobility  speed  ETV
vector 17631  IntersectionExampleScenario.node[93].veinsmobility  acceleration  ETV
vector 17632  IntersectionExampleScenario.node[93].veinsmobility  co2emission  ETV
vector 17635  IntersectionExampleScenario.node[94].veinsmobility  posx  ETV
vector 17636  IntersectionExampleScenario.node[94].veinsmobility  posy  ETV
vector 17637  IntersectionExampleScenario.node[94].veinsmobility  speed  ETV
vector 17638  IntersectionExampleScenario.node[94].veinsmobility  acceleration  ETV
vector 17639  IntersectionExampleScenario.node[94].veinsmobility  co2emission  ETV
vector 17642  IntersectionExampleScenario.node[95].veinsmobility  posx  ETV
vector 17643  IntersectionExampleScenario.node[95].veinsmobility  posy  ETV
vector 17644  IntersectionExampleScenario.node[95].veinsmobility  speed  ETV
vector 17645  IntersectionExampleScenario.node[95].veinsmobility  acceleration  ETV
vector 17646  IntersectionExampleScenario.node[95].veinsmobility  co2emission  ETV
17457	2792034 9688 23392 32753 273 356 333 0.973 11.810082123732 700.28341282208 3129.396383322
17456	2801722 8779 23392 32753 273 356 333 -8.6831130981445 4 39.699392318726 515.42590499187
17455	2810501 8891 23363 32753 272.75 356 334 0 15.875 2055.3585252762 29321.037055712
17454	2819392 11709 23334 32753 272.5 356 335 214.94219970703 483.36395263672 148531.51327515 67486739.576065
17453	2831101 11655 23334 32753 272.5 356 335 486.85000610352 733.87629699707 171157.61286926 88576447.463218
17436	2842756 10898 23201 33232 271.25 359.5 354 0.973 10.916047529558 723.61393349687 2800.4223229569
17435	2853654 10358 23201 33232 271.25 359.5 354 -4.5 2.5 35.795072555542 481.49518009128
17434	2864012 10604 23176 33232 271 359.5 355 0 14.625 2183.2675072784 28370.498478897
17433	2874616 12440 23153 33232 270.75 359.5 356 184.17810058594 483.27062988281 152558.12658691 67880790.346474
17432	2887056 12455 23153 33232 270.75 359.5 356 486.85000610352 733.1593170166 181850.72087097 94084992.147733
17450	2899511 11187 23280 33364 272 360.5 355 0.973 11.54047740176 759.72299900372 3041.9942097755
17449	2910698 11040 23280 33364 272 360.5 355 -4.5 2.5000004768372 38.511121749878 497.13819611903
17448	2921738 11215 23253 33364 271.75 360.5 356 0 15.5 2309.4731450593 30788.951751617
17447	2932953 12377 23226 33364 271.5 360.5 357 161.1796875 734.38496398926 158509.44223022 75456363.903259
17446	2945330 12495 23226 33364 271.5 360.5 357 486.85000610352 486.85000610352 173805.45217896 84617185.454149
vector 17649  IntersectionExampleScenario.node[96].veinsmobility  posx  ETV
vector 17650  IntersectionExampleScenario.node[96].veinsmobility  posy  ETV
vector 17651  IntersectionExampleScenario.node[96].veinsmobility  speed  ETV
vector 17652  IntersectionExampleScenario.node[96].veinsmobility  acceleration  ETV
vector 17653  IntersectionExampleScenario.node[96].veinsmobility  co2emission  ETV
17499	2958226 8998 25624 33659 292.5 362.75 282 0.973 12.553400930962 683.12550815676 3329.9691375064
17498	2967224 9592 25624 33659 292.5 362.75 282 -3.818418264389 2.5000019073486 42.585248947144 367.56716444541
17497	2976816 9460 25595 33659 292.25 362.75 283 0 16.89999961853 2179.3982835375 29304.833193079
17496	2986276 9892 25566 33659 292 362.75 284 184.17810058594 483.23385620117 119236.69424438 51949154.455496
17495	2996168 9936 25566 33659 292 362.75 284 486.85000610352 731.19731140137 145932.02702332 76013172.29002
17520	3006104 7166 27109 33758 307.75 363.5 224 0.973 12.099024792222 606.95768633582 3131.0682782688
17519	3013270 7388 27109 33758 307.75 363.5 224 -3.7590284347534 2.5 41.566686630249 336.29161163245
17518	3020658 7627 27087 33758 307.5 363.5 225 0 16.27499961853 2214.2707717475 30123.766745804
17517	3028285 7844 27064 33758 307.25 363.5 226 184.17810058594 732.03146362305 100203.79785156 48426744.760688
17516	3036129 7911 27064 33758 307.25 363.5 226 486.85000610352 486.85003662109 110028.10140991 53567181.857831
[...]
vector 20190  IntersectionExampleScenario.node[459].veinsmobility  posx  ETV
vector 20191  IntersectionExampleScenario.node[459].veinsmobility  posy  ETV
vector 20192  IntersectionExampleScenario.node[459].veinsmobility  speed  ETV
vector 20193  IntersectionExampleScenario.node[459].veinsmobility  acceleration  ETV
vector 20194  IntersectionExampleScenario.node[459].veinsmobility  co2emission  ETV
20131	19019909 5954 173805 177672 1715.75 1758.25 171 0.973 11.200708441096 500.09164412275 2655.0365678005
20130	19025863 5870 173805 177672 1715.75 1758.25 171 -3.9371509552002 2.5 35.625318527222 260.71531242238
20129	19031733 6046 173776 177672 1715.5 1758.25 172 5.6500000953674 15.02499961853 2216.3373322487 29662.360613043
20128	19037779 6393 173747 177672 1715.25 1758.25 173 486.85000610352 735.26773071289 92918.762207031 50906863.434373
20127	19044172 6391 173747 177672 1715.25 1758.25 173 486.81475830078 792.02188110352 99260.579086304 58838389.988446
20138	19050563 5492 174352 177729 1721 1759 153 0.973 11.990504229548 516.57197485235 2993.6571652548
20137	19056055 5252 174352 177729 1721 1759 153 -4.5 2.5 39.869146347046 261.46795563744
20136	19061307 5438 174325 177729 1720.75 1759 154 5.6500000953674 16.125 2222.999548912 32800.931631817
20135	19066745 5734 174298 177729 1720.5 1759 155 486.85000610352 486.85000610352 75461.750946045 36738553.908664
20134	19072479 5677 174298 177729 1720.5 1759 155 235.7294921875 785.82187652588 80922.122901917 46348673.538107
vector 20197  IntersectionExampleScenario.node[460].veinsmobility  posx  ETV
vector 20198  IntersectionExampleScenario.node[460].veinsmobility  posy  ETV
vector 20199  IntersectionExampleScenario.node[460].veinsmobility  speed  ETV
vector 20200  IntersectionExampleScenario.node[460].veinsmobility  acceleration  ETV
vector 20201  IntersectionExampleScenario.node[460].veinsmobility  co2emission  ETV
20068	19078562 9066 172115 178114 1693.75 1764 282 0.973 11.648172402475 657.73697334096 2984.3400793422
20067	19087628 8365 172115 178114 1693.75 1764 282 -7.6570296287537 4 39.190130233765 486.73766724693
20066	19095993 8576 172100 178114 1693.5 1764 283 0 15.64999961853 2205.4970511198 31608.01579567
20065	19104569 10483 172085 178114 1693.25 1764 284 184.17810058594 731.7339630127 130202.78094482 63803334.885383
20064	19115052 10508 172085 178114 1693.25 1764 284 486.85000610352 486.85000610352 138265.4017334 67314511.67781
20117	19125560 7235 173518 178261 1713 1766 213 0.973 11.450879080643 560.87683666651 2768.4134897769
20116	19132795 7515 173518 178261 1713 1766 213 -3.8910024166107 2.5 36.98334312439 329.93473686731
20115	19140310 7679 173493 178261 1712.75 1766 214 0 15.375 2213.0087007172 28904.321444343
20114	19147989 7917 173468 178261 1712.5 1766 215 184.17810058594 486.86560058594 88545.464263916 38398837.883362
20113	19155906 7946 173468 178261 1712.5 1766 215 235.22857666016 486.85000610352 95980.471954346 43954990.835721
vector 20204  IntersectionExampleScenario.node[461].veinsmobility  posx  ETV
vector 20205  IntersectionExampleScenario.node[461].veinsmobility  posy  ETV
vector 20206  IntersectionExampleScenario.node[461].veinsmobility  speed  ETV
vector 20207  IntersectionExampleScenario.node[461].veinsmobility  acceleration  ETV
vector 20208  IntersectionExampleScenario.node[461].veinsmobility  co2emission  ETV
20152	19164258 5641 175440 178572 1731.5 1770.5 157 0.973 11.650503243776 503.88714399926 2850.9999443558
20151	19169899 5369 175440 178572 1731.5 1770.5 157 -3.4167747497559 2.5 38.511121749878 254.18899069084
20150	19175268 5558 175413 178572 1731.25 1770.5 158 5.6500000953674 15.65324306488 2207.4764862061 31776.672994429
20149	19180826 5859 175386 178572 1731 1770.5 159 184.17810058594 486.85000610352 63296.238067627 26971020.374459
20148	19186685 5867 175386 178572 1731 1770.5 159 236.99609375 486.85000610352 69030.123413086 30922207.770159
vector 20211  IntersectionExampleScenario.node[462].veinsmobility  posx  ETV
vector 20212  IntersectionExampleScenario.node[462].veinsmobility  posy  ETV
vector 20213  IntersectionExampleScenario.node[462].veinsmobility  speed  ETV
vector 20214  IntersectionExampleScenario.node[462].veinsmobility  acceleration  ETV
vector 20215  IntersectionExampleScenario.node[462].veinsmobility  co2emission  ETV
20159	19192958 5861 175551 178714 1732.5 1772.75 162 0.973 11.55874680388 515.5785877815 2851.3997259759
20158	19198819 5472 175551 178714 1732.5 1772.75 162 -4.5 2.5 38.001859664917 253.06518754035
20157	19204291 5804 175523 178714 1732.25 1772.75 163 5.6500000953674 15.525465011597 2307.1509189606 33300.623197968
20156	19210095 6039 175494 178714 1732 1772.75 164 162.00311279297 733.44367980957 71676.909332275 36030530.698111
20155	19216134 6068 175494 178714 1732 1772.75 164 486.85000610352 486.85000610352 79843.401000977 38871760.264651
vector 20218  IntersectionExampleScenario.node[463].veinsmobility  posx  ETV
vector 20219  IntersectionExampleScenario.node[463].veinsmobility  posy  ETV
vector 20220  IntersectionExampleScenario.node[463].veinsmobility  speed  ETV
vector 20221  IntersectionExampleScenario.node[463].veinsmobility  acceleration  ETV
vector 20222  IntersectionExampleScenario.node[463].veinsmobility  co2emission  ETV
vector 20225  IntersectionExampleScenario.node[464].veinsmobility  posx  ETV
vector 20226  IntersectionExampleScenario.node[464].veinsmobility  posy  ETV
vector 20232  IntersectionExampleScenario.node[465].veinsmobility  posx  ETV
vector 20233  IntersectionExampleScenario.node[465].veinsmobility  posy  ETV
vector 20227  IntersectionExampleScenario.node[464].veinsmobility  speed  ETV
vector 20228  IntersectionExampleScenario.node[464].veinsmobility  acceleration  ETV
vector 20229  IntersectionExampleScenario.node[464].veinsmobility  co2emission  ETV
vector 20234  IntersectionExampleScenario.node[465].veinsmobility  speed  ETV
vector 20235  IntersectionExampleScenario.node[465].veinsmobility  acceleration  ETV
vector 20236  IntersectionExampleScenario.node[465].veinsmobility  co2emission  ETV
20082	19223420 10161 172486 179299 1699.5 1780 323 0.973 11.648172402475 690.00952980001 3049.6988809974
20081	19233581 9188 172486 179299 1699.5 1780 323 -7.7750906944275 4 38.511121749878 476.52721114425
20080	19242769 9500 172467 179299 1699.25 1780 324 0 15.64999961853 2186.543571353 30924.021030557
20079	19252269 12017 172448 179299 1699 1780 325 483.14999389648 734.23628234863 165475.42449951 85447584.922486
20078	19264286 12001 172448 179299 1699 1780 325 184.17810058594 486.85000610352 141529.24151611 63839864.527847
vector 20239  IntersectionExampleScenario.node[466].veinsmobility  posx  ETV
vector 20240  IntersectionExampleScenario.node[466].veinsmobility  posy  ETV
vector 20241  IntersectionExampleScenario.node[466].veinsmobility  speed  ETV
vector 20242  IntersectionExampleScenario.node[466].veinsmobility  acceleration  ETV
vector 20243  IntersectionExampleScenario.node[466].veinsmobility  co2emission  ETV
20103	19276693 9706 173206 179413 1709.5 1781.25 288 0.973 11.648172402475 658.29227277307 3023.9086943369
20102	19286399 10013 173206 179413 1709.5 1781.25 288 -3.9484829902649 2.5 39.190130233765 348.74363869057
20101	19296412 10015 173185 179413 1709.25 1781.25 289 0 15.64999961853 2223.8700040812 30023.172869717
20100	19306427 10729 173164 179413 1709 1781.25 290 483.14999389648 483.14999389648 140113.49822998 67695835.81463
20099	19317156 10692 173164 179413 1709 1781.25 290 184.17810058594 735.19560241699 131740.78138733 64019553.569109
vector 20246  IntersectionExampleScenario.node[467].veinsmobility  posx  ETV
vector 20247  IntersectionExampleScenario.node[467].veinsmobility  posy  ETV
vector 20248  IntersectionExampleScenario.node[467].veinsmobility  speed  ETV
20145	19328083 7331 175311 179647 1730.25 1784 216 0.973 11.648172402475 574.25803997042 2904.87541798
20144	19335414 7508 175311 179647 1730.25 1784 216 -3.8721466064453 2.5000009536743 38.511121749878 336.24081875651
20143	19342922 7737 175286 179647 1730 1784 217 0 15.64999961853 2211.7061768323 29170.066356567
20142	19350659 8058 175261 179647 1729.75 1784 218 483.14999389648 733.54304504395 113743.3432312 60424863.943955
20141	19358717 8032 175261 179647 1729.75 1784 218 184.17810058594 486.85000610352 89695.828125 38799646.745234
vector 20249  IntersectionExampleScenario.node[467].veinsmobility  acceleration  ETV
vector 20250  IntersectionExampleScenario.node[467].veinsmobility  co2emission  ETV
vector 20253  IntersectionExampleScenario.node[468].veinsmobility  posx  ETV
vector 20254  IntersectionExampleScenario.node[468].veinsmobility  posy  ETV
vector 20255  IntersectionExampleScenario.node[468].veinsmobility  speed  ETV
vector 20256  IntersectionExampleScenario.node[468].veinsmobility  acceleration  ETV
vector 20257  IntersectionExampleScenario.node[468].veinsmobility  co2emission  ETV
20173	19367326 5382 176902 179843 1748.5 1786 151 0.973 12.099024792222 521.6431141897 3195.3566422531
20172	19372708 5119 176902 179843 1748.5 1786 151 -3.0960121154785 2.5 40.378400802612 257.25514084023
20171	19377827 5391 176882 179843 1748.25 1786 152 5.6500000953674 16.27499961853 2210.2308511734 32881.175494324
20170	19383218 5659 176861 179843 1748 1786 153 483.14999389648 483.14999389648 73921.949066162 35715389.240132
20169	19388877 5627 176861 179843 1748 1786 153 184.17810058594 731.38014221191 68308.978546143 34506831.575641
vector 20260  IntersectionExampleScenario.node[469].veinsmobility  posx  ETV
vector 20261  IntersectionExampleScenario.node[469].veinsmobility  posy  ETV
vector 20262  IntersectionExampleScenario.node[469].veinsmobility  speed  ETV
vector 20263  IntersectionExampleScenario.node[469].veinsmobility  acceleration  ETV
vector 20264  IntersectionExampleScenario.node[469].veinsmobility  co2emission  ETV
vector 20267  IntersectionExampleScenario.node[470].veinsmobility  posx  ETV
vector 20268  IntersectionExampleScenario.node[470].veinsmobility  posy  ETV
vector 20269  IntersectionExampleScenario.node[470].veinsmobility  speed  ETV
vector 20270  IntersectionExampleScenario.node[470].veinsmobility  acceleration  ETV
vector 20271  IntersectionExampleScenario.node[470].veinsmobility  co2emission  ETV
vector 20274  IntersectionExampleScenario.node[471].veinsmobility  posx  ETV
vector 20275  IntersectionExampleScenario.node[471].veinsmobility  posy  ETV
vector 20276  IntersectionExampleScenario.node[471].veinsmobility  speed  ETV
vector 20277  IntersectionExampleScenario.node[471].veinsmobility  acceleration  ETV
vector 20278  IntersectionExampleScenario.node[471].veinsmobility  co2emission  ETV
20124	19395722 10245 173747 180974 1715.25 1796.25 325 0.97223939240464 11.648172402475 695.97376922157 3085.164472937
20123	19405967 9197 173747 180974 1715.25 1796.25 325 -7.1630640029907 4 38.680875778198 475.21258299252
20122	19415164 9589 173720 180974 1715 1796.25 326 0 15.64999961853 2217.0010960102 31576.666777073
20121	19424753 12087 173693 180974 1714.75 1796.25 327 235.46472167969 785.82187652588 166518.42435455 88989215.435549
20120	19436840 12099 173693 180974 1714.75 1796.25 327 483.14999389648 483.14999389648 157990.04800415 76332890.728911
20166	19448939 6993 176747 181144 1746.5 1797.75 206 0.973 11.648172402475 562.49989006405 2892.2597947331
20165	19455932 7169 176747 181144 1746.5 1797.75 206 -3.7897484302521 2.5 38.171613693237 339.55287505892
20164	19463101 7433 176728 181144 1746.25 1797.75 207 0 15.64999961853 2211.0104701035 29347.919313412
20163	19470534 7676 176709 181144 1746 1797.75 208 483.01483154297 785.82187652588 116336.95592499 66967257.345542
20162	19478210 7694 176709 181144 1746 1797.75 208 483.14999389648 735.0700378418 109048.21806335 58255354.285929
20180	19485904 6320 177066 181388 1750.75 1800 198 0.973 11.450879080643 501.92374038716 2619.9220507267
20179	19492224 5652 177066 181388 1750.75 1800 198 -8.4870567321777 4 37.464002609253 478.31068611383
20178	19497876 5970 177047 181388 1750.5 1800 199 0 15.375 1451.5995867252 19393.633435717
20177	19503846 7399 177028 181388 1750.25 1800 200 424.14898681641 486.85000610352 96744.432678223 46820387.860898
20176	19511245 7388 177028 181388 1750.25 1800 200 483.14999389648 785.82187652588 112342.48821259 64956075.658289
20187	19518633 5967 177108 181388 1751.25 1800 196 0.973 11.648172402475 371.75236323017 1555.7784496636
20186	19524600 5524 177108 181388 1751.25 1800 196 -8.1522989273071 2.5 -22.60000038147 329.74756291986
20185	19530124 5725 177087 181388 1751 1800 197 0 15.64999961853 1146.7602202892 16297.046016688
20184	19535849 7301 177066 181388 1750.75 1800 198 184.17810058594 471.60000610352 80672.604003906 34651853.145668
20183	19543150 7325 177066 181388 1750.75 1800 198 486.85000610352 486.85000610352 96396.301208496 46930539.831713
20194	19550475 5929 177536 181388 1756.5 1800 175 0.973 11.200708441096 453.24723066027 2324.5257056197
20193	19556404 6251 177536 181388 1756.5 1800 175 -3.8665971755981 2.5000002384186 33.39999961853 340.30212963839
20192	19562655 6244 177515 181388 1756.25 1800 176 0 15.389802932739 1347.2748064119 16775.388337397
20191	19568899 6547 177494 181388 1756 1800 177 486.85000610352 524.27407836914 86468.97088623 42248808.375893
20190	19575446 6532 177494 181388 1756 1800 177 486.85000610352 785.82187652588 101589.51622772 59931652.935208
20201	19581978 4789 178094 181388 1763.75 1800 146 0.973 11.200708441096 302.32474942266 1333.7191253365
20200	19586767 5413 178094 181388 1763.75 1800 146 -3.820746421814 2.5 -21.983708322048 184.47608298784
20199	19592180 5413 178073 181388 1763.5 1800 147 0 15.02499961853 1121.5513707865 13844.682712351
20198	19597593 5448 178052 181388 1763.25 1800 148 184.17810058594 464.72744750977 55759.082855225 22357121.28418
20197	19603041 5476 178052 181388 1763.25 1800 148 486.85000610352 486.85000610352 72053.80090332 35079393.409563
20208	19608517 4194 178384 181388 1767.75 1800 130 0.973 11.648172402475 304.19841764437 1479.9114488582
20207	19612711 4056 178384 181388 1767.75 1800 130 -7.0929417610168 2.5 -22.60000038147 322.24078740908
20206	19616767 4229 178365 181388 1767.5 1800 131 0 15.64999961853 1147.3596698046 16111.715776408
20205	19620996 4884 178346 181388 1767.25 1800 132 483.14999389648 483.14999389648 63775.799194336 30813276.991487
20204	19625880 4858 178346 181388 1767.25 1800 132 184.17810058594 471.60000610352 49424.121520996 19877644.368727
20215	19630738 3539 178697 181388 1772.5 1800 111 0.973 11.200708441096 255.37314651864 1261.8137158681
20214	19634277 4053 178697 181388 1772.5 1800 111 -2.088809967041 2.5 -16.993495464325 159.49365054814
20213	19638330 4127 178680 181388 1772.25 1800 112 1.4016262292862 15.02499961853 1082.7034757137 12979.335939668
20212	19642457 4158 178663 181388 1772 1800 113 184.17810058594 454.67932128906 39052.288574219 14426294.596527
20211	19646615 4179 178663 181388 1772 1800 113 486.85000610352 486.85000610352 55014.050689697 26783590.914058
20222	19650794 3295 178854 181388 1774.75 1800 102 0.973 11.648172402475 262.70623816584 1410.383941173
20221	19654089 3801 178854 181388 1774.75 1800 102 -2.5126838684082 2.5 -15.832130432129 179.93973360121
20220	19657890 3792 178835 181388 1774.5 1800 103 1.6919674873352 15.64999961853 1107.1149675846 14509.217271787
20219	19661682 3848 178816 181388 1774.25 1800 104 483.14999389648 483.14999389648 50247.599365234 24277127.326626
20218	19665530 3821 178816 181388 1774.25 1800 104 184.17810058594 460.58480834961 35757.025939941 13213783.663377
20229	19669351 3214 179069 181388 1777.5 1800 91 0.973 11.200708441096 293.11982676487 1714.909858045
20228	19672565 3209 179069 181388 1777.5 1800 91 -3.6051597595215 2.5 13.39999961853 212.60188612069
20227	19675774 3294 179046 181388 1777.25 1800 92 5.6500000953674 15.02499961853 1207.5734119415 16376.050143697
20226	19679068 3438 179025 181388 1777 1800 93 482.98394775391 486.85000610352 45267.452484131 22033812.443615
20225	19682506 3430 179025 181388 1777 1800 93 487.79650878906 785.82187652588 59520.541343689 38908602.627804
20236	19685936 3189 179092 181388 1777.75 1800 90 0.973 11.518176060462 323.1577770424 1825.053450284
20235	19689125 3201 179092 181388 1777.75 1800 90 -4.5 2.5 21.39999961853 228.81872903
20234	19692326 3337 179069 181388 1777.5 1800 91 5.6500000953674 15.977263450623 1260.5476980209 18057.918648356
20233	19695663 3404 179046 181388 1777.25 1800 92 486.85000610352 486.85000610352 44790.200561523 21806109.416755
20232	19699067 3394 179046 181388 1777.25 1800 92 498.74569702148 810.23281097412 60873.961105347 41161652.040597
20243	19702461 2781 179390 181388 1781 1800 77 0.973 11.200708441096 248.69888750668 1317.1061504296
20242	19705242 2379 179390 181388 1781 1800 77 -2.9688911437988 2.5 20.179430007935 143.72554861762
20241	19707621 2871 179367 181388 1780.75 1800 78 5.6500000953674 15.02499961853 1081.8316297531 15431.670247604
20240	19710492 2916 179344 181388 1780.5 1800 79 518.83923339844 785.82187652588 52248.694892883 35098826.825161
20239	19713408 2922 179344 181388 1780.5 1800 79 483.14999389648 483.14999389648 38168.849517822 18441279.411572
20250	19716330 2361 179670 181388 1784.25 1800 64 1.9437757715463 11.200708441096 233.66624106901 1310.2287570951
20249	19718691 2265 179670 181388 1784.25 1800 64 -0.06561279296875 2.5 38.64723777771 94.177596946745
20248	19720956 2390 179647 181388 1784 1800 65 5.6500000953674 15.385828971863 915.88652610779 13337.212953906
20247	19723346 2437 179624 181388 1783.75 1800 66 573.20816040039 797.07032012939 45894.2032547 32233223.698308
20246	19725783 2441 179624 181388 1783.75 1800 66 483.14999389648 483.14999389648 31887.899597168 15406638.495743
20257	19728224 2248 179743 181388 1785 1800 61 1.3668015125806 12.099024792222 249.92185771848 1602.9189774965
20256	19730472 2084 179743 181388 1785 1800 61 -0.24025726318359 2.5 43.059019088745 107.74700108765
20255	19732556 2280 179718 181388 1784.75 1800 62 5.6500000953674 16.578994750977 916.84909248352 14118.805222085
20254	19734836 2330 179693 181388 1784.5 1800 63 486.85000610352 486.85000610352 30671.550384521 14932444.491909
20253	19737166 2320 179693 181388 1784.5 1800 63 562.05322265625 785.82187652588 43198.294883728 29928520.409002
20264	19739486 1500 180247 181388 1790 1800 41 0.973 11.648172402475 182.84536699522 1286.3627029547
20263	19740986 1420 180247 181388 1790 1800 41 -0.41465759277344 2.5 38.342607498169 100.393001657
20262	19742406 1540 180220 181388 1789.75 1800 42 5.6500000953674 15.64999961853 563.17653942108 7928.5444749105
20261	19743946 1590 180193 181388 1789.5 1800 43 483.14999389648 483.14999389648 20775.449737549 10037658.413893
20260	19745536 1565 180193 181388 1789.5 1800 43 184.17810058594 319.85699462891 10455.318481445 2621216.5348326
20271	19747101 1112 180521 181388 1792.5 1800 31 0.973 12.099024792222 169.76429664863 1377.2741917035
20270	19748213 975 180521 181388 1792.5 1800 31 -0.5 2.5 40.085485458374 107.04909576854
20269	19749188 1168 180492 181388 1792.25 1800 32 5.6500000953674 16.27499961853 418.48729324341 5846.4859618696
20268	19750356 1213 180463 181388 1792 1800 33 686.40200805664 785.82187652588 24566.849021912 18321578.105983
20267	19751569 1219 180463 181388 1792 1800 33 483.14999389648 483.14999389648 15943.949798584 7703319.2478717
20278	19752788 847 180757 181388 1794.5 1800 23 2.0947737808434 11.648172402475 149.33995366485 1221.3884978824
20277	19753635 687 180757 181388 1794.5 1800 23 -0.03271484375 2.5 39.886606216431 100.0023932027
20276	19754322 877 180726 181388 1794.25 1800 24 5.6500000953674 15.64999961853 290.45603179932 3797.5121047204
20275	19755199 906 180695 181388 1794 1800 25 184.17810058594 251.55963134766 5281.7982788086 1127137.5490555
20274	19756105 923 180695 181388 1794 1800 25 486.85000610352 486.85000610352 12171.250152588 5925573.2110748
16973	19757028 638 0 181387 0 1800 31 0 25 507 9025
16974	19757666 655 0 181387 0 1800 31 0 220 3471 529383
