version 2
run nodebug-42-20200606-20:39:07-18208
attr configname nodebug
attr datetime 20200606-20:39:07
attr experiment nodebug
attr inifile omnetpp.ini
attr iterationvars ""
attr iterationvars2 $repetition=42
attr measurement ""
attr network "\"org.car2x.veins.modules.application.ExtTraCIScenarioManagerLaunchd.IntersectionExampleScenario\""
attr processid 18208
attr repetition 42
attr replication #42
attr resultdir results
attr runnumber 42
attr seedset 42
param **.coreDebug false
param **.debug false
param *.**.nic.mac1609_4.bitrate 18Mbps
param *.**.nic.mac1609_4.txPower 20mW
param *.**.nic.mac1609_4.useServiceChannel false
param *.**.nic.phy80211p.analogueModels "xmldoc(\"config.xml\")"
param *.**.nic.phy80211p.decider "xmldoc(\"config.xml\")"
param *.**.nic.phy80211p.sensitivity -89dBm
param *.**.nic.phy80211p.thermalNoise -110dBm
param *.**.nic.phy80211p.usePropagationDelay true
param *.**.nic.phy80211p.useThermalNoise true
param *.annotations.draw false
param *.connectionManager.alpha 2.0
param *.connectionManager.carrierFrequency "5.890e9 Hz"
param *.connectionManager.pMax 20mW
param *.connectionManager.sat -89dBm
param *.connectionManager.sendDirect true
param *.manager.autoShutdown true
param *.manager.host "\"localhost\""
param *.manager.launchConfig "xmldoc(\"paramics.launchd.xml\")"
param *.manager.margin 25
param *.manager.moduleDisplayString "\"\""
param *.manager.moduleName "\"node\""
param *.manager.moduleType "\"org.car2x.veins.nodes.Car\""
param *.manager.port 9999
param *.manager.updateInterval 250ms
param *.node[*0].veinsmobility.accidentCount 0
param *.node[*0].veinsmobility.accidentDuration 30s
param *.node[*0].veinsmobility.accidentStart 75s
param *.node[*].appl.LiderSelectZoneRadio 55.0
param *.node[*].appl.ShareDataZoneRadio 110.0
param *.node[*].appl.TiempoSemaforo 30.0
param *.node[*].appl.beaconInterval 1s
param *.node[*].appl.beaconPriority 3
param *.node[*].appl.dataOnSch false
param *.node[*].appl.dataPriority 2
param *.node[*].appl.debug false
param *.node[*].appl.headerLength "256 bit"
param *.node[*].appl.maxOffset 0.005s
param *.node[*].appl.sendBeacons false
param *.node[*].appl.sendData true
param *.node[*].applType "\"Dummy\""
param *.node[*].mobilityType "\"TraCIMobility\""
param *.node[*].mobilityType.debug true
param *.node[*].veinsmobility.x 0
param *.node[*].veinsmobility.y 0
param *.node[*].veinsmobility.z 1.895
param *.node[*].veinsmobilityType "\"org.car2x.veins.modules.mobility.traci.TraCIMobility\""
param *.node[*].veinsmobilityType.debug true
param *.playgroundSizeX 8500m
param *.playgroundSizeY 8500m
param *.playgroundSizeZ 50m
param *.world.use2D false
param *.world.useTorus false

scalar IntersectionExampleScenario.node[0].appl 	VehicleRemoved 	0
scalar IntersectionExampleScenario.node[0].appl 	ArrivedAtDest 	1
scalar IntersectionExampleScenario.node[0].appl 	IntersectionEnterTime 	8.5
scalar IntersectionExampleScenario.node[0].appl 	IntersectionExitTime 	30.824832310784
scalar IntersectionExampleScenario.node[0].appl 	NumberOfCollisions 	0
scalar IntersectionExampleScenario.node[0].nic.phy80211p 	busyTime 	0
scalar IntersectionExampleScenario.node[0].nic.mac1609_4 	ReceivedUnicastPackets 	0
scalar IntersectionExampleScenario.node[0].nic.mac1609_4 	ReceivedBroadcasts 	0
scalar IntersectionExampleScenario.node[0].nic.mac1609_4 	SentPackets 	0
scalar IntersectionExampleScenario.node[0].nic.mac1609_4 	SNIRLostPackets 	0
scalar IntersectionExampleScenario.node[0].nic.mac1609_4 	RXTXLostPackets 	0
scalar IntersectionExampleScenario.node[0].nic.mac1609_4 	TotalLostPackets 	0
scalar IntersectionExampleScenario.node[0].nic.mac1609_4 	DroppedPacketsInMac 	0
scalar IntersectionExampleScenario.node[0].nic.mac1609_4 	TooLittleTime 	0
scalar IntersectionExampleScenario.node[0].nic.mac1609_4 	TimesIntoBackoff 	0
scalar IntersectionExampleScenario.node[0].nic.mac1609_4 	SlotsBackoff 	0
scalar IntersectionExampleScenario.node[0].nic.mac1609_4 	NumInternalContention 	0
scalar IntersectionExampleScenario.node[0].nic.mac1609_4 	totalBusyTime 	0
scalar IntersectionExampleScenario.node[0].veinsmobility 	startTime 	8.5
scalar IntersectionExampleScenario.node[0].veinsmobility 	totalTime 	37.75
scalar IntersectionExampleScenario.node[0].veinsmobility 	stopTime 	46.5
scalar IntersectionExampleScenario.node[0].veinsmobility 	minSpeed 	5.6500000953674
scalar IntersectionExampleScenario.node[0].veinsmobility 	maxSpeed 	16.27499961853
scalar IntersectionExampleScenario.node[0].veinsmobility 	totalDistance 	553.02073669434
scalar IntersectionExampleScenario.node[0].veinsmobility 	totalCO2Emission 	121.32312151946
scalar IntersectionExampleScenario.node[4].appl 	VehicleRemoved 	0
scalar IntersectionExampleScenario.node[4].appl 	ArrivedAtDest 	1
scalar IntersectionExampleScenario.node[4].appl 	IntersectionEnterTime 	16
scalar IntersectionExampleScenario.node[4].appl 	IntersectionExitTime 	39.036403642502
scalar IntersectionExampleScenario.node[4].appl 	NumberOfCollisions 	0
scalar IntersectionExampleScenario.node[4].nic.phy80211p 	busyTime 	0
scalar IntersectionExampleScenario.node[4].nic.mac1609_4 	ReceivedUnicastPackets 	0
scalar IntersectionExampleScenario.node[4].nic.mac1609_4 	ReceivedBroadcasts 	0
scalar IntersectionExampleScenario.node[4].nic.mac1609_4 	SentPackets 	0
scalar IntersectionExampleScenario.node[4].nic.mac1609_4 	SNIRLostPackets 	0
scalar IntersectionExampleScenario.node[4].nic.mac1609_4 	RXTXLostPackets 	0
scalar IntersectionExampleScenario.node[4].nic.mac1609_4 	TotalLostPackets 	0
scalar IntersectionExampleScenario.node[4].nic.mac1609_4 	DroppedPacketsInMac 	0
scalar IntersectionExampleScenario.node[4].nic.mac1609_4 	TooLittleTime 	0
scalar IntersectionExampleScenario.node[4].nic.mac1609_4 	TimesIntoBackoff 	0
scalar IntersectionExampleScenario.node[4].nic.mac1609_4 	SlotsBackoff 	0
scalar IntersectionExampleScenario.node[4].nic.mac1609_4 	NumInternalContention 	0
scalar IntersectionExampleScenario.node[4].nic.mac1609_4 	totalBusyTime 	0
scalar IntersectionExampleScenario.node[4].veinsmobility 	startTime 	16
scalar IntersectionExampleScenario.node[4].veinsmobility 	totalTime 	39.25
scalar IntersectionExampleScenario.node[4].veinsmobility 	stopTime 	55.5
scalar IntersectionExampleScenario.node[4].veinsmobility 	minSpeed 	5.6500000953674
scalar IntersectionExampleScenario.node[4].veinsmobility 	maxSpeed 	15.64999961853
scalar IntersectionExampleScenario.node[4].veinsmobility 	totalDistance 	550.36706326528
scalar IntersectionExampleScenario.node[4].veinsmobility 	totalCO2Emission 	123.47666246371
scalar IntersectionExampleScenario.node[8].appl 	VehicleRemoved 	0
scalar IntersectionExampleScenario.node[8].appl 	ArrivedAtDest 	1
scalar IntersectionExampleScenario.node[8].appl 	IntersectionEnterTime 	23.5
scalar IntersectionExampleScenario.node[8].appl 	IntersectionExitTime 	47.35104966865
scalar IntersectionExampleScenario.node[8].appl 	NumberOfCollisions 	0
scalar IntersectionExampleScenario.node[8].nic.phy80211p 	busyTime 	0
scalar IntersectionExampleScenario.node[8].nic.mac1609_4 	ReceivedUnicastPackets 	0
scalar IntersectionExampleScenario.node[8].nic.mac1609_4 	ReceivedBroadcasts 	0
scalar IntersectionExampleScenario.node[8].nic.mac1609_4 	SentPackets 	0
scalar IntersectionExampleScenario.node[8].nic.mac1609_4 	SNIRLostPackets 	0
scalar IntersectionExampleScenario.node[8].nic.mac1609_4 	RXTXLostPackets 	0
scalar IntersectionExampleScenario.node[8].nic.mac1609_4 	TotalLostPackets 	0
scalar IntersectionExampleScenario.node[8].nic.mac1609_4 	DroppedPacketsInMac 	0
scalar IntersectionExampleScenario.node[8].nic.mac1609_4 	TooLittleTime 	0
scalar IntersectionExampleScenario.node[8].nic.mac1609_4 	TimesIntoBackoff 	0
scalar IntersectionExampleScenario.node[8].nic.mac1609_4 	SlotsBackoff 	0
scalar IntersectionExampleScenario.node[8].nic.mac1609_4 	NumInternalContention 	0
scalar IntersectionExampleScenario.node[8].nic.mac1609_4 	totalBusyTime 	0
scalar IntersectionExampleScenario.node[8].veinsmobility 	startTime 	23.5
scalar IntersectionExampleScenario.node[8].veinsmobility 	totalTime 	40.75
scalar IntersectionExampleScenario.node[8].veinsmobility 	stopTime 	64.5
scalar IntersectionExampleScenario.node[8].veinsmobility 	minSpeed 	5.6500000953674
scalar IntersectionExampleScenario.node[8].veinsmobility 	maxSpeed 	15.25
scalar IntersectionExampleScenario.node[8].veinsmobility 	totalDistance 	545.97986314164
scalar IntersectionExampleScenario.node[8].veinsmobility 	totalCO2Emission 	124.9411878982
scalar IntersectionExampleScenario.node[2].appl 	VehicleRemoved 	0
scalar IntersectionExampleScenario.node[2].appl 	ArrivedAtDest 	1
scalar IntersectionExampleScenario.node[2].appl 	IntersectionEnterTime 	13.5
scalar IntersectionExampleScenario.node[2].appl 	IntersectionExitTime 	52.371238730877
scalar IntersectionExampleScenario.node[2].appl 	NumberOfCollisions 	0
scalar IntersectionExampleScenario.node[2].nic.phy80211p 	busyTime 	0
scalar IntersectionExampleScenario.node[2].nic.mac1609_4 	ReceivedUnicastPackets 	0
scalar IntersectionExampleScenario.node[2].nic.mac1609_4 	ReceivedBroadcasts 	0
scalar IntersectionExampleScenario.node[2].nic.mac1609_4 	SentPackets 	0
scalar IntersectionExampleScenario.node[2].nic.mac1609_4 	SNIRLostPackets 	0
scalar IntersectionExampleScenario.node[2].nic.mac1609_4 	RXTXLostPackets 	0
scalar IntersectionExampleScenario.node[2].nic.mac1609_4 	TotalLostPackets 	0
scalar IntersectionExampleScenario.node[2].nic.mac1609_4 	DroppedPacketsInMac 	0
scalar IntersectionExampleScenario.node[2].nic.mac1609_4 	TooLittleTime 	0
scalar IntersectionExampleScenario.node[2].nic.mac1609_4 	TimesIntoBackoff 	0
scalar IntersectionExampleScenario.node[2].nic.mac1609_4 	SlotsBackoff 	0
scalar IntersectionExampleScenario.node[2].nic.mac1609_4 	NumInternalContention 	0
scalar IntersectionExampleScenario.node[2].nic.mac1609_4 	totalBusyTime 	0
scalar IntersectionExampleScenario.node[2].veinsmobility 	startTime 	13.5
scalar IntersectionExampleScenario.node[2].veinsmobility 	totalTime 	55.75
scalar IntersectionExampleScenario.node[2].veinsmobility 	stopTime 	69.5
scalar IntersectionExampleScenario.node[2].veinsmobility 	minSpeed 	0
scalar IntersectionExampleScenario.node[2].veinsmobility 	maxSpeed 	14.75
scalar IntersectionExampleScenario.node[2].veinsmobility 	totalDistance 	554.11887359619
scalar IntersectionExampleScenario.node[2].veinsmobility 	totalCO2Emission 	141.26675825317
scalar IntersectionExampleScenario.node[6].appl 	VehicleRemoved 	0
scalar IntersectionExampleScenario.node[6].appl 	ArrivedAtDest 	1
scalar IntersectionExampleScenario.node[6].appl 	IntersectionEnterTime 	18.5
scalar IntersectionExampleScenario.node[6].appl 	IntersectionExitTime 	53.314279304526
scalar IntersectionExampleScenario.node[6].appl 	NumberOfCollisions 	0
scalar IntersectionExampleScenario.node[6].nic.phy80211p 	busyTime 	0
scalar IntersectionExampleScenario.node[6].nic.mac1609_4 	ReceivedUnicastPackets 	0
scalar IntersectionExampleScenario.node[6].nic.mac1609_4 	ReceivedBroadcasts 	0
scalar IntersectionExampleScenario.node[6].nic.mac1609_4 	SentPackets 	0
scalar IntersectionExampleScenario.node[6].nic.mac1609_4 	SNIRLostPackets 	0
scalar IntersectionExampleScenario.node[6].nic.mac1609_4 	RXTXLostPackets 	0
scalar IntersectionExampleScenario.node[6].nic.mac1609_4 	TotalLostPackets 	0
scalar IntersectionExampleScenario.node[6].nic.mac1609_4 	DroppedPacketsInMac 	0
scalar IntersectionExampleScenario.node[6].nic.mac1609_4 	TooLittleTime 	0
scalar IntersectionExampleScenario.node[6].nic.mac1609_4 	TimesIntoBackoff 	0
scalar IntersectionExampleScenario.node[6].nic.mac1609_4 	SlotsBackoff 	0
scalar IntersectionExampleScenario.node[6].nic.mac1609_4 	NumInternalContention 	0
scalar IntersectionExampleScenario.node[6].nic.mac1609_4 	totalBusyTime 	0
scalar IntersectionExampleScenario.node[6].veinsmobility 	startTime 	18.5
scalar IntersectionExampleScenario.node[6].veinsmobility 	totalTime 	51.25
scalar IntersectionExampleScenario.node[6].veinsmobility 	stopTime 	70
scalar IntersectionExampleScenario.node[6].veinsmobility 	minSpeed 	0
scalar IntersectionExampleScenario.node[6].veinsmobility 	maxSpeed 	15.875
scalar IntersectionExampleScenario.node[6].veinsmobility 	totalDistance 	543.9261548882
scalar IntersectionExampleScenario.node[6].veinsmobility 	totalCO2Emission 	142.41571092061
scalar IntersectionExampleScenario.node[7].appl 	VehicleRemoved 	0
scalar IntersectionExampleScenario.node[7].appl 	ArrivedAtDest 	1
scalar IntersectionExampleScenario.node[7].appl 	IntersectionEnterTime 	21
scalar IntersectionExampleScenario.node[7].appl 	IntersectionExitTime 	67.521315515623
scalar IntersectionExampleScenario.node[7].appl 	NumberOfCollisions 	0
scalar IntersectionExampleScenario.node[7].nic.phy80211p 	busyTime 	0
scalar IntersectionExampleScenario.node[7].nic.mac1609_4 	ReceivedUnicastPackets 	0
scalar IntersectionExampleScenario.node[7].nic.mac1609_4 	ReceivedBroadcasts 	0
scalar IntersectionExampleScenario.node[7].nic.mac1609_4 	SentPackets 	0
scalar IntersectionExampleScenario.node[7].nic.mac1609_4 	SNIRLostPackets 	0
scalar IntersectionExampleScenario.node[7].nic.mac1609_4 	RXTXLostPackets 	0
scalar IntersectionExampleScenario.node[7].nic.mac1609_4 	TotalLostPackets 	0
scalar IntersectionExampleScenario.node[7].nic.mac1609_4 	DroppedPacketsInMac 	0
scalar IntersectionExampleScenario.node[7].nic.mac1609_4 	TooLittleTime 	0
scalar IntersectionExampleScenario.node[7].nic.mac1609_4 	TimesIntoBackoff 	0
scalar IntersectionExampleScenario.node[7].nic.mac1609_4 	SlotsBackoff 	0
scalar IntersectionExampleScenario.node[7].nic.mac1609_4 	NumInternalContention 	0
scalar IntersectionExampleScenario.node[7].nic.mac1609_4 	totalBusyTime 	0
scalar IntersectionExampleScenario.node[7].veinsmobility 	startTime 	21
scalar IntersectionExampleScenario.node[7].veinsmobility 	totalTime 	63
scalar IntersectionExampleScenario.node[7].veinsmobility 	stopTime 	84.25
scalar IntersectionExampleScenario.node[7].veinsmobility 	minSpeed 	0
scalar IntersectionExampleScenario.node[7].veinsmobility 	maxSpeed 	15.875
scalar IntersectionExampleScenario.node[7].veinsmobility 	totalDistance 	545.34077359587
scalar IntersectionExampleScenario.node[7].veinsmobility 	totalCO2Emission 	157.55696828268
scalar IntersectionExampleScenario.node[12].appl 	VehicleRemoved 	0
scalar IntersectionExampleScenario.node[12].appl 	ArrivedAtDest 	1
scalar IntersectionExampleScenario.node[12].appl 	IntersectionEnterTime 	32.5
scalar IntersectionExampleScenario.node[12].appl 	IntersectionExitTime 	69.355285596597
scalar IntersectionExampleScenario.node[12].appl 	NumberOfCollisions 	0
scalar IntersectionExampleScenario.node[12].nic.phy80211p 	busyTime 	0
scalar IntersectionExampleScenario.node[12].nic.mac1609_4 	ReceivedUnicastPackets 	0
scalar IntersectionExampleScenario.node[12].nic.mac1609_4 	ReceivedBroadcasts 	0
scalar IntersectionExampleScenario.node[12].nic.mac1609_4 	SentPackets 	0
scalar IntersectionExampleScenario.node[12].nic.mac1609_4 	SNIRLostPackets 	0
scalar IntersectionExampleScenario.node[12].nic.mac1609_4 	RXTXLostPackets 	0
scalar IntersectionExampleScenario.node[12].nic.mac1609_4 	TotalLostPackets 	0
scalar IntersectionExampleScenario.node[12].nic.mac1609_4 	DroppedPacketsInMac 	0
scalar IntersectionExampleScenario.node[12].nic.mac1609_4 	TooLittleTime 	0
scalar IntersectionExampleScenario.node[12].nic.mac1609_4 	TimesIntoBackoff 	0
scalar IntersectionExampleScenario.node[12].nic.mac1609_4 	SlotsBackoff 	0
scalar IntersectionExampleScenario.node[12].nic.mac1609_4 	NumInternalContention 	0
scalar IntersectionExampleScenario.node[12].nic.mac1609_4 	totalBusyTime 	0
scalar IntersectionExampleScenario.node[12].veinsmobility 	startTime 	32.5
scalar IntersectionExampleScenario.node[12].veinsmobility 	totalTime 	52.25
scalar IntersectionExampleScenario.node[12].veinsmobility 	stopTime 	85
scalar IntersectionExampleScenario.node[12].veinsmobility 	minSpeed 	0
scalar IntersectionExampleScenario.node[12].veinsmobility 	maxSpeed 	16.27499961853
scalar IntersectionExampleScenario.node[12].veinsmobility 	totalDistance 	554.580909729
scalar IntersectionExampleScenario.node[12].veinsmobility 	totalCO2Emission 	147.35460986745
scalar IntersectionExampleScenario.node[14].appl 	VehicleRemoved 	0
scalar IntersectionExampleScenario.node[14].appl 	ArrivedAtDest 	1
scalar IntersectionExampleScenario.node[14].appl 	IntersectionEnterTime 	47
scalar IntersectionExampleScenario.node[14].appl 	IntersectionExitTime 	72.120146503585
scalar IntersectionExampleScenario.node[14].appl 	NumberOfCollisions 	0
scalar IntersectionExampleScenario.node[14].nic.phy80211p 	busyTime 	0
scalar IntersectionExampleScenario.node[14].nic.mac1609_4 	ReceivedUnicastPackets 	0
scalar IntersectionExampleScenario.node[14].nic.mac1609_4 	ReceivedBroadcasts 	0
scalar IntersectionExampleScenario.node[14].nic.mac1609_4 	SentPackets 	0
scalar IntersectionExampleScenario.node[14].nic.mac1609_4 	SNIRLostPackets 	0
scalar IntersectionExampleScenario.node[14].nic.mac1609_4 	RXTXLostPackets 	0
scalar IntersectionExampleScenario.node[14].nic.mac1609_4 	TotalLostPackets 	0
scalar IntersectionExampleScenario.node[14].nic.mac1609_4 	DroppedPacketsInMac 	0
scalar IntersectionExampleScenario.node[14].nic.mac1609_4 	TooLittleTime 	0
scalar IntersectionExampleScenario.node[14].nic.mac1609_4 	TimesIntoBackoff 	0
scalar IntersectionExampleScenario.node[14].nic.mac1609_4 	SlotsBackoff 	0
scalar IntersectionExampleScenario.node[14].nic.mac1609_4 	NumInternalContention 	0
scalar IntersectionExampleScenario.node[14].nic.mac1609_4 	totalBusyTime 	0
scalar IntersectionExampleScenario.node[14].veinsmobility 	startTime 	47
scalar IntersectionExampleScenario.node[14].veinsmobility 	totalTime 	42
scalar IntersectionExampleScenario.node[14].veinsmobility 	stopTime 	89.25
scalar IntersectionExampleScenario.node[14].veinsmobility 	minSpeed 	5.6500000953674
scalar IntersectionExampleScenario.node[14].veinsmobility 	maxSpeed 	15.02499961853
scalar IntersectionExampleScenario.node[14].veinsmobility 	totalDistance 	550.33431131135
scalar IntersectionExampleScenario.node[14].veinsmobility 	totalCO2Emission 	133.73357855543
scalar IntersectionExampleScenario.node[17].appl 	VehicleRemoved 	0
scalar IntersectionExampleScenario.node[17].appl 	ArrivedAtDest 	1
scalar IntersectionExampleScenario.node[17].appl 	IntersectionEnterTime 	56
scalar IntersectionExampleScenario.node[17].appl 	IntersectionExitTime 	79.049360189587
scalar IntersectionExampleScenario.node[17].appl 	NumberOfCollisions 	0
scalar IntersectionExampleScenario.node[17].nic.phy80211p 	busyTime 	0
scalar IntersectionExampleScenario.node[17].nic.mac1609_4 	ReceivedUnicastPackets 	0
scalar IntersectionExampleScenario.node[17].nic.mac1609_4 	ReceivedBroadcasts 	0
scalar IntersectionExampleScenario.node[17].nic.mac1609_4 	SentPackets 	0
scalar IntersectionExampleScenario.node[17].nic.mac1609_4 	SNIRLostPackets 	0
scalar IntersectionExampleScenario.node[17].nic.mac1609_4 	RXTXLostPackets 	0
scalar IntersectionExampleScenario.node[17].nic.mac1609_4 	TotalLostPackets 	0
scalar IntersectionExampleScenario.node[17].nic.mac1609_4 	DroppedPacketsInMac 	0
scalar IntersectionExampleScenario.node[17].nic.mac1609_4 	TooLittleTime 	0
scalar IntersectionExampleScenario.node[17].nic.mac1609_4 	TimesIntoBackoff 	0
scalar IntersectionExampleScenario.node[17].nic.mac1609_4 	SlotsBackoff 	0
scalar IntersectionExampleScenario.node[17].nic.mac1609_4 	NumInternalContention 	0
scalar IntersectionExampleScenario.node[17].nic.mac1609_4 	totalBusyTime 	0
scalar IntersectionExampleScenario.node[17].veinsmobility 	startTime 	56
scalar IntersectionExampleScenario.node[17].veinsmobility 	totalTime 	39.25
scalar IntersectionExampleScenario.node[17].veinsmobility 	stopTime 	95.5
scalar IntersectionExampleScenario.node[17].veinsmobility 	minSpeed 	5.6500000953674
scalar IntersectionExampleScenario.node[17].veinsmobility 	maxSpeed 	15.5
scalar IntersectionExampleScenario.node[17].veinsmobility 	totalDistance 	553.91965484619
scalar IntersectionExampleScenario.node[17].veinsmobility 	totalCO2Emission 	116.53995530166
scalar IntersectionExampleScenario.node[1].appl 	VehicleRemoved 	0
scalar IntersectionExampleScenario.node[1].appl 	ArrivedAtDest 	1
scalar IntersectionExampleScenario.node[1].appl 	IntersectionEnterTime 	10.5
scalar IntersectionExampleScenario.node[1].appl 	IntersectionExitTime 	83.60827201858
scalar IntersectionExampleScenario.node[1].appl 	NumberOfCollisions 	0
scalar IntersectionExampleScenario.node[1].nic.phy80211p 	busyTime 	0
scalar IntersectionExampleScenario.node[1].nic.mac1609_4 	ReceivedUnicastPackets 	0
scalar IntersectionExampleScenario.node[1].nic.mac1609_4 	ReceivedBroadcasts 	0
scalar IntersectionExampleScenario.node[1].nic.mac1609_4 	SentPackets 	0
scalar IntersectionExampleScenario.node[1].nic.mac1609_4 	SNIRLostPackets 	0
scalar IntersectionExampleScenario.node[1].nic.mac1609_4 	RXTXLostPackets 	0
scalar IntersectionExampleScenario.node[1].nic.mac1609_4 	TotalLostPackets 	0
scalar IntersectionExampleScenario.node[1].nic.mac1609_4 	DroppedPacketsInMac 	0
scalar IntersectionExampleScenario.node[1].nic.mac1609_4 	TooLittleTime 	0
scalar IntersectionExampleScenario.node[1].nic.mac1609_4 	TimesIntoBackoff 	0
scalar IntersectionExampleScenario.node[1].nic.mac1609_4 	SlotsBackoff 	0
scalar IntersectionExampleScenario.node[1].nic.mac1609_4 	NumInternalContention 	0
scalar IntersectionExampleScenario.node[1].nic.mac1609_4 	totalBusyTime 	0
scalar IntersectionExampleScenario.node[1].veinsmobility 	startTime 	10.5
scalar IntersectionExampleScenario.node[1].veinsmobility 	totalTime 	89.75
scalar IntersectionExampleScenario.node[1].veinsmobility 	stopTime 	100.5
scalar IntersectionExampleScenario.node[1].veinsmobility 	minSpeed 	0
scalar IntersectionExampleScenario.node[1].veinsmobility 	maxSpeed 	15.875
scalar IntersectionExampleScenario.node[1].veinsmobility 	totalDistance 	563.74193478972
scalar IntersectionExampleScenario.node[1].veinsmobility 	totalCO2Emission 	183.39023822803
scalar IntersectionExampleScenario.node[3].appl 	VehicleRemoved 	0
scalar IntersectionExampleScenario.node[3].appl 	ArrivedAtDest 	1
scalar IntersectionExampleScenario.node[3].appl 	IntersectionEnterTime 	15
scalar IntersectionExampleScenario.node[3].appl 	IntersectionExitTime 	85.272925563739
scalar IntersectionExampleScenario.node[3].appl 	NumberOfCollisions 	0
scalar IntersectionExampleScenario.node[3].nic.phy80211p 	busyTime 	0
scalar IntersectionExampleScenario.node[3].nic.mac1609_4 	ReceivedUnicastPackets 	0
scalar IntersectionExampleScenario.node[3].nic.mac1609_4 	ReceivedBroadcasts 	0
scalar IntersectionExampleScenario.node[3].nic.mac1609_4 	SentPackets 	0
scalar IntersectionExampleScenario.node[3].nic.mac1609_4 	SNIRLostPackets 	0
scalar IntersectionExampleScenario.node[3].nic.mac1609_4 	RXTXLostPackets 	0
scalar IntersectionExampleScenario.node[3].nic.mac1609_4 	TotalLostPackets 	0
scalar IntersectionExampleScenario.node[3].nic.mac1609_4 	DroppedPacketsInMac 	0
scalar IntersectionExampleScenario.node[3].nic.mac1609_4 	TooLittleTime 	0
scalar IntersectionExampleScenario.node[3].nic.mac1609_4 	TimesIntoBackoff 	0
scalar IntersectionExampleScenario.node[3].nic.mac1609_4 	SlotsBackoff 	0
scalar IntersectionExampleScenario.node[3].nic.mac1609_4 	NumInternalContention 	0
scalar IntersectionExampleScenario.node[3].nic.mac1609_4 	totalBusyTime 	0
scalar IntersectionExampleScenario.node[3].veinsmobility 	startTime 	15
scalar IntersectionExampleScenario.node[3].veinsmobility 	totalTime 	86.75
scalar IntersectionExampleScenario.node[3].veinsmobility 	stopTime 	102
scalar IntersectionExampleScenario.node[3].veinsmobility 	minSpeed 	0
scalar IntersectionExampleScenario.node[3].veinsmobility 	maxSpeed 	15.02499961853
scalar IntersectionExampleScenario.node[3].veinsmobility 	totalDistance 	564.19255065918
scalar IntersectionExampleScenario.node[3].veinsmobility 	totalCO2Emission 	176.58127632668
scalar IntersectionExampleScenario.node[5].appl 	VehicleRemoved 	0
scalar IntersectionExampleScenario.node[5].appl 	ArrivedAtDest 	1
scalar IntersectionExampleScenario.node[5].appl 	IntersectionEnterTime 	17.5
scalar IntersectionExampleScenario.node[5].appl 	IntersectionExitTime 	87.545795230631
scalar IntersectionExampleScenario.node[5].appl 	NumberOfCollisions 	0
scalar IntersectionExampleScenario.node[5].nic.phy80211p 	busyTime 	0
scalar IntersectionExampleScenario.node[5].nic.mac1609_4 	ReceivedUnicastPackets 	0
scalar IntersectionExampleScenario.node[5].nic.mac1609_4 	ReceivedBroadcasts 	0
scalar IntersectionExampleScenario.node[5].nic.mac1609_4 	SentPackets 	0
scalar IntersectionExampleScenario.node[5].nic.mac1609_4 	SNIRLostPackets 	0
scalar IntersectionExampleScenario.node[5].nic.mac1609_4 	RXTXLostPackets 	0
scalar IntersectionExampleScenario.node[5].nic.mac1609_4 	TotalLostPackets 	0
scalar IntersectionExampleScenario.node[5].nic.mac1609_4 	DroppedPacketsInMac 	0
scalar IntersectionExampleScenario.node[5].nic.mac1609_4 	TooLittleTime 	0
scalar IntersectionExampleScenario.node[5].nic.mac1609_4 	TimesIntoBackoff 	0
scalar IntersectionExampleScenario.node[5].nic.mac1609_4 	SlotsBackoff 	0
scalar IntersectionExampleScenario.node[5].nic.mac1609_4 	NumInternalContention 	0
scalar IntersectionExampleScenario.node[5].nic.mac1609_4 	totalBusyTime 	0
scalar IntersectionExampleScenario.node[5].veinsmobility 	startTime 	17.5
scalar IntersectionExampleScenario.node[5].veinsmobility 	totalTime 	86.25
scalar IntersectionExampleScenario.node[5].veinsmobility 	stopTime 	104
scalar IntersectionExampleScenario.node[5].veinsmobility 	minSpeed 	0
scalar IntersectionExampleScenario.node[5].veinsmobility 	maxSpeed 	15.375
scalar IntersectionExampleScenario.node[5].veinsmobility 	totalDistance 	570.60626024644
scalar IntersectionExampleScenario.node[5].veinsmobility 	totalCO2Emission 	179.84092693205
scalar IntersectionExampleScenario.node[9].appl 	VehicleRemoved 	0
scalar IntersectionExampleScenario.node[9].appl 	ArrivedAtDest 	1
scalar IntersectionExampleScenario.node[9].appl 	IntersectionEnterTime 	24
scalar IntersectionExampleScenario.node[9].appl 	IntersectionExitTime 	89.555019061489
scalar IntersectionExampleScenario.node[9].appl 	NumberOfCollisions 	0
scalar IntersectionExampleScenario.node[9].nic.phy80211p 	busyTime 	0
scalar IntersectionExampleScenario.node[9].nic.mac1609_4 	ReceivedUnicastPackets 	0
scalar IntersectionExampleScenario.node[9].nic.mac1609_4 	ReceivedBroadcasts 	0
scalar IntersectionExampleScenario.node[9].nic.mac1609_4 	SentPackets 	0
scalar IntersectionExampleScenario.node[9].nic.mac1609_4 	SNIRLostPackets 	0
scalar IntersectionExampleScenario.node[9].nic.mac1609_4 	RXTXLostPackets 	0
scalar IntersectionExampleScenario.node[9].nic.mac1609_4 	TotalLostPackets 	0
scalar IntersectionExampleScenario.node[9].nic.mac1609_4 	DroppedPacketsInMac 	0
scalar IntersectionExampleScenario.node[9].nic.mac1609_4 	TooLittleTime 	0
scalar IntersectionExampleScenario.node[9].nic.mac1609_4 	TimesIntoBackoff 	0
scalar IntersectionExampleScenario.node[9].nic.mac1609_4 	SlotsBackoff 	0
scalar IntersectionExampleScenario.node[9].nic.mac1609_4 	NumInternalContention 	0
scalar IntersectionExampleScenario.node[9].nic.mac1609_4 	totalBusyTime 	0
scalar IntersectionExampleScenario.node[9].veinsmobility 	startTime 	24
scalar IntersectionExampleScenario.node[9].veinsmobility 	totalTime 	82.5
scalar IntersectionExampleScenario.node[9].veinsmobility 	stopTime 	106.75
scalar IntersectionExampleScenario.node[9].veinsmobility 	minSpeed 	0
scalar IntersectionExampleScenario.node[9].veinsmobility 	maxSpeed 	14.875
scalar IntersectionExampleScenario.node[9].veinsmobility 	totalDistance 	554.58184814453
scalar IntersectionExampleScenario.node[9].veinsmobility 	totalCO2Emission 	164.3471103662
scalar IntersectionExampleScenario.node[10].appl 	VehicleRemoved 	0
scalar IntersectionExampleScenario.node[10].appl 	ArrivedAtDest 	1
scalar IntersectionExampleScenario.node[10].appl 	IntersectionEnterTime 	29.75
scalar IntersectionExampleScenario.node[10].appl 	IntersectionExitTime 	92.0216705809
scalar IntersectionExampleScenario.node[10].appl 	NumberOfCollisions 	0
scalar IntersectionExampleScenario.node[10].nic.phy80211p 	busyTime 	0
scalar IntersectionExampleScenario.node[10].nic.mac1609_4 	ReceivedUnicastPackets 	0
scalar IntersectionExampleScenario.node[10].nic.mac1609_4 	ReceivedBroadcasts 	0
scalar IntersectionExampleScenario.node[10].nic.mac1609_4 	SentPackets 	0
scalar IntersectionExampleScenario.node[10].nic.mac1609_4 	SNIRLostPackets 	0
scalar IntersectionExampleScenario.node[10].nic.mac1609_4 	RXTXLostPackets 	0
scalar IntersectionExampleScenario.node[10].nic.mac1609_4 	TotalLostPackets 	0
scalar IntersectionExampleScenario.node[10].nic.mac1609_4 	DroppedPacketsInMac 	0
scalar IntersectionExampleScenario.node[10].nic.mac1609_4 	TooLittleTime 	0
scalar IntersectionExampleScenario.node[10].nic.mac1609_4 	TimesIntoBackoff 	0
scalar IntersectionExampleScenario.node[10].nic.mac1609_4 	SlotsBackoff 	0
scalar IntersectionExampleScenario.node[10].nic.mac1609_4 	NumInternalContention 	0
scalar IntersectionExampleScenario.node[10].nic.mac1609_4 	totalBusyTime 	0
scalar IntersectionExampleScenario.node[10].veinsmobility 	startTime 	29.75
scalar IntersectionExampleScenario.node[10].veinsmobility 	totalTime 	78.75
scalar IntersectionExampleScenario.node[10].veinsmobility 	stopTime 	108.75
scalar IntersectionExampleScenario.node[10].veinsmobility 	minSpeed 	0
scalar IntersectionExampleScenario.node[10].veinsmobility 	maxSpeed 	15.375
scalar IntersectionExampleScenario.node[10].veinsmobility 	totalDistance 	548.90026723641
scalar IntersectionExampleScenario.node[10].veinsmobility 	totalCO2Emission 	167.71633900711
scalar IntersectionExampleScenario.node[13].appl 	VehicleRemoved 	0
scalar IntersectionExampleScenario.node[13].appl 	ArrivedAtDest 	1
scalar IntersectionExampleScenario.node[13].appl 	IntersectionEnterTime 	36.75
scalar IntersectionExampleScenario.node[13].appl 	IntersectionExitTime 	93.840908999497
scalar IntersectionExampleScenario.node[13].appl 	NumberOfCollisions 	0
scalar IntersectionExampleScenario.node[13].nic.phy80211p 	busyTime 	0
scalar IntersectionExampleScenario.node[13].nic.mac1609_4 	ReceivedUnicastPackets 	0
scalar IntersectionExampleScenario.node[13].nic.mac1609_4 	ReceivedBroadcasts 	0
scalar IntersectionExampleScenario.node[13].nic.mac1609_4 	SentPackets 	0
scalar IntersectionExampleScenario.node[13].nic.mac1609_4 	SNIRLostPackets 	0
scalar IntersectionExampleScenario.node[13].nic.mac1609_4 	RXTXLostPackets 	0
scalar IntersectionExampleScenario.node[13].nic.mac1609_4 	TotalLostPackets 	0
scalar IntersectionExampleScenario.node[13].nic.mac1609_4 	DroppedPacketsInMac 	0
scalar IntersectionExampleScenario.node[13].nic.mac1609_4 	TooLittleTime 	0
scalar IntersectionExampleScenario.node[13].nic.mac1609_4 	TimesIntoBackoff 	0
scalar IntersectionExampleScenario.node[13].nic.mac1609_4 	SlotsBackoff 	0
scalar IntersectionExampleScenario.node[13].nic.mac1609_4 	NumInternalContention 	0
scalar IntersectionExampleScenario.node[13].nic.mac1609_4 	totalBusyTime 	0
scalar IntersectionExampleScenario.node[13].veinsmobility 	startTime 	36.75
scalar IntersectionExampleScenario.node[13].veinsmobility 	totalTime 	72.75
scalar IntersectionExampleScenario.node[13].veinsmobility 	stopTime 	109.75
scalar IntersectionExampleScenario.node[13].veinsmobility 	minSpeed 	0
scalar IntersectionExampleScenario.node[13].veinsmobility 	maxSpeed 	16.459911346436
scalar IntersectionExampleScenario.node[13].veinsmobility 	totalDistance 	550.73425230545
scalar IntersectionExampleScenario.node[13].veinsmobility 	totalCO2Emission 	174.05317812172
scalar IntersectionExampleScenario.node[22].appl 	VehicleRemoved 	0
scalar IntersectionExampleScenario.node[22].appl 	ArrivedAtDest 	1
scalar IntersectionExampleScenario.node[22].appl 	IntersectionEnterTime 	68.25
scalar IntersectionExampleScenario.node[22].appl 	IntersectionExitTime 	95.764949279954
scalar IntersectionExampleScenario.node[22].appl 	NumberOfCollisions 	0
scalar IntersectionExampleScenario.node[22].nic.phy80211p 	busyTime 	0
scalar IntersectionExampleScenario.node[22].nic.mac1609_4 	ReceivedUnicastPackets 	0
scalar IntersectionExampleScenario.node[22].nic.mac1609_4 	ReceivedBroadcasts 	0
scalar IntersectionExampleScenario.node[22].nic.mac1609_4 	SentPackets 	0
scalar IntersectionExampleScenario.node[22].nic.mac1609_4 	SNIRLostPackets 	0
scalar IntersectionExampleScenario.node[22].nic.mac1609_4 	RXTXLostPackets 	0
scalar IntersectionExampleScenario.node[22].nic.mac1609_4 	TotalLostPackets 	0
scalar IntersectionExampleScenario.node[22].nic.mac1609_4 	DroppedPacketsInMac 	0
scalar IntersectionExampleScenario.node[22].nic.mac1609_4 	TooLittleTime 	0
scalar IntersectionExampleScenario.node[22].nic.mac1609_4 	TimesIntoBackoff 	0
scalar IntersectionExampleScenario.node[22].nic.mac1609_4 	SlotsBackoff 	0
scalar IntersectionExampleScenario.node[22].nic.mac1609_4 	NumInternalContention 	0
scalar IntersectionExampleScenario.node[22].nic.mac1609_4 	totalBusyTime 	0
scalar IntersectionExampleScenario.node[22].veinsmobility 	startTime 	68.25
scalar IntersectionExampleScenario.node[22].veinsmobility 	totalTime 	43.5
scalar IntersectionExampleScenario.node[22].veinsmobility 	stopTime 	112
scalar IntersectionExampleScenario.node[22].veinsmobility 	minSpeed 	5.6500000953674
scalar IntersectionExampleScenario.node[22].veinsmobility 	maxSpeed 	15.64999961853
scalar IntersectionExampleScenario.node[22].veinsmobility 	totalDistance 	552.72607421875
scalar IntersectionExampleScenario.node[22].veinsmobility 	totalCO2Emission 	140.16120878695
scalar IntersectionExampleScenario.node[11].appl 	VehicleRemoved 	0
scalar IntersectionExampleScenario.node[11].appl 	ArrivedAtDest 	1
scalar IntersectionExampleScenario.node[11].appl 	IntersectionEnterTime 	30.25
scalar IntersectionExampleScenario.node[11].appl 	IntersectionExitTime 	99.803144484671
scalar IntersectionExampleScenario.node[11].appl 	NumberOfCollisions 	0
scalar IntersectionExampleScenario.node[11].nic.phy80211p 	busyTime 	0
scalar IntersectionExampleScenario.node[11].nic.mac1609_4 	ReceivedUnicastPackets 	0
scalar IntersectionExampleScenario.node[11].nic.mac1609_4 	ReceivedBroadcasts 	0
scalar IntersectionExampleScenario.node[11].nic.mac1609_4 	SentPackets 	0
scalar IntersectionExampleScenario.node[11].nic.mac1609_4 	SNIRLostPackets 	0
scalar IntersectionExampleScenario.node[11].nic.mac1609_4 	RXTXLostPackets 	0
scalar IntersectionExampleScenario.node[11].nic.mac1609_4 	TotalLostPackets 	0
scalar IntersectionExampleScenario.node[11].nic.mac1609_4 	DroppedPacketsInMac 	0
scalar IntersectionExampleScenario.node[11].nic.mac1609_4 	TooLittleTime 	0
scalar IntersectionExampleScenario.node[11].nic.mac1609_4 	TimesIntoBackoff 	0
scalar IntersectionExampleScenario.node[11].nic.mac1609_4 	SlotsBackoff 	0
scalar IntersectionExampleScenario.node[11].nic.mac1609_4 	NumInternalContention 	0
scalar IntersectionExampleScenario.node[11].nic.mac1609_4 	totalBusyTime 	0
scalar IntersectionExampleScenario.node[11].veinsmobility 	startTime 	30.25
scalar IntersectionExampleScenario.node[11].veinsmobility 	totalTime 	85.75
scalar IntersectionExampleScenario.node[11].veinsmobility 	stopTime 	116.25
scalar IntersectionExampleScenario.node[11].veinsmobility 	minSpeed 	0
scalar IntersectionExampleScenario.node[11].veinsmobility 	maxSpeed 	15.391644477844
scalar IntersectionExampleScenario.node[11].veinsmobility 	totalDistance 	551.43346529436
scalar IntersectionExampleScenario.node[11].veinsmobility 	totalCO2Emission 	177.73200280766
scalar IntersectionExampleScenario.node[18].appl 	VehicleRemoved 	0
scalar IntersectionExampleScenario.node[18].appl 	ArrivedAtDest 	1
scalar IntersectionExampleScenario.node[18].appl 	IntersectionEnterTime 	57.75
scalar IntersectionExampleScenario.node[18].appl 	IntersectionExitTime 	101.08891774362
scalar IntersectionExampleScenario.node[18].appl 	NumberOfCollisions 	0
scalar IntersectionExampleScenario.node[18].nic.phy80211p 	busyTime 	0
scalar IntersectionExampleScenario.node[18].nic.mac1609_4 	ReceivedUnicastPackets 	0
scalar IntersectionExampleScenario.node[18].nic.mac1609_4 	ReceivedBroadcasts 	0
scalar IntersectionExampleScenario.node[18].nic.mac1609_4 	SentPackets 	0
scalar IntersectionExampleScenario.node[18].nic.mac1609_4 	SNIRLostPackets 	0
scalar IntersectionExampleScenario.node[18].nic.mac1609_4 	RXTXLostPackets 	0
scalar IntersectionExampleScenario.node[18].nic.mac1609_4 	TotalLostPackets 	0
scalar IntersectionExampleScenario.node[18].nic.mac1609_4 	DroppedPacketsInMac 	0
scalar IntersectionExampleScenario.node[18].nic.mac1609_4 	TooLittleTime 	0
scalar IntersectionExampleScenario.node[18].nic.mac1609_4 	TimesIntoBackoff 	0
scalar IntersectionExampleScenario.node[18].nic.mac1609_4 	SlotsBackoff 	0
scalar IntersectionExampleScenario.node[18].nic.mac1609_4 	NumInternalContention 	0
scalar IntersectionExampleScenario.node[18].nic.mac1609_4 	totalBusyTime 	0
scalar IntersectionExampleScenario.node[18].veinsmobility 	startTime 	57.75
scalar IntersectionExampleScenario.node[18].veinsmobility 	totalTime 	60.25
scalar IntersectionExampleScenario.node[18].veinsmobility 	stopTime 	118.25
scalar IntersectionExampleScenario.node[18].veinsmobility 	minSpeed 	0
scalar IntersectionExampleScenario.node[18].veinsmobility 	maxSpeed 	15.25
scalar IntersectionExampleScenario.node[18].veinsmobility 	totalDistance 	544.06076639343
scalar IntersectionExampleScenario.node[18].veinsmobility 	totalCO2Emission 	146.8780841539
scalar IntersectionExampleScenario.node[19].appl 	VehicleRemoved 	0
scalar IntersectionExampleScenario.node[19].appl 	ArrivedAtDest 	1
scalar IntersectionExampleScenario.node[19].appl 	IntersectionEnterTime 	59.5
scalar IntersectionExampleScenario.node[19].appl 	IntersectionExitTime 	103.58138462881
scalar IntersectionExampleScenario.node[19].appl 	NumberOfCollisions 	0
scalar IntersectionExampleScenario.node[19].nic.phy80211p 	busyTime 	0
scalar IntersectionExampleScenario.node[19].nic.mac1609_4 	ReceivedUnicastPackets 	0
scalar IntersectionExampleScenario.node[19].nic.mac1609_4 	ReceivedBroadcasts 	0
scalar IntersectionExampleScenario.node[19].nic.mac1609_4 	SentPackets 	0
scalar IntersectionExampleScenario.node[19].nic.mac1609_4 	SNIRLostPackets 	0
scalar IntersectionExampleScenario.node[19].nic.mac1609_4 	RXTXLostPackets 	0
scalar IntersectionExampleScenario.node[19].nic.mac1609_4 	TotalLostPackets 	0
scalar IntersectionExampleScenario.node[19].nic.mac1609_4 	DroppedPacketsInMac 	0
scalar IntersectionExampleScenario.node[19].nic.mac1609_4 	TooLittleTime 	0
scalar IntersectionExampleScenario.node[19].nic.mac1609_4 	TimesIntoBackoff 	0
scalar IntersectionExampleScenario.node[19].nic.mac1609_4 	SlotsBackoff 	0
scalar IntersectionExampleScenario.node[19].nic.mac1609_4 	NumInternalContention 	0
scalar IntersectionExampleScenario.node[19].nic.mac1609_4 	totalBusyTime 	0
scalar IntersectionExampleScenario.node[19].veinsmobility 	startTime 	59.5
scalar IntersectionExampleScenario.node[19].veinsmobility 	totalTime 	60.25
scalar IntersectionExampleScenario.node[19].veinsmobility 	stopTime 	120
scalar IntersectionExampleScenario.node[19].veinsmobility 	minSpeed 	0
scalar IntersectionExampleScenario.node[19].veinsmobility 	maxSpeed 	15.375
scalar IntersectionExampleScenario.node[19].veinsmobility 	totalDistance 	568.68552622472
scalar IntersectionExampleScenario.node[19].veinsmobility 	totalCO2Emission 	153.16842082187
scalar IntersectionExampleScenario.node[24].appl 	VehicleRemoved 	0
scalar IntersectionExampleScenario.node[24].appl 	ArrivedAtDest 	1
scalar IntersectionExampleScenario.node[24].appl 	IntersectionEnterTime 	70
scalar IntersectionExampleScenario.node[24].appl 	IntersectionExitTime 	106.0031773907
scalar IntersectionExampleScenario.node[24].appl 	NumberOfCollisions 	0
scalar IntersectionExampleScenario.node[24].nic.phy80211p 	busyTime 	0
scalar IntersectionExampleScenario.node[24].nic.mac1609_4 	ReceivedUnicastPackets 	0
scalar IntersectionExampleScenario.node[24].nic.mac1609_4 	ReceivedBroadcasts 	0
scalar IntersectionExampleScenario.node[24].nic.mac1609_4 	SentPackets 	0
scalar IntersectionExampleScenario.node[24].nic.mac1609_4 	SNIRLostPackets 	0
scalar IntersectionExampleScenario.node[24].nic.mac1609_4 	RXTXLostPackets 	0
scalar IntersectionExampleScenario.node[24].nic.mac1609_4 	TotalLostPackets 	0
scalar IntersectionExampleScenario.node[24].nic.mac1609_4 	DroppedPacketsInMac 	0
scalar IntersectionExampleScenario.node[24].nic.mac1609_4 	TooLittleTime 	0
scalar IntersectionExampleScenario.node[24].nic.mac1609_4 	TimesIntoBackoff 	0
scalar IntersectionExampleScenario.node[24].nic.mac1609_4 	SlotsBackoff 	0
scalar IntersectionExampleScenario.node[24].nic.mac1609_4 	NumInternalContention 	0
scalar IntersectionExampleScenario.node[24].nic.mac1609_4 	totalBusyTime 	0
scalar IntersectionExampleScenario.node[24].veinsmobility 	startTime 	70
scalar IntersectionExampleScenario.node[24].veinsmobility 	totalTime 	52.5
scalar IntersectionExampleScenario.node[24].veinsmobility 	stopTime 	122.75
scalar IntersectionExampleScenario.node[24].veinsmobility 	minSpeed 	0
scalar IntersectionExampleScenario.node[24].veinsmobility 	maxSpeed 	15.375
scalar IntersectionExampleScenario.node[24].veinsmobility 	totalDistance 	549.71565394867
scalar IntersectionExampleScenario.node[24].veinsmobility 	totalCO2Emission 	135.12864168421
scalar IntersectionExampleScenario.node[28].appl 	VehicleRemoved 	0
scalar IntersectionExampleScenario.node[28].appl 	ArrivedAtDest 	1
scalar IntersectionExampleScenario.node[28].appl 	IntersectionEnterTime 	82
scalar IntersectionExampleScenario.node[28].appl 	IntersectionExitTime 	108.82917547016
scalar IntersectionExampleScenario.node[28].appl 	NumberOfCollisions 	0
scalar IntersectionExampleScenario.node[28].nic.phy80211p 	busyTime 	0
scalar IntersectionExampleScenario.node[28].nic.mac1609_4 	ReceivedUnicastPackets 	0
scalar IntersectionExampleScenario.node[28].nic.mac1609_4 	ReceivedBroadcasts 	0
scalar IntersectionExampleScenario.node[28].nic.mac1609_4 	SentPackets 	0
scalar IntersectionExampleScenario.node[28].nic.mac1609_4 	SNIRLostPackets 	0
scalar IntersectionExampleScenario.node[28].nic.mac1609_4 	RXTXLostPackets 	0
scalar IntersectionExampleScenario.node[28].nic.mac1609_4 	TotalLostPackets 	0
scalar IntersectionExampleScenario.node[28].nic.mac1609_4 	DroppedPacketsInMac 	0
scalar IntersectionExampleScenario.node[28].nic.mac1609_4 	TooLittleTime 	0
scalar IntersectionExampleScenario.node[28].nic.mac1609_4 	TimesIntoBackoff 	0
scalar IntersectionExampleScenario.node[28].nic.mac1609_4 	SlotsBackoff 	0
scalar IntersectionExampleScenario.node[28].nic.mac1609_4 	NumInternalContention 	0
scalar IntersectionExampleScenario.node[28].nic.mac1609_4 	totalBusyTime 	0
scalar IntersectionExampleScenario.node[28].veinsmobility 	startTime 	82
scalar IntersectionExampleScenario.node[28].veinsmobility 	totalTime 	44
scalar IntersectionExampleScenario.node[28].veinsmobility 	stopTime 	126.25
scalar IntersectionExampleScenario.node[28].veinsmobility 	minSpeed 	5.6500000953674
scalar IntersectionExampleScenario.node[28].veinsmobility 	maxSpeed 	14.75
scalar IntersectionExampleScenario.node[28].veinsmobility 	totalDistance 	552.27901510652
scalar IntersectionExampleScenario.node[28].veinsmobility 	totalCO2Emission 	127.29179054436
scalar IntersectionExampleScenario.node[15].appl 	VehicleRemoved 	0
scalar IntersectionExampleScenario.node[15].appl 	ArrivedAtDest 	1
scalar IntersectionExampleScenario.node[15].appl 	IntersectionEnterTime 	49.75
scalar IntersectionExampleScenario.node[15].appl 	IntersectionExitTime 	116.32334389605
scalar IntersectionExampleScenario.node[15].appl 	NumberOfCollisions 	0
scalar IntersectionExampleScenario.node[15].nic.phy80211p 	busyTime 	0
scalar IntersectionExampleScenario.node[15].nic.mac1609_4 	ReceivedUnicastPackets 	0
scalar IntersectionExampleScenario.node[15].nic.mac1609_4 	ReceivedBroadcasts 	0
scalar IntersectionExampleScenario.node[15].nic.mac1609_4 	SentPackets 	0
scalar IntersectionExampleScenario.node[15].nic.mac1609_4 	SNIRLostPackets 	0
scalar IntersectionExampleScenario.node[15].nic.mac1609_4 	RXTXLostPackets 	0
scalar IntersectionExampleScenario.node[15].nic.mac1609_4 	TotalLostPackets 	0
scalar IntersectionExampleScenario.node[15].nic.mac1609_4 	DroppedPacketsInMac 	0
scalar IntersectionExampleScenario.node[15].nic.mac1609_4 	TooLittleTime 	0
scalar IntersectionExampleScenario.node[15].nic.mac1609_4 	TimesIntoBackoff 	0
scalar IntersectionExampleScenario.node[15].nic.mac1609_4 	SlotsBackoff 	0
scalar IntersectionExampleScenario.node[15].nic.mac1609_4 	NumInternalContention 	0
scalar IntersectionExampleScenario.node[15].nic.mac1609_4 	totalBusyTime 	0
scalar IntersectionExampleScenario.node[15].veinsmobility 	startTime 	49.75
scalar IntersectionExampleScenario.node[15].veinsmobility 	totalTime 	82.75
scalar IntersectionExampleScenario.node[15].veinsmobility 	stopTime 	132.75
scalar IntersectionExampleScenario.node[15].veinsmobility 	minSpeed 	0
scalar IntersectionExampleScenario.node[15].veinsmobility 	maxSpeed 	15.375
scalar IntersectionExampleScenario.node[15].veinsmobility 	totalDistance 	549.30346788516
scalar IntersectionExampleScenario.node[15].veinsmobility 	totalCO2Emission 	171.88550936613
scalar IntersectionExampleScenario.node[16].appl 	VehicleRemoved 	0
scalar IntersectionExampleScenario.node[16].appl 	ArrivedAtDest 	1
scalar IntersectionExampleScenario.node[16].appl 	IntersectionEnterTime 	52.5
scalar IntersectionExampleScenario.node[16].appl 	IntersectionExitTime 	117.03703418828
scalar IntersectionExampleScenario.node[16].appl 	NumberOfCollisions 	0
scalar IntersectionExampleScenario.node[16].nic.phy80211p 	busyTime 	0
scalar IntersectionExampleScenario.node[16].nic.mac1609_4 	ReceivedUnicastPackets 	0
scalar IntersectionExampleScenario.node[16].nic.mac1609_4 	ReceivedBroadcasts 	0
scalar IntersectionExampleScenario.node[16].nic.mac1609_4 	SentPackets 	0
scalar IntersectionExampleScenario.node[16].nic.mac1609_4 	SNIRLostPackets 	0
scalar IntersectionExampleScenario.node[16].nic.mac1609_4 	RXTXLostPackets 	0
scalar IntersectionExampleScenario.node[16].nic.mac1609_4 	TotalLostPackets 	0
scalar IntersectionExampleScenario.node[16].nic.mac1609_4 	DroppedPacketsInMac 	0
scalar IntersectionExampleScenario.node[16].nic.mac1609_4 	TooLittleTime 	0
scalar IntersectionExampleScenario.node[16].nic.mac1609_4 	TimesIntoBackoff 	0
scalar IntersectionExampleScenario.node[16].nic.mac1609_4 	SlotsBackoff 	0
scalar IntersectionExampleScenario.node[16].nic.mac1609_4 	NumInternalContention 	0
scalar IntersectionExampleScenario.node[16].nic.mac1609_4 	totalBusyTime 	0
scalar IntersectionExampleScenario.node[16].veinsmobility 	startTime 	52.5
scalar IntersectionExampleScenario.node[16].veinsmobility 	totalTime 	81.5
scalar IntersectionExampleScenario.node[16].veinsmobility 	stopTime 	134.25
scalar IntersectionExampleScenario.node[16].veinsmobility 	minSpeed 	0
scalar IntersectionExampleScenario.node[16].veinsmobility 	maxSpeed 	15.25
scalar IntersectionExampleScenario.node[16].veinsmobility 	totalDistance 	560.0073248308
scalar IntersectionExampleScenario.node[16].veinsmobility 	totalCO2Emission 	172.21011483571
scalar IntersectionExampleScenario.node[23].appl 	VehicleRemoved 	0
scalar IntersectionExampleScenario.node[23].appl 	ArrivedAtDest 	1
scalar IntersectionExampleScenario.node[23].appl 	IntersectionEnterTime 	69.75
scalar IntersectionExampleScenario.node[23].appl 	IntersectionExitTime 	119.59637089813
scalar IntersectionExampleScenario.node[23].appl 	NumberOfCollisions 	0
scalar IntersectionExampleScenario.node[23].nic.phy80211p 	busyTime 	0
scalar IntersectionExampleScenario.node[23].nic.mac1609_4 	ReceivedUnicastPackets 	0
scalar IntersectionExampleScenario.node[23].nic.mac1609_4 	ReceivedBroadcasts 	0
scalar IntersectionExampleScenario.node[23].nic.mac1609_4 	SentPackets 	0
scalar IntersectionExampleScenario.node[23].nic.mac1609_4 	SNIRLostPackets 	0
scalar IntersectionExampleScenario.node[23].nic.mac1609_4 	RXTXLostPackets 	0
scalar IntersectionExampleScenario.node[23].nic.mac1609_4 	TotalLostPackets 	0
scalar IntersectionExampleScenario.node[23].nic.mac1609_4 	DroppedPacketsInMac 	0
scalar IntersectionExampleScenario.node[23].nic.mac1609_4 	TooLittleTime 	0
scalar IntersectionExampleScenario.node[23].nic.mac1609_4 	TimesIntoBackoff 	0
scalar IntersectionExampleScenario.node[23].nic.mac1609_4 	SlotsBackoff 	0
scalar IntersectionExampleScenario.node[23].nic.mac1609_4 	NumInternalContention 	0
scalar IntersectionExampleScenario.node[23].nic.mac1609_4 	totalBusyTime 	0
scalar IntersectionExampleScenario.node[23].veinsmobility 	startTime 	69.75
scalar IntersectionExampleScenario.node[23].veinsmobility 	totalTime 	66.5
scalar IntersectionExampleScenario.node[23].veinsmobility 	stopTime 	136.5
scalar IntersectionExampleScenario.node[23].veinsmobility 	minSpeed 	0
scalar IntersectionExampleScenario.node[23].veinsmobility 	maxSpeed 	15.64999961853
scalar IntersectionExampleScenario.node[23].veinsmobility 	totalDistance 	545.35975605679
scalar IntersectionExampleScenario.node[23].veinsmobility 	totalCO2Emission 	156.60012081156
scalar IntersectionExampleScenario.node[25].appl 	VehicleRemoved 	0
scalar IntersectionExampleScenario.node[25].appl 	ArrivedAtDest 	1
scalar IntersectionExampleScenario.node[25].appl 	IntersectionEnterTime 	73.5
scalar IntersectionExampleScenario.node[25].appl 	IntersectionExitTime 	121.78929449766
scalar IntersectionExampleScenario.node[25].appl 	NumberOfCollisions 	0
scalar IntersectionExampleScenario.node[25].nic.phy80211p 	busyTime 	0
scalar IntersectionExampleScenario.node[25].nic.mac1609_4 	ReceivedUnicastPackets 	0
scalar IntersectionExampleScenario.node[25].nic.mac1609_4 	ReceivedBroadcasts 	0
scalar IntersectionExampleScenario.node[25].nic.mac1609_4 	SentPackets 	0
scalar IntersectionExampleScenario.node[25].nic.mac1609_4 	SNIRLostPackets 	0
scalar IntersectionExampleScenario.node[25].nic.mac1609_4 	RXTXLostPackets 	0
scalar IntersectionExampleScenario.node[25].nic.mac1609_4 	TotalLostPackets 	0
scalar IntersectionExampleScenario.node[25].nic.mac1609_4 	DroppedPacketsInMac 	0
scalar IntersectionExampleScenario.node[25].nic.mac1609_4 	TooLittleTime 	0
scalar IntersectionExampleScenario.node[25].nic.mac1609_4 	TimesIntoBackoff 	0
scalar IntersectionExampleScenario.node[25].nic.mac1609_4 	SlotsBackoff 	0
scalar IntersectionExampleScenario.node[25].nic.mac1609_4 	NumInternalContention 	0
scalar IntersectionExampleScenario.node[25].nic.mac1609_4 	totalBusyTime 	0
scalar IntersectionExampleScenario.node[25].veinsmobility 	startTime 	73.5
scalar IntersectionExampleScenario.node[25].veinsmobility 	totalTime 	64.5
scalar IntersectionExampleScenario.node[25].veinsmobility 	stopTime 	138.25
scalar IntersectionExampleScenario.node[25].veinsmobility 	minSpeed 	0
scalar IntersectionExampleScenario.node[25].veinsmobility 	maxSpeed 	15.5
scalar IntersectionExampleScenario.node[25].veinsmobility 	totalDistance 	560.79917144775
scalar IntersectionExampleScenario.node[25].veinsmobility 	totalCO2Emission 	152.80040639473
scalar IntersectionExampleScenario.node[29].appl 	VehicleRemoved 	0
scalar IntersectionExampleScenario.node[29].appl 	ArrivedAtDest 	1
scalar IntersectionExampleScenario.node[29].appl 	IntersectionEnterTime 	82.75
scalar IntersectionExampleScenario.node[29].appl 	IntersectionExitTime 	124.36156987483
scalar IntersectionExampleScenario.node[29].appl 	NumberOfCollisions 	0
scalar IntersectionExampleScenario.node[29].nic.phy80211p 	busyTime 	0
scalar IntersectionExampleScenario.node[29].nic.mac1609_4 	ReceivedUnicastPackets 	0
scalar IntersectionExampleScenario.node[29].nic.mac1609_4 	ReceivedBroadcasts 	0
scalar IntersectionExampleScenario.node[29].nic.mac1609_4 	SentPackets 	0
scalar IntersectionExampleScenario.node[29].nic.mac1609_4 	SNIRLostPackets 	0
scalar IntersectionExampleScenario.node[29].nic.mac1609_4 	RXTXLostPackets 	0
scalar IntersectionExampleScenario.node[29].nic.mac1609_4 	TotalLostPackets 	0
scalar IntersectionExampleScenario.node[29].nic.mac1609_4 	DroppedPacketsInMac 	0
scalar IntersectionExampleScenario.node[29].nic.mac1609_4 	TooLittleTime 	0
scalar IntersectionExampleScenario.node[29].nic.mac1609_4 	TimesIntoBackoff 	0
scalar IntersectionExampleScenario.node[29].nic.mac1609_4 	SlotsBackoff 	0
scalar IntersectionExampleScenario.node[29].nic.mac1609_4 	NumInternalContention 	0
scalar IntersectionExampleScenario.node[29].nic.mac1609_4 	totalBusyTime 	0
scalar IntersectionExampleScenario.node[29].veinsmobility 	startTime 	82.75
scalar IntersectionExampleScenario.node[29].veinsmobility 	totalTime 	58.25
scalar IntersectionExampleScenario.node[29].veinsmobility 	stopTime 	141.25
scalar IntersectionExampleScenario.node[29].veinsmobility 	minSpeed 	0
scalar IntersectionExampleScenario.node[29].veinsmobility 	maxSpeed 	15.875
scalar IntersectionExampleScenario.node[29].veinsmobility 	totalDistance 	546.27030464053
scalar IntersectionExampleScenario.node[29].veinsmobility 	totalCO2Emission 	147.84685739446
scalar IntersectionExampleScenario.node[32].appl 	VehicleRemoved 	0
scalar IntersectionExampleScenario.node[32].appl 	ArrivedAtDest 	1
scalar IntersectionExampleScenario.node[32].appl 	IntersectionEnterTime 	92.75
scalar IntersectionExampleScenario.node[32].appl 	IntersectionExitTime 	126.31676117779
scalar IntersectionExampleScenario.node[32].appl 	NumberOfCollisions 	0
scalar IntersectionExampleScenario.node[32].nic.phy80211p 	busyTime 	0
scalar IntersectionExampleScenario.node[32].nic.mac1609_4 	ReceivedUnicastPackets 	0
scalar IntersectionExampleScenario.node[32].nic.mac1609_4 	ReceivedBroadcasts 	0
scalar IntersectionExampleScenario.node[32].nic.mac1609_4 	SentPackets 	0
scalar IntersectionExampleScenario.node[32].nic.mac1609_4 	SNIRLostPackets 	0
scalar IntersectionExampleScenario.node[32].nic.mac1609_4 	RXTXLostPackets 	0
scalar IntersectionExampleScenario.node[32].nic.mac1609_4 	TotalLostPackets 	0
scalar IntersectionExampleScenario.node[32].nic.mac1609_4 	DroppedPacketsInMac 	0
scalar IntersectionExampleScenario.node[32].nic.mac1609_4 	TooLittleTime 	0
scalar IntersectionExampleScenario.node[32].nic.mac1609_4 	TimesIntoBackoff 	0
scalar IntersectionExampleScenario.node[32].nic.mac1609_4 	SlotsBackoff 	0
scalar IntersectionExampleScenario.node[32].nic.mac1609_4 	NumInternalContention 	0
scalar IntersectionExampleScenario.node[32].nic.mac1609_4 	totalBusyTime 	0
scalar IntersectionExampleScenario.node[32].veinsmobility 	startTime 	92.75
scalar IntersectionExampleScenario.node[32].veinsmobility 	totalTime 	50.25
scalar IntersectionExampleScenario.node[32].veinsmobility 	stopTime 	143.25
scalar IntersectionExampleScenario.node[32].veinsmobility 	minSpeed 	2.5568211078644
scalar IntersectionExampleScenario.node[32].veinsmobility 	maxSpeed 	15.375
scalar IntersectionExampleScenario.node[32].veinsmobility 	totalDistance 	552.59862938481
scalar IntersectionExampleScenario.node[32].veinsmobility 	totalCO2Emission 	140.30581983136
scalar IntersectionExampleScenario.node[34].appl 	VehicleRemoved 	0
scalar IntersectionExampleScenario.node[34].appl 	ArrivedAtDest 	1
scalar IntersectionExampleScenario.node[34].appl 	IntersectionEnterTime 	100.25
scalar IntersectionExampleScenario.node[34].appl 	IntersectionExitTime 	128.0504795216
scalar IntersectionExampleScenario.node[34].appl 	NumberOfCollisions 	0
scalar IntersectionExampleScenario.node[34].nic.phy80211p 	busyTime 	0
scalar IntersectionExampleScenario.node[34].nic.mac1609_4 	ReceivedUnicastPackets 	0
scalar IntersectionExampleScenario.node[34].nic.mac1609_4 	ReceivedBroadcasts 	0
scalar IntersectionExampleScenario.node[34].nic.mac1609_4 	SentPackets 	0
scalar IntersectionExampleScenario.node[34].nic.mac1609_4 	SNIRLostPackets 	0
scalar IntersectionExampleScenario.node[34].nic.mac1609_4 	RXTXLostPackets 	0
scalar IntersectionExampleScenario.node[34].nic.mac1609_4 	TotalLostPackets 	0
scalar IntersectionExampleScenario.node[34].nic.mac1609_4 	DroppedPacketsInMac 	0
scalar IntersectionExampleScenario.node[34].nic.mac1609_4 	TooLittleTime 	0
scalar IntersectionExampleScenario.node[34].nic.mac1609_4 	TimesIntoBackoff 	0
scalar IntersectionExampleScenario.node[34].nic.mac1609_4 	SlotsBackoff 	0
scalar IntersectionExampleScenario.node[34].nic.mac1609_4 	NumInternalContention 	0
scalar IntersectionExampleScenario.node[34].nic.mac1609_4 	totalBusyTime 	0
scalar IntersectionExampleScenario.node[34].veinsmobility 	startTime 	100.25
scalar IntersectionExampleScenario.node[34].veinsmobility 	totalTime 	44.25
scalar IntersectionExampleScenario.node[34].veinsmobility 	stopTime 	144.75
scalar IntersectionExampleScenario.node[34].veinsmobility 	minSpeed 	5.6500000953674
scalar IntersectionExampleScenario.node[34].veinsmobility 	maxSpeed 	15.02499961853
scalar IntersectionExampleScenario.node[34].veinsmobility 	totalDistance 	551.27640533447
scalar IntersectionExampleScenario.node[34].veinsmobility 	totalCO2Emission 	127.84402909085
scalar IntersectionExampleScenario.node[20].appl 	VehicleRemoved 	0
scalar IntersectionExampleScenario.node[20].appl 	ArrivedAtDest 	1
scalar IntersectionExampleScenario.node[20].appl 	IntersectionEnterTime 	62
scalar IntersectionExampleScenario.node[20].appl 	IntersectionExitTime 	132.29136225305
scalar IntersectionExampleScenario.node[20].appl 	NumberOfCollisions 	0
scalar IntersectionExampleScenario.node[20].nic.phy80211p 	busyTime 	0
scalar IntersectionExampleScenario.node[20].nic.mac1609_4 	ReceivedUnicastPackets 	0
scalar IntersectionExampleScenario.node[20].nic.mac1609_4 	ReceivedBroadcasts 	0
scalar IntersectionExampleScenario.node[20].nic.mac1609_4 	SentPackets 	0
scalar IntersectionExampleScenario.node[20].nic.mac1609_4 	SNIRLostPackets 	0
scalar IntersectionExampleScenario.node[20].nic.mac1609_4 	RXTXLostPackets 	0
scalar IntersectionExampleScenario.node[20].nic.mac1609_4 	TotalLostPackets 	0
scalar IntersectionExampleScenario.node[20].nic.mac1609_4 	DroppedPacketsInMac 	0
scalar IntersectionExampleScenario.node[20].nic.mac1609_4 	TooLittleTime 	0
scalar IntersectionExampleScenario.node[20].nic.mac1609_4 	TimesIntoBackoff 	0
scalar IntersectionExampleScenario.node[20].nic.mac1609_4 	SlotsBackoff 	0
scalar IntersectionExampleScenario.node[20].nic.mac1609_4 	NumInternalContention 	0
scalar IntersectionExampleScenario.node[20].nic.mac1609_4 	totalBusyTime 	0
scalar IntersectionExampleScenario.node[20].veinsmobility 	startTime 	62
scalar IntersectionExampleScenario.node[20].veinsmobility 	totalTime 	86.5
scalar IntersectionExampleScenario.node[20].veinsmobility 	stopTime 	148.75
scalar IntersectionExampleScenario.node[20].veinsmobility 	minSpeed 	0
scalar IntersectionExampleScenario.node[20].veinsmobility 	maxSpeed 	15.375
scalar IntersectionExampleScenario.node[20].veinsmobility 	totalDistance 	553.37906646729
scalar IntersectionExampleScenario.node[20].veinsmobility 	totalCO2Emission 	176.21310560234
scalar IntersectionExampleScenario.node[21].appl 	VehicleRemoved 	0
scalar IntersectionExampleScenario.node[21].appl 	ArrivedAtDest 	1
scalar IntersectionExampleScenario.node[21].appl 	IntersectionEnterTime 	68
scalar IntersectionExampleScenario.node[21].appl 	IntersectionExitTime 	135.0912007718
scalar IntersectionExampleScenario.node[21].appl 	NumberOfCollisions 	0
scalar IntersectionExampleScenario.node[21].nic.phy80211p 	busyTime 	0
scalar IntersectionExampleScenario.node[21].nic.mac1609_4 	ReceivedUnicastPackets 	0
scalar IntersectionExampleScenario.node[21].nic.mac1609_4 	ReceivedBroadcasts 	0
scalar IntersectionExampleScenario.node[21].nic.mac1609_4 	SentPackets 	0
scalar IntersectionExampleScenario.node[21].nic.mac1609_4 	SNIRLostPackets 	0
scalar IntersectionExampleScenario.node[21].nic.mac1609_4 	RXTXLostPackets 	0
scalar IntersectionExampleScenario.node[21].nic.mac1609_4 	TotalLostPackets 	0
scalar IntersectionExampleScenario.node[21].nic.mac1609_4 	DroppedPacketsInMac 	0
scalar IntersectionExampleScenario.node[21].nic.mac1609_4 	TooLittleTime 	0
scalar IntersectionExampleScenario.node[21].nic.mac1609_4 	TimesIntoBackoff 	0
scalar IntersectionExampleScenario.node[21].nic.mac1609_4 	SlotsBackoff 	0
scalar IntersectionExampleScenario.node[21].nic.mac1609_4 	NumInternalContention 	0
scalar IntersectionExampleScenario.node[21].nic.mac1609_4 	totalBusyTime 	0
scalar IntersectionExampleScenario.node[21].veinsmobility 	startTime 	68
scalar IntersectionExampleScenario.node[21].veinsmobility 	totalTime 	83.75
scalar IntersectionExampleScenario.node[21].veinsmobility 	stopTime 	152
scalar IntersectionExampleScenario.node[21].veinsmobility 	minSpeed 	0
scalar IntersectionExampleScenario.node[21].veinsmobility 	maxSpeed 	15.02499961853
scalar IntersectionExampleScenario.node[21].veinsmobility 	totalDistance 	553.22635650635
scalar IntersectionExampleScenario.node[21].veinsmobility 	totalCO2Emission 	168.33964054914
scalar IntersectionExampleScenario.node[26].appl 	VehicleRemoved 	0
scalar IntersectionExampleScenario.node[26].appl 	ArrivedAtDest 	1
scalar IntersectionExampleScenario.node[26].appl 	IntersectionEnterTime 	74.75
scalar IntersectionExampleScenario.node[26].appl 	IntersectionExitTime 	137.05129786523
scalar IntersectionExampleScenario.node[26].appl 	NumberOfCollisions 	0
scalar IntersectionExampleScenario.node[26].nic.phy80211p 	busyTime 	0
scalar IntersectionExampleScenario.node[26].nic.mac1609_4 	ReceivedUnicastPackets 	0
scalar IntersectionExampleScenario.node[26].nic.mac1609_4 	ReceivedBroadcasts 	0
scalar IntersectionExampleScenario.node[26].nic.mac1609_4 	SentPackets 	0
scalar IntersectionExampleScenario.node[26].nic.mac1609_4 	SNIRLostPackets 	0
scalar IntersectionExampleScenario.node[26].nic.mac1609_4 	RXTXLostPackets 	0
scalar IntersectionExampleScenario.node[26].nic.mac1609_4 	TotalLostPackets 	0
scalar IntersectionExampleScenario.node[26].nic.mac1609_4 	DroppedPacketsInMac 	0
scalar IntersectionExampleScenario.node[26].nic.mac1609_4 	TooLittleTime 	0
scalar IntersectionExampleScenario.node[26].nic.mac1609_4 	TimesIntoBackoff 	0
scalar IntersectionExampleScenario.node[26].nic.mac1609_4 	SlotsBackoff 	0
scalar IntersectionExampleScenario.node[26].nic.mac1609_4 	NumInternalContention 	0
scalar IntersectionExampleScenario.node[26].nic.mac1609_4 	totalBusyTime 	0
scalar IntersectionExampleScenario.node[26].veinsmobility 	startTime 	74.75
scalar IntersectionExampleScenario.node[26].veinsmobility 	totalTime 	78.5
scalar IntersectionExampleScenario.node[26].veinsmobility 	stopTime 	153.5
scalar IntersectionExampleScenario.node[26].veinsmobility 	minSpeed 	0
scalar IntersectionExampleScenario.node[26].veinsmobility 	maxSpeed 	15.875
scalar IntersectionExampleScenario.node[26].veinsmobility 	totalDistance 	544.3417432712
scalar IntersectionExampleScenario.node[26].veinsmobility 	totalCO2Emission 	172.62399970026
scalar IntersectionExampleScenario.node[27].appl 	VehicleRemoved 	0
scalar IntersectionExampleScenario.node[27].appl 	ArrivedAtDest 	1
scalar IntersectionExampleScenario.node[27].appl 	IntersectionEnterTime 	77.5
scalar IntersectionExampleScenario.node[27].appl 	IntersectionExitTime 	139.53621893172
scalar IntersectionExampleScenario.node[27].appl 	NumberOfCollisions 	0
scalar IntersectionExampleScenario.node[27].nic.phy80211p 	busyTime 	0
scalar IntersectionExampleScenario.node[27].nic.mac1609_4 	ReceivedUnicastPackets 	0
scalar IntersectionExampleScenario.node[27].nic.mac1609_4 	ReceivedBroadcasts 	0
scalar IntersectionExampleScenario.node[27].nic.mac1609_4 	SentPackets 	0
scalar IntersectionExampleScenario.node[27].nic.mac1609_4 	SNIRLostPackets 	0
scalar IntersectionExampleScenario.node[27].nic.mac1609_4 	RXTXLostPackets 	0
scalar IntersectionExampleScenario.node[27].nic.mac1609_4 	TotalLostPackets 	0
scalar IntersectionExampleScenario.node[27].nic.mac1609_4 	DroppedPacketsInMac 	0
scalar IntersectionExampleScenario.node[27].nic.mac1609_4 	TooLittleTime 	0
scalar IntersectionExampleScenario.node[27].nic.mac1609_4 	TimesIntoBackoff 	0
scalar IntersectionExampleScenario.node[27].nic.mac1609_4 	SlotsBackoff 	0
scalar IntersectionExampleScenario.node[27].nic.mac1609_4 	NumInternalContention 	0
scalar IntersectionExampleScenario.node[27].nic.mac1609_4 	totalBusyTime 	0
scalar IntersectionExampleScenario.node[27].veinsmobility 	startTime 	77.5
scalar IntersectionExampleScenario.node[27].veinsmobility 	totalTime 	78.25
scalar IntersectionExampleScenario.node[27].veinsmobility 	stopTime 	156
scalar IntersectionExampleScenario.node[27].veinsmobility 	minSpeed 	0
scalar IntersectionExampleScenario.node[27].veinsmobility 	maxSpeed 	15.64999961853
scalar IntersectionExampleScenario.node[27].veinsmobility 	totalDistance 	564.42614410316
scalar IntersectionExampleScenario.node[27].veinsmobility 	totalCO2Emission 	171.79021556586
scalar IntersectionExampleScenario.node[30].appl 	VehicleRemoved 	0
scalar IntersectionExampleScenario.node[30].appl 	ArrivedAtDest 	1
scalar IntersectionExampleScenario.node[30].appl 	IntersectionEnterTime 	83
scalar IntersectionExampleScenario.node[30].appl 	IntersectionExitTime 	141.29453723016
scalar IntersectionExampleScenario.node[30].appl 	NumberOfCollisions 	0
scalar IntersectionExampleScenario.node[30].nic.phy80211p 	busyTime 	0
scalar IntersectionExampleScenario.node[30].nic.mac1609_4 	ReceivedUnicastPackets 	0
scalar IntersectionExampleScenario.node[30].nic.mac1609_4 	ReceivedBroadcasts 	0
scalar IntersectionExampleScenario.node[30].nic.mac1609_4 	SentPackets 	0
scalar IntersectionExampleScenario.node[30].nic.mac1609_4 	SNIRLostPackets 	0
scalar IntersectionExampleScenario.node[30].nic.mac1609_4 	RXTXLostPackets 	0
scalar IntersectionExampleScenario.node[30].nic.mac1609_4 	TotalLostPackets 	0
scalar IntersectionExampleScenario.node[30].nic.mac1609_4 	DroppedPacketsInMac 	0
scalar IntersectionExampleScenario.node[30].nic.mac1609_4 	TooLittleTime 	0
scalar IntersectionExampleScenario.node[30].nic.mac1609_4 	TimesIntoBackoff 	0
scalar IntersectionExampleScenario.node[30].nic.mac1609_4 	SlotsBackoff 	0
scalar IntersectionExampleScenario.node[30].nic.mac1609_4 	NumInternalContention 	0
scalar IntersectionExampleScenario.node[30].nic.mac1609_4 	totalBusyTime 	0
scalar IntersectionExampleScenario.node[30].veinsmobility 	startTime 	83
scalar IntersectionExampleScenario.node[30].veinsmobility 	totalTime 	74.5
scalar IntersectionExampleScenario.node[30].veinsmobility 	stopTime 	157.75
scalar IntersectionExampleScenario.node[30].veinsmobility 	minSpeed 	0
scalar IntersectionExampleScenario.node[30].veinsmobility 	maxSpeed 	15.399747848511
scalar IntersectionExampleScenario.node[30].veinsmobility 	totalDistance 	553.45420074463
scalar IntersectionExampleScenario.node[30].veinsmobility 	totalCO2Emission 	167.91704857342
scalar IntersectionExampleScenario.node[37].appl 	VehicleRemoved 	0
scalar IntersectionExampleScenario.node[37].appl 	ArrivedAtDest 	1
scalar IntersectionExampleScenario.node[37].appl 	IntersectionEnterTime 	114.5
scalar IntersectionExampleScenario.node[37].appl 	IntersectionExitTime 	143.54313390606
scalar IntersectionExampleScenario.node[37].appl 	NumberOfCollisions 	0
scalar IntersectionExampleScenario.node[37].nic.phy80211p 	busyTime 	0
scalar IntersectionExampleScenario.node[37].nic.mac1609_4 	ReceivedUnicastPackets 	0
scalar IntersectionExampleScenario.node[37].nic.mac1609_4 	ReceivedBroadcasts 	0
scalar IntersectionExampleScenario.node[37].nic.mac1609_4 	SentPackets 	0
scalar IntersectionExampleScenario.node[37].nic.mac1609_4 	SNIRLostPackets 	0
scalar IntersectionExampleScenario.node[37].nic.mac1609_4 	RXTXLostPackets 	0
scalar IntersectionExampleScenario.node[37].nic.mac1609_4 	TotalLostPackets 	0
scalar IntersectionExampleScenario.node[37].nic.mac1609_4 	DroppedPacketsInMac 	0
scalar IntersectionExampleScenario.node[37].nic.mac1609_4 	TooLittleTime 	0
scalar IntersectionExampleScenario.node[37].nic.mac1609_4 	TimesIntoBackoff 	0
scalar IntersectionExampleScenario.node[37].nic.mac1609_4 	SlotsBackoff 	0
scalar IntersectionExampleScenario.node[37].nic.mac1609_4 	NumInternalContention 	0
scalar IntersectionExampleScenario.node[37].nic.mac1609_4 	totalBusyTime 	0
scalar IntersectionExampleScenario.node[37].veinsmobility 	startTime 	114.5
scalar IntersectionExampleScenario.node[37].veinsmobility 	totalTime 	45.5
scalar IntersectionExampleScenario.node[37].veinsmobility 	stopTime 	160.25
scalar IntersectionExampleScenario.node[37].veinsmobility 	minSpeed 	5.3219723701477
scalar IntersectionExampleScenario.node[37].veinsmobility 	maxSpeed 	15.02499961853
scalar IntersectionExampleScenario.node[37].veinsmobility 	totalDistance 	552.28659820557
scalar IntersectionExampleScenario.node[37].veinsmobility 	totalCO2Emission 	132.16165086387
scalar IntersectionExampleScenario.node[31].appl 	VehicleRemoved 	0
scalar IntersectionExampleScenario.node[31].appl 	ArrivedAtDest 	1
scalar IntersectionExampleScenario.node[31].appl 	IntersectionEnterTime 	87
scalar IntersectionExampleScenario.node[31].appl 	IntersectionExitTime 	148.25006504706
scalar IntersectionExampleScenario.node[31].appl 	NumberOfCollisions 	0
scalar IntersectionExampleScenario.node[31].nic.phy80211p 	busyTime 	0
scalar IntersectionExampleScenario.node[31].nic.mac1609_4 	ReceivedUnicastPackets 	0
scalar IntersectionExampleScenario.node[31].nic.mac1609_4 	ReceivedBroadcasts 	0
scalar IntersectionExampleScenario.node[31].nic.mac1609_4 	SentPackets 	0
scalar IntersectionExampleScenario.node[31].nic.mac1609_4 	SNIRLostPackets 	0
scalar IntersectionExampleScenario.node[31].nic.mac1609_4 	RXTXLostPackets 	0
scalar IntersectionExampleScenario.node[31].nic.mac1609_4 	TotalLostPackets 	0
scalar IntersectionExampleScenario.node[31].nic.mac1609_4 	DroppedPacketsInMac 	0
scalar IntersectionExampleScenario.node[31].nic.mac1609_4 	TooLittleTime 	0
scalar IntersectionExampleScenario.node[31].nic.mac1609_4 	TimesIntoBackoff 	0
scalar IntersectionExampleScenario.node[31].nic.mac1609_4 	SlotsBackoff 	0
scalar IntersectionExampleScenario.node[31].nic.mac1609_4 	NumInternalContention 	0
scalar IntersectionExampleScenario.node[31].nic.mac1609_4 	totalBusyTime 	0
scalar IntersectionExampleScenario.node[31].veinsmobility 	startTime 	87
scalar IntersectionExampleScenario.node[31].veinsmobility 	totalTime 	78
scalar IntersectionExampleScenario.node[31].veinsmobility 	stopTime 	165.25
scalar IntersectionExampleScenario.node[31].veinsmobility 	minSpeed 	0
scalar IntersectionExampleScenario.node[31].veinsmobility 	maxSpeed 	15.02499961853
scalar IntersectionExampleScenario.node[31].veinsmobility 	totalDistance 	554.82191467285
scalar IntersectionExampleScenario.node[31].veinsmobility 	totalCO2Emission 	165.90327232758
scalar IntersectionExampleScenario.node[36].appl 	VehicleRemoved 	0
scalar IntersectionExampleScenario.node[36].appl 	ArrivedAtDest 	1
scalar IntersectionExampleScenario.node[36].appl 	IntersectionEnterTime 	111
scalar IntersectionExampleScenario.node[36].appl 	IntersectionExitTime 	150.78334762697
scalar IntersectionExampleScenario.node[36].appl 	NumberOfCollisions 	0
scalar IntersectionExampleScenario.node[36].nic.phy80211p 	busyTime 	0
scalar IntersectionExampleScenario.node[36].nic.mac1609_4 	ReceivedUnicastPackets 	0
scalar IntersectionExampleScenario.node[36].nic.mac1609_4 	ReceivedBroadcasts 	0
scalar IntersectionExampleScenario.node[36].nic.mac1609_4 	SentPackets 	0
scalar IntersectionExampleScenario.node[36].nic.mac1609_4 	SNIRLostPackets 	0
scalar IntersectionExampleScenario.node[36].nic.mac1609_4 	RXTXLostPackets 	0
scalar IntersectionExampleScenario.node[36].nic.mac1609_4 	TotalLostPackets 	0
scalar IntersectionExampleScenario.node[36].nic.mac1609_4 	DroppedPacketsInMac 	0
scalar IntersectionExampleScenario.node[36].nic.mac1609_4 	TooLittleTime 	0
scalar IntersectionExampleScenario.node[36].nic.mac1609_4 	TimesIntoBackoff 	0
scalar IntersectionExampleScenario.node[36].nic.mac1609_4 	SlotsBackoff 	0
scalar IntersectionExampleScenario.node[36].nic.mac1609_4 	NumInternalContention 	0
scalar IntersectionExampleScenario.node[36].nic.mac1609_4 	totalBusyTime 	0
scalar IntersectionExampleScenario.node[36].veinsmobility 	startTime 	111
scalar IntersectionExampleScenario.node[36].veinsmobility 	totalTime 	56
scalar IntersectionExampleScenario.node[36].veinsmobility 	stopTime 	167.25
scalar IntersectionExampleScenario.node[36].veinsmobility 	minSpeed 	0
scalar IntersectionExampleScenario.node[36].veinsmobility 	maxSpeed 	15.02499961853
scalar IntersectionExampleScenario.node[36].veinsmobility 	totalDistance 	553.26048278809
scalar IntersectionExampleScenario.node[36].veinsmobility 	totalCO2Emission 	142.82278006227
scalar IntersectionExampleScenario.node[39].appl 	VehicleRemoved 	0
scalar IntersectionExampleScenario.node[39].appl 	ArrivedAtDest 	1
scalar IntersectionExampleScenario.node[39].appl 	IntersectionEnterTime 	130
scalar IntersectionExampleScenario.node[39].appl 	IntersectionExitTime 	153.54620680746
scalar IntersectionExampleScenario.node[39].appl 	NumberOfCollisions 	0
scalar IntersectionExampleScenario.node[39].nic.phy80211p 	busyTime 	0
scalar IntersectionExampleScenario.node[39].nic.mac1609_4 	ReceivedUnicastPackets 	0
scalar IntersectionExampleScenario.node[39].nic.mac1609_4 	ReceivedBroadcasts 	0
scalar IntersectionExampleScenario.node[39].nic.mac1609_4 	SentPackets 	0
scalar IntersectionExampleScenario.node[39].nic.mac1609_4 	SNIRLostPackets 	0
scalar IntersectionExampleScenario.node[39].nic.mac1609_4 	RXTXLostPackets 	0
scalar IntersectionExampleScenario.node[39].nic.mac1609_4 	TotalLostPackets 	0
scalar IntersectionExampleScenario.node[39].nic.mac1609_4 	DroppedPacketsInMac 	0
scalar IntersectionExampleScenario.node[39].nic.mac1609_4 	TooLittleTime 	0
scalar IntersectionExampleScenario.node[39].nic.mac1609_4 	TimesIntoBackoff 	0
scalar IntersectionExampleScenario.node[39].nic.mac1609_4 	SlotsBackoff 	0
scalar IntersectionExampleScenario.node[39].nic.mac1609_4 	NumInternalContention 	0
scalar IntersectionExampleScenario.node[39].nic.mac1609_4 	totalBusyTime 	0
scalar IntersectionExampleScenario.node[39].veinsmobility 	startTime 	130
scalar IntersectionExampleScenario.node[39].veinsmobility 	totalTime 	39.5
scalar IntersectionExampleScenario.node[39].veinsmobility 	stopTime 	169.75
scalar IntersectionExampleScenario.node[39].veinsmobility 	minSpeed 	5.6500000953674
scalar IntersectionExampleScenario.node[39].veinsmobility 	maxSpeed 	16.09351348877
scalar IntersectionExampleScenario.node[39].veinsmobility 	totalDistance 	549.27269462838
scalar IntersectionExampleScenario.node[39].veinsmobility 	totalCO2Emission 	140.40910449977
scalar IntersectionExampleScenario.node[33].appl 	VehicleRemoved 	0
scalar IntersectionExampleScenario.node[33].appl 	ArrivedAtDest 	1
scalar IntersectionExampleScenario.node[33].appl 	IntersectionEnterTime 	95.75
scalar IntersectionExampleScenario.node[33].appl 	IntersectionExitTime 	163.53051569007
scalar IntersectionExampleScenario.node[33].appl 	NumberOfCollisions 	0
scalar IntersectionExampleScenario.node[33].nic.phy80211p 	busyTime 	0
scalar IntersectionExampleScenario.node[33].nic.mac1609_4 	ReceivedUnicastPackets 	0
scalar IntersectionExampleScenario.node[33].nic.mac1609_4 	ReceivedBroadcasts 	0
scalar IntersectionExampleScenario.node[33].nic.mac1609_4 	SentPackets 	0
scalar IntersectionExampleScenario.node[33].nic.mac1609_4 	SNIRLostPackets 	0
scalar IntersectionExampleScenario.node[33].nic.mac1609_4 	RXTXLostPackets 	0
scalar IntersectionExampleScenario.node[33].nic.mac1609_4 	TotalLostPackets 	0
scalar IntersectionExampleScenario.node[33].nic.mac1609_4 	DroppedPacketsInMac 	0
scalar IntersectionExampleScenario.node[33].nic.mac1609_4 	TooLittleTime 	0
scalar IntersectionExampleScenario.node[33].nic.mac1609_4 	TimesIntoBackoff 	0
scalar IntersectionExampleScenario.node[33].nic.mac1609_4 	SlotsBackoff 	0
scalar IntersectionExampleScenario.node[33].nic.mac1609_4 	NumInternalContention 	0
scalar IntersectionExampleScenario.node[33].nic.mac1609_4 	totalBusyTime 	0
scalar IntersectionExampleScenario.node[33].veinsmobility 	startTime 	95.75
scalar IntersectionExampleScenario.node[33].veinsmobility 	totalTime 	84.75
scalar IntersectionExampleScenario.node[33].veinsmobility 	stopTime 	180.75
scalar IntersectionExampleScenario.node[33].veinsmobility 	minSpeed 	0
scalar IntersectionExampleScenario.node[33].veinsmobility 	maxSpeed 	15.25
scalar IntersectionExampleScenario.node[33].veinsmobility 	totalDistance 	544.46379758269
scalar IntersectionExampleScenario.node[33].veinsmobility 	totalCO2Emission 	173.27049564102
scalar IntersectionExampleScenario.node[38].appl 	VehicleRemoved 	0
scalar IntersectionExampleScenario.node[38].appl 	ArrivedAtDest 	1
scalar IntersectionExampleScenario.node[38].appl 	IntersectionEnterTime 	128.5
scalar IntersectionExampleScenario.node[38].appl 	IntersectionExitTime 	165.30597289538
scalar IntersectionExampleScenario.node[38].appl 	NumberOfCollisions 	0
scalar IntersectionExampleScenario.node[38].nic.phy80211p 	busyTime 	0
scalar IntersectionExampleScenario.node[38].nic.mac1609_4 	ReceivedUnicastPackets 	0
scalar IntersectionExampleScenario.node[38].nic.mac1609_4 	ReceivedBroadcasts 	0
scalar IntersectionExampleScenario.node[38].nic.mac1609_4 	SentPackets 	0
scalar IntersectionExampleScenario.node[38].nic.mac1609_4 	SNIRLostPackets 	0
scalar IntersectionExampleScenario.node[38].nic.mac1609_4 	RXTXLostPackets 	0
scalar IntersectionExampleScenario.node[38].nic.mac1609_4 	TotalLostPackets 	0
scalar IntersectionExampleScenario.node[38].nic.mac1609_4 	DroppedPacketsInMac 	0
scalar IntersectionExampleScenario.node[38].nic.mac1609_4 	TooLittleTime 	0
scalar IntersectionExampleScenario.node[38].nic.mac1609_4 	TimesIntoBackoff 	0
scalar IntersectionExampleScenario.node[38].nic.mac1609_4 	SlotsBackoff 	0
scalar IntersectionExampleScenario.node[38].nic.mac1609_4 	NumInternalContention 	0
scalar IntersectionExampleScenario.node[38].nic.mac1609_4 	totalBusyTime 	0
scalar IntersectionExampleScenario.node[38].veinsmobility 	startTime 	128.5
scalar IntersectionExampleScenario.node[38].veinsmobility 	totalTime 	52.5
scalar IntersectionExampleScenario.node[38].veinsmobility 	stopTime 	181.25
scalar IntersectionExampleScenario.node[38].veinsmobility 	minSpeed 	0
scalar IntersectionExampleScenario.node[38].veinsmobility 	maxSpeed 	16.125
scalar IntersectionExampleScenario.node[38].veinsmobility 	totalDistance 	553.63879394531
scalar IntersectionExampleScenario.node[38].veinsmobility 	totalCO2Emission 	144.76394096442
scalar IntersectionExampleScenario.node[35].appl 	VehicleRemoved 	0
scalar IntersectionExampleScenario.node[35].appl 	ArrivedAtDest 	1
scalar IntersectionExampleScenario.node[35].appl 	IntersectionEnterTime 	110.5
scalar IntersectionExampleScenario.node[35].appl 	IntersectionExitTime 	179.58703803382
scalar IntersectionExampleScenario.node[35].appl 	NumberOfCollisions 	0
scalar IntersectionExampleScenario.node[35].nic.phy80211p 	busyTime 	0
scalar IntersectionExampleScenario.node[35].nic.mac1609_4 	ReceivedUnicastPackets 	0
scalar IntersectionExampleScenario.node[35].nic.mac1609_4 	ReceivedBroadcasts 	0
scalar IntersectionExampleScenario.node[35].nic.mac1609_4 	SentPackets 	0
scalar IntersectionExampleScenario.node[35].nic.mac1609_4 	SNIRLostPackets 	0
scalar IntersectionExampleScenario.node[35].nic.mac1609_4 	RXTXLostPackets 	0
scalar IntersectionExampleScenario.node[35].nic.mac1609_4 	TotalLostPackets 	0
scalar IntersectionExampleScenario.node[35].nic.mac1609_4 	DroppedPacketsInMac 	0
scalar IntersectionExampleScenario.node[35].nic.mac1609_4 	TooLittleTime 	0
scalar IntersectionExampleScenario.node[35].nic.mac1609_4 	TimesIntoBackoff 	0
scalar IntersectionExampleScenario.node[35].nic.mac1609_4 	SlotsBackoff 	0
scalar IntersectionExampleScenario.node[35].nic.mac1609_4 	NumInternalContention 	0
scalar IntersectionExampleScenario.node[35].nic.mac1609_4 	totalBusyTime 	0
[...]
scalar IntersectionExampleScenario.node[504].veinsmobility 	totalDistance 	287.42190551758
scalar IntersectionExampleScenario.node[504].veinsmobility 	totalCO2Emission 	77.832895455639
scalar IntersectionExampleScenario.node[505].appl 	VehicleRemoved 	0
scalar IntersectionExampleScenario.node[505].appl 	ArrivedAtDest 	0
scalar IntersectionExampleScenario.node[505].appl 	IntersectionEnterTime 	1767
scalar IntersectionExampleScenario.node[505].appl 	IntersectionExitTime 	-1
scalar IntersectionExampleScenario.node[505].appl 	NumberOfCollisions 	0
scalar IntersectionExampleScenario.node[505].nic.phy80211p 	busyTime 	0
scalar IntersectionExampleScenario.node[505].nic.mac1609_4 	ReceivedUnicastPackets 	0
scalar IntersectionExampleScenario.node[505].nic.mac1609_4 	ReceivedBroadcasts 	0
scalar IntersectionExampleScenario.node[505].nic.mac1609_4 	SentPackets 	0
scalar IntersectionExampleScenario.node[505].nic.mac1609_4 	SNIRLostPackets 	0
scalar IntersectionExampleScenario.node[505].nic.mac1609_4 	RXTXLostPackets 	0
scalar IntersectionExampleScenario.node[505].nic.mac1609_4 	TotalLostPackets 	0
scalar IntersectionExampleScenario.node[505].nic.mac1609_4 	DroppedPacketsInMac 	0
scalar IntersectionExampleScenario.node[505].nic.mac1609_4 	TooLittleTime 	0
scalar IntersectionExampleScenario.node[505].nic.mac1609_4 	TimesIntoBackoff 	0
scalar IntersectionExampleScenario.node[505].nic.mac1609_4 	SlotsBackoff 	0
scalar IntersectionExampleScenario.node[505].nic.mac1609_4 	NumInternalContention 	0
scalar IntersectionExampleScenario.node[505].nic.mac1609_4 	totalBusyTime 	0
scalar IntersectionExampleScenario.node[505].veinsmobility 	startTime 	1767
scalar IntersectionExampleScenario.node[505].veinsmobility 	totalTime 	33
scalar IntersectionExampleScenario.node[505].veinsmobility 	stopTime 	1800
scalar IntersectionExampleScenario.node[505].veinsmobility 	minSpeed 	0
scalar IntersectionExampleScenario.node[505].veinsmobility 	maxSpeed 	16.89999961853
scalar IntersectionExampleScenario.node[505].veinsmobility 	totalDistance 	247.45325469971
scalar IntersectionExampleScenario.node[505].veinsmobility 	totalCO2Emission 	73.344848628073
scalar IntersectionExampleScenario.node[506].appl 	VehicleRemoved 	0
scalar IntersectionExampleScenario.node[506].appl 	ArrivedAtDest 	0
scalar IntersectionExampleScenario.node[506].appl 	IntersectionEnterTime 	1773.75
scalar IntersectionExampleScenario.node[506].appl 	IntersectionExitTime 	-1
scalar IntersectionExampleScenario.node[506].appl 	NumberOfCollisions 	0
scalar IntersectionExampleScenario.node[506].nic.phy80211p 	busyTime 	0
scalar IntersectionExampleScenario.node[506].nic.mac1609_4 	ReceivedUnicastPackets 	0
scalar IntersectionExampleScenario.node[506].nic.mac1609_4 	ReceivedBroadcasts 	0
scalar IntersectionExampleScenario.node[506].nic.mac1609_4 	SentPackets 	0
scalar IntersectionExampleScenario.node[506].nic.mac1609_4 	SNIRLostPackets 	0
scalar IntersectionExampleScenario.node[506].nic.mac1609_4 	RXTXLostPackets 	0
scalar IntersectionExampleScenario.node[506].nic.mac1609_4 	TotalLostPackets 	0
scalar IntersectionExampleScenario.node[506].nic.mac1609_4 	DroppedPacketsInMac 	0
scalar IntersectionExampleScenario.node[506].nic.mac1609_4 	TooLittleTime 	0
scalar IntersectionExampleScenario.node[506].nic.mac1609_4 	TimesIntoBackoff 	0
scalar IntersectionExampleScenario.node[506].nic.mac1609_4 	SlotsBackoff 	0
scalar IntersectionExampleScenario.node[506].nic.mac1609_4 	NumInternalContention 	0
scalar IntersectionExampleScenario.node[506].nic.mac1609_4 	totalBusyTime 	0
scalar IntersectionExampleScenario.node[506].veinsmobility 	startTime 	1773.75
scalar IntersectionExampleScenario.node[506].veinsmobility 	totalTime 	26.25
scalar IntersectionExampleScenario.node[506].veinsmobility 	stopTime 	1800
scalar IntersectionExampleScenario.node[506].veinsmobility 	minSpeed 	0
scalar IntersectionExampleScenario.node[506].veinsmobility 	maxSpeed 	16.301406860352
scalar IntersectionExampleScenario.node[506].veinsmobility 	totalDistance 	287.42188262939
scalar IntersectionExampleScenario.node[506].veinsmobility 	totalCO2Emission 	72.98815574276
scalar IntersectionExampleScenario.node[507].appl 	VehicleRemoved 	0
scalar IntersectionExampleScenario.node[507].appl 	ArrivedAtDest 	0
scalar IntersectionExampleScenario.node[507].appl 	IntersectionEnterTime 	1774.5
scalar IntersectionExampleScenario.node[507].appl 	IntersectionExitTime 	-1
scalar IntersectionExampleScenario.node[507].appl 	NumberOfCollisions 	0
scalar IntersectionExampleScenario.node[507].nic.phy80211p 	busyTime 	0
scalar IntersectionExampleScenario.node[507].nic.mac1609_4 	ReceivedUnicastPackets 	0
scalar IntersectionExampleScenario.node[507].nic.mac1609_4 	ReceivedBroadcasts 	0
scalar IntersectionExampleScenario.node[507].nic.mac1609_4 	SentPackets 	0
scalar IntersectionExampleScenario.node[507].nic.mac1609_4 	SNIRLostPackets 	0
scalar IntersectionExampleScenario.node[507].nic.mac1609_4 	RXTXLostPackets 	0
scalar IntersectionExampleScenario.node[507].nic.mac1609_4 	TotalLostPackets 	0
scalar IntersectionExampleScenario.node[507].nic.mac1609_4 	DroppedPacketsInMac 	0
scalar IntersectionExampleScenario.node[507].nic.mac1609_4 	TooLittleTime 	0
scalar IntersectionExampleScenario.node[507].nic.mac1609_4 	TimesIntoBackoff 	0
scalar IntersectionExampleScenario.node[507].nic.mac1609_4 	SlotsBackoff 	0
scalar IntersectionExampleScenario.node[507].nic.mac1609_4 	NumInternalContention 	0
scalar IntersectionExampleScenario.node[507].nic.mac1609_4 	totalBusyTime 	0
scalar IntersectionExampleScenario.node[507].veinsmobility 	startTime 	1774.5
scalar IntersectionExampleScenario.node[507].veinsmobility 	totalTime 	25.5
scalar IntersectionExampleScenario.node[507].veinsmobility 	stopTime 	1800
scalar IntersectionExampleScenario.node[507].veinsmobility 	minSpeed 	0
scalar IntersectionExampleScenario.node[507].veinsmobility 	maxSpeed 	16.27499961853
scalar IntersectionExampleScenario.node[507].veinsmobility 	totalDistance 	239.92652130127
scalar IntersectionExampleScenario.node[507].veinsmobility 	totalCO2Emission 	60.08289148797
scalar IntersectionExampleScenario.node[508].appl 	VehicleRemoved 	0
scalar IntersectionExampleScenario.node[508].appl 	ArrivedAtDest 	0
scalar IntersectionExampleScenario.node[508].appl 	IntersectionEnterTime 	1782.5
scalar IntersectionExampleScenario.node[508].appl 	IntersectionExitTime 	-1
scalar IntersectionExampleScenario.node[508].appl 	NumberOfCollisions 	0
scalar IntersectionExampleScenario.node[508].nic.phy80211p 	busyTime 	0
scalar IntersectionExampleScenario.node[508].nic.mac1609_4 	ReceivedUnicastPackets 	0
scalar IntersectionExampleScenario.node[508].nic.mac1609_4 	ReceivedBroadcasts 	0
scalar IntersectionExampleScenario.node[508].nic.mac1609_4 	SentPackets 	0
scalar IntersectionExampleScenario.node[508].nic.mac1609_4 	SNIRLostPackets 	0
scalar IntersectionExampleScenario.node[508].nic.mac1609_4 	RXTXLostPackets 	0
scalar IntersectionExampleScenario.node[508].nic.mac1609_4 	TotalLostPackets 	0
scalar IntersectionExampleScenario.node[508].nic.mac1609_4 	DroppedPacketsInMac 	0
scalar IntersectionExampleScenario.node[508].nic.mac1609_4 	TooLittleTime 	0
scalar IntersectionExampleScenario.node[508].nic.mac1609_4 	TimesIntoBackoff 	0
scalar IntersectionExampleScenario.node[508].nic.mac1609_4 	SlotsBackoff 	0
scalar IntersectionExampleScenario.node[508].nic.mac1609_4 	NumInternalContention 	0
scalar IntersectionExampleScenario.node[508].nic.mac1609_4 	totalBusyTime 	0
scalar IntersectionExampleScenario.node[508].veinsmobility 	startTime 	1782.5
scalar IntersectionExampleScenario.node[508].veinsmobility 	totalTime 	17.5
scalar IntersectionExampleScenario.node[508].veinsmobility 	stopTime 	1800
scalar IntersectionExampleScenario.node[508].veinsmobility 	minSpeed 	5.6500000953674
scalar IntersectionExampleScenario.node[508].veinsmobility 	maxSpeed 	15.64999961853
scalar IntersectionExampleScenario.node[508].veinsmobility 	totalDistance 	234.37036895752
scalar IntersectionExampleScenario.node[508].veinsmobility 	totalCO2Emission 	56.997819879
scalar IntersectionExampleScenario.node[509].appl 	VehicleRemoved 	0
scalar IntersectionExampleScenario.node[509].appl 	ArrivedAtDest 	0
scalar IntersectionExampleScenario.node[509].appl 	IntersectionEnterTime 	1783.75
scalar IntersectionExampleScenario.node[509].appl 	IntersectionExitTime 	-1
scalar IntersectionExampleScenario.node[509].appl 	NumberOfCollisions 	0
scalar IntersectionExampleScenario.node[509].nic.phy80211p 	busyTime 	0
scalar IntersectionExampleScenario.node[509].nic.mac1609_4 	ReceivedUnicastPackets 	0
scalar IntersectionExampleScenario.node[509].nic.mac1609_4 	ReceivedBroadcasts 	0
scalar IntersectionExampleScenario.node[509].nic.mac1609_4 	SentPackets 	0
scalar IntersectionExampleScenario.node[509].nic.mac1609_4 	SNIRLostPackets 	0
scalar IntersectionExampleScenario.node[509].nic.mac1609_4 	RXTXLostPackets 	0
scalar IntersectionExampleScenario.node[509].nic.mac1609_4 	TotalLostPackets 	0
scalar IntersectionExampleScenario.node[509].nic.mac1609_4 	DroppedPacketsInMac 	0
scalar IntersectionExampleScenario.node[509].nic.mac1609_4 	TooLittleTime 	0
scalar IntersectionExampleScenario.node[509].nic.mac1609_4 	TimesIntoBackoff 	0
scalar IntersectionExampleScenario.node[509].nic.mac1609_4 	SlotsBackoff 	0
scalar IntersectionExampleScenario.node[509].nic.mac1609_4 	NumInternalContention 	0
scalar IntersectionExampleScenario.node[509].nic.mac1609_4 	totalBusyTime 	0
scalar IntersectionExampleScenario.node[509].veinsmobility 	startTime 	1783.75
scalar IntersectionExampleScenario.node[509].veinsmobility 	totalTime 	16.25
scalar IntersectionExampleScenario.node[509].veinsmobility 	stopTime 	1800
scalar IntersectionExampleScenario.node[509].veinsmobility 	minSpeed 	5.6500000953674
scalar IntersectionExampleScenario.node[509].veinsmobility 	maxSpeed 	15.02499961853
scalar IntersectionExampleScenario.node[509].veinsmobility 	totalDistance 	219.28057861328
scalar IntersectionExampleScenario.node[509].veinsmobility 	totalCO2Emission 	55.001585084679
scalar IntersectionExampleScenario.node[510].appl 	VehicleRemoved 	0
scalar IntersectionExampleScenario.node[510].appl 	ArrivedAtDest 	0
scalar IntersectionExampleScenario.node[510].appl 	IntersectionEnterTime 	1785.75
scalar IntersectionExampleScenario.node[510].appl 	IntersectionExitTime 	-1
scalar IntersectionExampleScenario.node[510].appl 	NumberOfCollisions 	0
scalar IntersectionExampleScenario.node[510].nic.phy80211p 	busyTime 	0
scalar IntersectionExampleScenario.node[510].nic.mac1609_4 	ReceivedUnicastPackets 	0
scalar IntersectionExampleScenario.node[510].nic.mac1609_4 	ReceivedBroadcasts 	0
scalar IntersectionExampleScenario.node[510].nic.mac1609_4 	SentPackets 	0
scalar IntersectionExampleScenario.node[510].nic.mac1609_4 	SNIRLostPackets 	0
scalar IntersectionExampleScenario.node[510].nic.mac1609_4 	RXTXLostPackets 	0
scalar IntersectionExampleScenario.node[510].nic.mac1609_4 	TotalLostPackets 	0
scalar IntersectionExampleScenario.node[510].nic.mac1609_4 	DroppedPacketsInMac 	0
scalar IntersectionExampleScenario.node[510].nic.mac1609_4 	TooLittleTime 	0
scalar IntersectionExampleScenario.node[510].nic.mac1609_4 	TimesIntoBackoff 	0
scalar IntersectionExampleScenario.node[510].nic.mac1609_4 	SlotsBackoff 	0
scalar IntersectionExampleScenario.node[510].nic.mac1609_4 	NumInternalContention 	0
scalar IntersectionExampleScenario.node[510].nic.mac1609_4 	totalBusyTime 	0
scalar IntersectionExampleScenario.node[510].veinsmobility 	startTime 	1785.75
scalar IntersectionExampleScenario.node[510].veinsmobility 	totalTime 	14.25
scalar IntersectionExampleScenario.node[510].veinsmobility 	stopTime 	1800
scalar IntersectionExampleScenario.node[510].veinsmobility 	minSpeed 	5.6500000953674
scalar IntersectionExampleScenario.node[510].veinsmobility 	maxSpeed 	15.64999961853
scalar IntersectionExampleScenario.node[510].veinsmobility 	totalDistance 	183.72367095947
scalar IntersectionExampleScenario.node[510].veinsmobility 	totalCO2Emission 	49.175954054021
scalar IntersectionExampleScenario.node[511].appl 	VehicleRemoved 	0
scalar IntersectionExampleScenario.node[511].appl 	ArrivedAtDest 	0
scalar IntersectionExampleScenario.node[511].appl 	IntersectionEnterTime 	1792.75
scalar IntersectionExampleScenario.node[511].appl 	IntersectionExitTime 	-1
scalar IntersectionExampleScenario.node[511].appl 	NumberOfCollisions 	0
scalar IntersectionExampleScenario.node[511].nic.phy80211p 	busyTime 	0
scalar IntersectionExampleScenario.node[511].nic.mac1609_4 	ReceivedUnicastPackets 	0
scalar IntersectionExampleScenario.node[511].nic.mac1609_4 	ReceivedBroadcasts 	0
scalar IntersectionExampleScenario.node[511].nic.mac1609_4 	SentPackets 	0
scalar IntersectionExampleScenario.node[511].nic.mac1609_4 	SNIRLostPackets 	0
scalar IntersectionExampleScenario.node[511].nic.mac1609_4 	RXTXLostPackets 	0
scalar IntersectionExampleScenario.node[511].nic.mac1609_4 	TotalLostPackets 	0
scalar IntersectionExampleScenario.node[511].nic.mac1609_4 	DroppedPacketsInMac 	0
scalar IntersectionExampleScenario.node[511].nic.mac1609_4 	TooLittleTime 	0
scalar IntersectionExampleScenario.node[511].nic.mac1609_4 	TimesIntoBackoff 	0
scalar IntersectionExampleScenario.node[511].nic.mac1609_4 	SlotsBackoff 	0
scalar IntersectionExampleScenario.node[511].nic.mac1609_4 	NumInternalContention 	0
scalar IntersectionExampleScenario.node[511].nic.mac1609_4 	totalBusyTime 	0
scalar IntersectionExampleScenario.node[511].veinsmobility 	startTime 	1792.75
scalar IntersectionExampleScenario.node[511].veinsmobility 	totalTime 	7.25
scalar IntersectionExampleScenario.node[511].veinsmobility 	stopTime 	1800
scalar IntersectionExampleScenario.node[511].veinsmobility 	minSpeed 	5.6500000953674
scalar IntersectionExampleScenario.node[511].veinsmobility 	maxSpeed 	15.64999961853
scalar IntersectionExampleScenario.node[511].veinsmobility 	totalDistance 	90.528381347656
scalar IntersectionExampleScenario.node[511].veinsmobility 	totalCO2Emission 	39.59660951943
scalar IntersectionExampleScenario.node[512].appl 	VehicleRemoved 	0
scalar IntersectionExampleScenario.node[512].appl 	ArrivedAtDest 	0
scalar IntersectionExampleScenario.node[512].appl 	IntersectionEnterTime 	1793.75
scalar IntersectionExampleScenario.node[512].appl 	IntersectionExitTime 	-1
scalar IntersectionExampleScenario.node[512].appl 	NumberOfCollisions 	0
scalar IntersectionExampleScenario.node[512].nic.phy80211p 	busyTime 	0
scalar IntersectionExampleScenario.node[512].nic.mac1609_4 	ReceivedUnicastPackets 	0
scalar IntersectionExampleScenario.node[512].nic.mac1609_4 	ReceivedBroadcasts 	0
scalar IntersectionExampleScenario.node[512].nic.mac1609_4 	SentPackets 	0
scalar IntersectionExampleScenario.node[512].nic.mac1609_4 	SNIRLostPackets 	0
scalar IntersectionExampleScenario.node[512].nic.mac1609_4 	RXTXLostPackets 	0
scalar IntersectionExampleScenario.node[512].nic.mac1609_4 	TotalLostPackets 	0
scalar IntersectionExampleScenario.node[512].nic.mac1609_4 	DroppedPacketsInMac 	0
scalar IntersectionExampleScenario.node[512].nic.mac1609_4 	TooLittleTime 	0
scalar IntersectionExampleScenario.node[512].nic.mac1609_4 	TimesIntoBackoff 	0
scalar IntersectionExampleScenario.node[512].nic.mac1609_4 	SlotsBackoff 	0
scalar IntersectionExampleScenario.node[512].nic.mac1609_4 	NumInternalContention 	0
scalar IntersectionExampleScenario.node[512].nic.mac1609_4 	totalBusyTime 	0
scalar IntersectionExampleScenario.node[512].veinsmobility 	startTime 	1793.75
scalar IntersectionExampleScenario.node[512].veinsmobility 	totalTime 	6.25
scalar IntersectionExampleScenario.node[512].veinsmobility 	stopTime 	1800
scalar IntersectionExampleScenario.node[512].veinsmobility 	minSpeed 	5.6500000953674
scalar IntersectionExampleScenario.node[512].veinsmobility 	maxSpeed 	16.202665328979
scalar IntersectionExampleScenario.node[512].veinsmobility 	totalDistance 	75.817749023438
scalar IntersectionExampleScenario.node[512].veinsmobility 	totalCO2Emission 	40.20049051642
scalar IntersectionExampleScenario.node[513].appl 	VehicleRemoved 	0
scalar IntersectionExampleScenario.node[513].appl 	ArrivedAtDest 	0
scalar IntersectionExampleScenario.node[513].appl 	IntersectionEnterTime 	1795.5
scalar IntersectionExampleScenario.node[513].appl 	IntersectionExitTime 	-1
scalar IntersectionExampleScenario.node[513].appl 	NumberOfCollisions 	0
scalar IntersectionExampleScenario.node[513].nic.phy80211p 	busyTime 	0
scalar IntersectionExampleScenario.node[513].nic.mac1609_4 	ReceivedUnicastPackets 	0
scalar IntersectionExampleScenario.node[513].nic.mac1609_4 	ReceivedBroadcasts 	0
scalar IntersectionExampleScenario.node[513].nic.mac1609_4 	SentPackets 	0
scalar IntersectionExampleScenario.node[513].nic.mac1609_4 	SNIRLostPackets 	0
scalar IntersectionExampleScenario.node[513].nic.mac1609_4 	RXTXLostPackets 	0
scalar IntersectionExampleScenario.node[513].nic.mac1609_4 	TotalLostPackets 	0
scalar IntersectionExampleScenario.node[513].nic.mac1609_4 	DroppedPacketsInMac 	0
scalar IntersectionExampleScenario.node[513].nic.mac1609_4 	TooLittleTime 	0
scalar IntersectionExampleScenario.node[513].nic.mac1609_4 	TimesIntoBackoff 	0
scalar IntersectionExampleScenario.node[513].nic.mac1609_4 	SlotsBackoff 	0
scalar IntersectionExampleScenario.node[513].nic.mac1609_4 	NumInternalContention 	0
scalar IntersectionExampleScenario.node[513].nic.mac1609_4 	totalBusyTime 	0
scalar IntersectionExampleScenario.node[513].veinsmobility 	startTime 	1795.5
scalar IntersectionExampleScenario.node[513].veinsmobility 	totalTime 	4.5
scalar IntersectionExampleScenario.node[513].veinsmobility 	stopTime 	1800
scalar IntersectionExampleScenario.node[513].veinsmobility 	minSpeed 	5.6500000953674
scalar IntersectionExampleScenario.node[513].veinsmobility 	maxSpeed 	15.64999961853
scalar IntersectionExampleScenario.node[513].veinsmobility 	totalDistance 	47.844825744629
scalar IntersectionExampleScenario.node[513].veinsmobility 	totalCO2Emission 	34.086327714172
scalar IntersectionExampleScenario.node[514].appl 	VehicleRemoved 	0
scalar IntersectionExampleScenario.node[514].appl 	ArrivedAtDest 	0
scalar IntersectionExampleScenario.node[514].appl 	IntersectionEnterTime 	1798
scalar IntersectionExampleScenario.node[514].appl 	IntersectionExitTime 	-1
scalar IntersectionExampleScenario.node[514].appl 	NumberOfCollisions 	0
scalar IntersectionExampleScenario.node[514].nic.phy80211p 	busyTime 	0
scalar IntersectionExampleScenario.node[514].nic.mac1609_4 	ReceivedUnicastPackets 	0
scalar IntersectionExampleScenario.node[514].nic.mac1609_4 	ReceivedBroadcasts 	0
scalar IntersectionExampleScenario.node[514].nic.mac1609_4 	SentPackets 	0
scalar IntersectionExampleScenario.node[514].nic.mac1609_4 	SNIRLostPackets 	0
scalar IntersectionExampleScenario.node[514].nic.mac1609_4 	RXTXLostPackets 	0
scalar IntersectionExampleScenario.node[514].nic.mac1609_4 	TotalLostPackets 	0
scalar IntersectionExampleScenario.node[514].nic.mac1609_4 	DroppedPacketsInMac 	0
scalar IntersectionExampleScenario.node[514].nic.mac1609_4 	TooLittleTime 	0
scalar IntersectionExampleScenario.node[514].nic.mac1609_4 	TimesIntoBackoff 	0
scalar IntersectionExampleScenario.node[514].nic.mac1609_4 	SlotsBackoff 	0
scalar IntersectionExampleScenario.node[514].nic.mac1609_4 	NumInternalContention 	0
scalar IntersectionExampleScenario.node[514].nic.mac1609_4 	totalBusyTime 	0
scalar IntersectionExampleScenario.node[514].veinsmobility 	startTime 	1798
scalar IntersectionExampleScenario.node[514].veinsmobility 	totalTime 	2
scalar IntersectionExampleScenario.node[514].veinsmobility 	stopTime 	1800
scalar IntersectionExampleScenario.node[514].veinsmobility 	minSpeed 	5.6500000953674
scalar IntersectionExampleScenario.node[514].veinsmobility 	maxSpeed 	10.02499961853
scalar IntersectionExampleScenario.node[514].veinsmobility 	totalDistance 	15.049987792969
scalar IntersectionExampleScenario.node[514].veinsmobility 	totalCO2Emission 	11.317369352905
