file 21452814 1591489645                                        
version 2
run nodebug-27-20200606-20:23:18-18208
attr configname nodebug
attr datetime 20200606-20:23:18
attr experiment nodebug
attr inifile omnetpp.ini
attr iterationvars ""
attr iterationvars2 $repetition=27
attr measurement ""
attr network "\"org.car2x.veins.modules.application.ExtTraCIScenarioManagerLaunchd.IntersectionExampleScenario\""
attr processid 18208
attr repetition 27
attr replication #27
attr resultdir results
attr runnumber 27
attr seedset 27
param **.coreDebug false
param **.debug false
param *.**.nic.mac1609_4.bitrate 18Mbps
param *.**.nic.mac1609_4.txPower 20mW
param *.**.nic.mac1609_4.useServiceChannel false
param *.**.nic.phy80211p.analogueModels "xmldoc(\"config.xml\")"
param *.**.nic.phy80211p.decider "xmldoc(\"config.xml\")"
param *.**.nic.phy80211p.sensitivity -89dBm
param *.**.nic.phy80211p.thermalNoise -110dBm
param *.**.nic.phy80211p.usePropagationDelay true
param *.**.nic.phy80211p.useThermalNoise true
param *.annotations.draw false
param *.connectionManager.alpha 2.0
param *.connectionManager.carrierFrequency "5.890e9 Hz"
param *.connectionManager.pMax 20mW
param *.connectionManager.sat -89dBm
param *.connectionManager.sendDirect true
param *.manager.autoShutdown true
param *.manager.host "\"localhost\""
param *.manager.launchConfig "xmldoc(\"paramics.launchd.xml\")"
param *.manager.margin 25
param *.manager.moduleDisplayString "\"\""
param *.manager.moduleName "\"node\""
param *.manager.moduleType "\"org.car2x.veins.nodes.Car\""
param *.manager.port 9999
param *.manager.updateInterval 250ms
param *.node[*0].veinsmobility.accidentCount 0
param *.node[*0].veinsmobility.accidentDuration 30s
param *.node[*0].veinsmobility.accidentStart 75s
param *.node[*].appl.LiderSelectZoneRadio 55.0
param *.node[*].appl.ShareDataZoneRadio 110.0
param *.node[*].appl.TiempoSemaforo 30.0
param *.node[*].appl.beaconInterval 1s
param *.node[*].appl.beaconPriority 3
param *.node[*].appl.dataOnSch false
param *.node[*].appl.dataPriority 2
param *.node[*].appl.debug false
param *.node[*].appl.headerLength "256 bit"
param *.node[*].appl.maxOffset 0.005s
param *.node[*].appl.sendBeacons false
param *.node[*].appl.sendData true
param *.node[*].applType "\"Dummy\""
param *.node[*].mobilityType "\"TraCIMobility\""
param *.node[*].mobilityType.debug true
param *.node[*].veinsmobility.x 0
param *.node[*].veinsmobility.y 0
param *.node[*].veinsmobility.z 1.895
param *.node[*].veinsmobilityType "\"org.car2x.veins.modules.mobility.traci.TraCIMobility\""
param *.node[*].veinsmobilityType.debug true
param *.playgroundSizeX 8500m
param *.playgroundSizeY 8500m
param *.playgroundSizeZ 50m
param *.world.use2D false
param *.world.useTorus false

vector 27333  IntersectionExampleScenario.manager  vehiclesinsim  ETV
attr type  int
vector 27334  IntersectionExampleScenario.manager  realtime  ETV
attr type  int
attr unit  s
vector 27337  IntersectionExampleScenario.node[0].veinsmobility  posx  ETV
vector 27338  IntersectionExampleScenario.node[0].veinsmobility  posy  ETV
vector 27339  IntersectionExampleScenario.node[0].veinsmobility  speed  ETV
vector 27340  IntersectionExampleScenario.node[0].veinsmobility  acceleration  ETV
vector 27341  IntersectionExampleScenario.node[0].veinsmobility  co2emission  ETV
vector 27344  IntersectionExampleScenario.node[1].veinsmobility  posx  ETV
vector 27345  IntersectionExampleScenario.node[1].veinsmobility  posy  ETV
vector 27346  IntersectionExampleScenario.node[1].veinsmobility  speed  ETV
vector 27351  IntersectionExampleScenario.node[2].veinsmobility  posx  ETV
vector 27352  IntersectionExampleScenario.node[2].veinsmobility  posy  ETV
vector 27347  IntersectionExampleScenario.node[1].veinsmobility  acceleration  ETV
vector 27348  IntersectionExampleScenario.node[1].veinsmobility  co2emission  ETV
vector 27353  IntersectionExampleScenario.node[2].veinsmobility  speed  ETV
vector 27354  IntersectionExampleScenario.node[2].veinsmobility  acceleration  ETV
vector 27355  IntersectionExampleScenario.node[2].veinsmobility  co2emission  ETV
vector 27358  IntersectionExampleScenario.node[3].veinsmobility  posx  ETV
vector 27359  IntersectionExampleScenario.node[3].veinsmobility  posy  ETV
vector 27360  IntersectionExampleScenario.node[3].veinsmobility  speed  ETV
vector 27361  IntersectionExampleScenario.node[3].veinsmobility  acceleration  ETV
vector 27362  IntersectionExampleScenario.node[3].veinsmobility  co2emission  ETV
vector 27365  IntersectionExampleScenario.node[4].veinsmobility  posx  ETV
vector 27366  IntersectionExampleScenario.node[4].veinsmobility  posy  ETV
vector 27367  IntersectionExampleScenario.node[4].veinsmobility  speed  ETV
vector 27368  IntersectionExampleScenario.node[4].veinsmobility  acceleration  ETV
vector 27369  IntersectionExampleScenario.node[4].veinsmobility  co2emission  ETV
vector 27372  IntersectionExampleScenario.node[5].veinsmobility  posx  ETV
vector 27373  IntersectionExampleScenario.node[5].veinsmobility  posy  ETV
vector 27374  IntersectionExampleScenario.node[5].veinsmobility  speed  ETV
vector 27375  IntersectionExampleScenario.node[5].veinsmobility  acceleration  ETV
vector 27376  IntersectionExampleScenario.node[5].veinsmobility  co2emission  ETV
vector 27379  IntersectionExampleScenario.node[6].veinsmobility  posx  ETV
vector 27380  IntersectionExampleScenario.node[6].veinsmobility  posy  ETV
vector 27381  IntersectionExampleScenario.node[6].veinsmobility  speed  ETV
vector 27382  IntersectionExampleScenario.node[6].veinsmobility  acceleration  ETV
vector 27383  IntersectionExampleScenario.node[6].veinsmobility  co2emission  ETV
vector 27386  IntersectionExampleScenario.node[7].veinsmobility  posx  ETV
vector 27387  IntersectionExampleScenario.node[7].veinsmobility  posy  ETV
vector 27388  IntersectionExampleScenario.node[7].veinsmobility  speed  ETV
vector 27389  IntersectionExampleScenario.node[7].veinsmobility  acceleration  ETV
vector 27390  IntersectionExampleScenario.node[7].veinsmobility  co2emission  ETV
vector 27393  IntersectionExampleScenario.node[8].veinsmobility  posx  ETV
vector 27394  IntersectionExampleScenario.node[8].veinsmobility  posy  ETV
vector 27395  IntersectionExampleScenario.node[8].veinsmobility  speed  ETV
vector 27396  IntersectionExampleScenario.node[8].veinsmobility  acceleration  ETV
vector 27397  IntersectionExampleScenario.node[8].veinsmobility  co2emission  ETV
vector 27400  IntersectionExampleScenario.node[9].veinsmobility  posx  ETV
vector 27401  IntersectionExampleScenario.node[9].veinsmobility  posy  ETV
vector 27402  IntersectionExampleScenario.node[9].veinsmobility  speed  ETV
vector 27403  IntersectionExampleScenario.node[9].veinsmobility  acceleration  ETV
vector 27404  IntersectionExampleScenario.node[9].veinsmobility  co2emission  ETV
vector 27407  IntersectionExampleScenario.node[10].veinsmobility  posx  ETV
vector 27408  IntersectionExampleScenario.node[10].veinsmobility  posy  ETV
vector 27409  IntersectionExampleScenario.node[10].veinsmobility  speed  ETV
vector 27410  IntersectionExampleScenario.node[10].veinsmobility  acceleration  ETV
vector 27411  IntersectionExampleScenario.node[10].veinsmobility  co2emission  ETV
vector 27414  IntersectionExampleScenario.node[11].veinsmobility  posx  ETV
vector 27415  IntersectionExampleScenario.node[11].veinsmobility  posy  ETV
vector 27416  IntersectionExampleScenario.node[11].veinsmobility  speed  ETV
vector 27417  IntersectionExampleScenario.node[11].veinsmobility  acceleration  ETV
vector 27418  IntersectionExampleScenario.node[11].veinsmobility  co2emission  ETV
27355	7698 4743 61 1978 5.5 43 151 0.973 11.990504229548 479.97191342524 2613.7218177773
27354	12441 4229 61 1978 5.5 43 151 -3.2447547912598 2.5 39.869146347046 201.41922718971
27353	16670 4646 54 1978 5.25 43 152 5.6500000953674 16.125 2212.2037334442 32921.068151754
27352	21316 4874 47 1978 5 43 153 184.17810058594 731.93894958496 68437.339279175 34655173.1069
27351	26190 4927 47 1978 5 43 153 486.85000610352 486.85000610352 74488.050933838 36264508.051778
vector 27421  IntersectionExampleScenario.node[12].veinsmobility  posx  ETV
vector 27422  IntersectionExampleScenario.node[12].veinsmobility  posy  ETV
vector 27423  IntersectionExampleScenario.node[12].veinsmobility  speed  ETV
vector 27424  IntersectionExampleScenario.node[12].veinsmobility  acceleration  ETV
vector 27425  IntersectionExampleScenario.node[12].veinsmobility  co2emission  ETV
vector 27428  IntersectionExampleScenario.node[13].veinsmobility  posx  ETV
vector 27429  IntersectionExampleScenario.node[13].veinsmobility  posy  ETV
vector 27430  IntersectionExampleScenario.node[13].veinsmobility  speed  ETV
vector 27431  IntersectionExampleScenario.node[13].veinsmobility  acceleration  ETV
vector 27432  IntersectionExampleScenario.node[13].veinsmobility  co2emission  ETV
vector 27435  IntersectionExampleScenario.node[14].veinsmobility  posx  ETV
vector 27436  IntersectionExampleScenario.node[14].veinsmobility  posy  ETV
vector 27442  IntersectionExampleScenario.node[15].veinsmobility  posx  ETV
vector 27443  IntersectionExampleScenario.node[15].veinsmobility  posy  ETV
vector 27437  IntersectionExampleScenario.node[14].veinsmobility  speed  ETV
27341	32305 5841 16 2732 2.75 52 198 0.973 11.810082123732 577.71349147058 3053.9676630216
27340	38146 5368 16 2732 2.75 52 198 -7.2641463279724 4 39.699392318726 483.29100888435
27339	43514 5632 13 2732 2.5 52 199 0 15.875 2180.8751922846 31208.170008883
27338	49146 6381 10 2732 2.25 52 200 236.12365722656 483.14999389648 88567.137908936 40218599.729778
27337	55527 6419 10 2732 2.25 52 200 184.17810058594 483.36395263672 82467.667144775 35906521.502161
vector 27449  IntersectionExampleScenario.node[16].veinsmobility  posx  ETV
vector 27450  IntersectionExampleScenario.node[16].veinsmobility  posy  ETV
vector 27438  IntersectionExampleScenario.node[14].veinsmobility  acceleration  ETV
vector 27439  IntersectionExampleScenario.node[14].veinsmobility  co2emission  ETV
vector 27444  IntersectionExampleScenario.node[15].veinsmobility  speed  ETV
vector 27445  IntersectionExampleScenario.node[15].veinsmobility  acceleration  ETV
vector 27446  IntersectionExampleScenario.node[15].veinsmobility  co2emission  ETV
vector 27451  IntersectionExampleScenario.node[16].veinsmobility  speed  ETV
vector 27452  IntersectionExampleScenario.node[16].veinsmobility  acceleration  ETV
vector 27453  IntersectionExampleScenario.node[16].veinsmobility  co2emission  ETV
27348	62763 6061 47 2955 5 54.25 198 0.973 11.810082123732 592.11364346105 3110.9246491465
27347	68824 5795 47 2955 5 54.25 198 -4.5 2.5 41.057416915894 452.42150976716
27346	74619 6140 42 2955 4.75 54.25 199 0 15.94549369812 2245.7806760818 32206.686941529
27345	80759 6468 37 2955 4.5 54.25 200 238.76232910156 483.14999389648 88878.488372803 40452051.635961
27344	87227 6435 37 2955 4.5 54.25 200 167.29217529297 483.31036376953 80906.623260498 34858446.87052
27383	93662 5041 815 3931 25 64 157 0.973 11.54047740176 464.515727801 2331.5343583805
27382	98703 4530 815 3931 25 64 157 -3.6199226379395 2.5 36.98334312439 185.99752778846
27381	103233 4947 800 3931 24.75 64 158 5.6500000953674 15.5 2220.1633729935 31769.099536895
27380	108180 5232 785 3931 24.5 64 159 483.14999389648 483.14999389648 76820.849029541 37115992.739745
27379	113412 5194 785 3931 24.5 64 159 184.17810058594 734.11010742188 71456.595001221 36341496.178864
vector 27456  IntersectionExampleScenario.node[17].veinsmobility  posx  ETV
vector 27457  IntersectionExampleScenario.node[17].veinsmobility  posy  ETV
vector 27458  IntersectionExampleScenario.node[17].veinsmobility  speed  ETV
vector 27459  IntersectionExampleScenario.node[17].veinsmobility  acceleration  ETV
vector 27460  IntersectionExampleScenario.node[17].veinsmobility  co2emission  ETV
vector 27463  IntersectionExampleScenario.node[18].veinsmobility  posx  ETV
vector 27464  IntersectionExampleScenario.node[18].veinsmobility  posy  ETV
vector 27465  IntersectionExampleScenario.node[18].veinsmobility  speed  ETV
vector 27466  IntersectionExampleScenario.node[18].veinsmobility  acceleration  ETV
vector 27467  IntersectionExampleScenario.node[18].veinsmobility  co2emission  ETV
27390	119408 5348 879 4392 26 68.25 170 0.973 11.648172402475 537.12055260613 2875.1643698475
27389	124756 5080 879 4392 26 68.25 170 -8.4908542633057 4 38.001859664917 488.16021245119
27388	129836 5270 862 4392 25.75 68.25 171 0 15.64999961853 2172.5753586292 30408.735714519
27387	135106 5659 845 4392 25.5 68.25 172 486.63604736328 785.82187652588 97752.309791565 57348413.449075
27386	140765 5601 845 4392 25.5 68.25 172 237.98760986328 483.14999389648 74945.96975708 33598480.768245
vector 27470  IntersectionExampleScenario.node[19].veinsmobility  posx  ETV
vector 27471  IntersectionExampleScenario.node[19].veinsmobility  posy  ETV
vector 27472  IntersectionExampleScenario.node[19].veinsmobility  speed  ETV
vector 27473  IntersectionExampleScenario.node[19].veinsmobility  acceleration  ETV
vector 27474  IntersectionExampleScenario.node[19].veinsmobility  co2emission  ETV
vector 27477  IntersectionExampleScenario.node[20].veinsmobility  posx  ETV
vector 27478  IntersectionExampleScenario.node[20].veinsmobility  posy  ETV
vector 27479  IntersectionExampleScenario.node[20].veinsmobility  speed  ETV
vector 27480  IntersectionExampleScenario.node[20].veinsmobility  acceleration  ETV
vector 27481  IntersectionExampleScenario.node[20].veinsmobility  co2emission  ETV
vector 27484  IntersectionExampleScenario.node[21].veinsmobility  posx  ETV
vector 27485  IntersectionExampleScenario.node[21].veinsmobility  posy  ETV
vector 27486  IntersectionExampleScenario.node[21].veinsmobility  speed  ETV
vector 27487  IntersectionExampleScenario.node[21].veinsmobility  acceleration  ETV
vector 27488  IntersectionExampleScenario.node[21].veinsmobility  co2emission  ETV
vector 27491  IntersectionExampleScenario.node[22].veinsmobility  posx  ETV
vector 27492  IntersectionExampleScenario.node[22].veinsmobility  posy  ETV
vector 27493  IntersectionExampleScenario.node[22].veinsmobility  speed  ETV
vector 27494  IntersectionExampleScenario.node[22].veinsmobility  acceleration  ETV
vector 27495  IntersectionExampleScenario.node[22].veinsmobility  co2emission  ETV
vector 27498  IntersectionExampleScenario.node[23].veinsmobility  posx  ETV
vector 27499  IntersectionExampleScenario.node[23].veinsmobility  posy  ETV
vector 27500  IntersectionExampleScenario.node[23].veinsmobility  speed  ETV
vector 27501  IntersectionExampleScenario.node[23].veinsmobility  acceleration  ETV
vector 27502  IntersectionExampleScenario.node[23].veinsmobility  co2emission  ETV
vector 27505  IntersectionExampleScenario.node[24].veinsmobility  posx  ETV
vector 27506  IntersectionExampleScenario.node[24].veinsmobility  posy  ETV
vector 27507  IntersectionExampleScenario.node[24].veinsmobility  speed  ETV
vector 27508  IntersectionExampleScenario.node[24].veinsmobility  acceleration  ETV
vector 27509  IntersectionExampleScenario.node[24].veinsmobility  co2emission  ETV
vector 27512  IntersectionExampleScenario.node[25].veinsmobility  posx  ETV
vector 27513  IntersectionExampleScenario.node[25].veinsmobility  posy  ETV
vector 27514  IntersectionExampleScenario.node[25].veinsmobility  speed  ETV
vector 27515  IntersectionExampleScenario.node[25].veinsmobility  acceleration  ETV
vector 27516  IntersectionExampleScenario.node[25].veinsmobility  co2emission  ETV
vector 27519  IntersectionExampleScenario.node[26].veinsmobility  posx  ETV
vector 27520  IntersectionExampleScenario.node[26].veinsmobility  posy  ETV
27369	149327 7861 320 6377 14.25 84.25 281 0.973 11.648172402475 648.45072639663 3005.9225726755
27368	157188 7055 320 6377 14.25 84.25 281 -7.4922199249268 4 38.171613693237 481.23603371837
27367	164243 7360 309 6377 14 84.25 282 0 15.64999961853 2197.6315107346 30998.858005783
27366	171603 9277 298 6377 13.75 84.25 283 237.83361816406 486.85000610352 129417.60861206 60323819.078325
27365	180880 9270 298 6377 13.75 84.25 283 483.14999389648 785.82187652588 152804.32711029 84655153.766782
vector 27521  IntersectionExampleScenario.node[26].veinsmobility  speed  ETV
vector 27522  IntersectionExampleScenario.node[26].veinsmobility  acceleration  ETV
vector 27523  IntersectionExampleScenario.node[26].veinsmobility  co2emission  ETV
vector 27526  IntersectionExampleScenario.node[27].veinsmobility  posx  ETV
vector 27527  IntersectionExampleScenario.node[27].veinsmobility  posy  ETV
vector 27528  IntersectionExampleScenario.node[27].veinsmobility  speed  ETV
vector 27529  IntersectionExampleScenario.node[27].veinsmobility  acceleration  ETV
vector 27530  IntersectionExampleScenario.node[27].veinsmobility  co2emission  ETV
vector 27533  IntersectionExampleScenario.node[28].veinsmobility  posx  ETV
vector 27534  IntersectionExampleScenario.node[28].veinsmobility  posy  ETV
vector 27535  IntersectionExampleScenario.node[28].veinsmobility  speed  ETV
vector 27536  IntersectionExampleScenario.node[28].veinsmobility  acceleration  ETV
vector 27537  IntersectionExampleScenario.node[28].veinsmobility  co2emission  ETV
27418	191199 5436 1978 6738 43 86.75 176 0.973 11.648172402475 528.96515308955 2834.2522687983
27417	196635 5427 1978 6738 43 86.75 176 -2.1501121520996 2.5000019073486 38.341367721558 273.95326161147
27416	202062 5610 1959 6738 42.75 86.75 177 4.5028839111328 15.64999961853 2201.6817045212 29635.006016328
27415	207672 5865 1940 6738 42.5 86.75 178 238.44635009766 486.85000610352 78358.015686035 35480948.916328
27414	213537 5867 1940 6738 42.5 86.75 178 483.12680053711 785.82187652588 101096.35512543 59221955.933166
27439	219404 4997 2755 7430 52.25 91.75 159 0.973 11.463340279945 495.33045827256 2780.9964199535
27438	224401 4906 2755 7430 52.25 91.75 159 -3.7127685546875 2.5 37.15309715271 251.51898680686
27437	229307 4996 2732 7430 52 91.75 160 5.6500000953674 15.392395973206 2199.3007230759 31054.977119624
27436	234303 5296 2711 7430 51.75 91.75 161 238.37481689453 486.85000610352 69926.106994629 31327627.75865
27435	239599 5304 2711 7430 51.75 91.75 161 482.94320678711 785.82187652588 92141.600547791 54522086.173895
vector 27540  IntersectionExampleScenario.node[29].veinsmobility  posx  ETV
vector 27541  IntersectionExampleScenario.node[29].veinsmobility  posy  ETV
vector 27542  IntersectionExampleScenario.node[29].veinsmobility  speed  ETV
vector 27543  IntersectionExampleScenario.node[29].veinsmobility  acceleration  ETV
vector 27544  IntersectionExampleScenario.node[29].veinsmobility  co2emission  ETV
27453	245304 5227 2805 7603 52.75 93 162 0.973 11.54047740176 506.68192103684 2697.0087737709
27452	250531 4778 2805 7603 52.75 93 162 -4.5 2.5 38.341367721558 235.4809757123
27451	255309 5151 2780 7603 52.5 93 163 5.6500000953674 15.5 2309.1899347305 33405.005129415
27450	260460 5412 2755 7603 52.25 93 164 486.85000610352 486.85000610352 79843.401000977 38871760.264651
27449	265872 5399 2755 7603 52.25 93 164 237.75378417969 809.56562805176 87775.999923706 51704588.372762
vector 27547  IntersectionExampleScenario.node[30].veinsmobility  posx  ETV
vector 27548  IntersectionExampleScenario.node[30].veinsmobility  posy  ETV
vector 27554  IntersectionExampleScenario.node[31].veinsmobility  posx  ETV
vector 27555  IntersectionExampleScenario.node[31].veinsmobility  posy  ETV
vector 27549  IntersectionExampleScenario.node[30].veinsmobility  speed  ETV
vector 27550  IntersectionExampleScenario.node[30].veinsmobility  acceleration  ETV
vector 27551  IntersectionExampleScenario.node[30].veinsmobility  co2emission  ETV
vector 27556  IntersectionExampleScenario.node[31].veinsmobility  speed  ETV
vector 27557  IntersectionExampleScenario.node[31].veinsmobility  acceleration  ETV
vector 27558  IntersectionExampleScenario.node[31].veinsmobility  co2emission  ETV
27362	272073 9501 289 8635 13.5 100.75 350 0.973 11.36141391502 704.70106184134 2915.4474958173
27361	281574 8416 289 8635 13.5 100.75 350 -7.7817792892456 4 36.643835067749 515.32683194203
27360	289990 8678 280 8635 13.25 100.75 351 0 15.25 2185.4601898193 30188.339768748
27359	298668 11540 271 8635 13 100.75 352 184.17810058594 483.36395263672 153824.6835022 69468433.569156
27358	310208 11489 271 8635 13 100.75 352 486.85000610352 735.27621459961 179916.49856567 93165149.850347
27376	321697 9216 720 8795 23.25 102 316 0.973 11.200708441096 659.04909125662 2756.4298095649
27375	330913 9515 720 8795 23.25 102 316 -3.877375125885 2.5 35.795072555542 327.74793505411
27374	340428 9452 707 8795 23 102 317 0 15.02499961853 2219.3636178123 28713.802016189
27373	349880 10437 694 8795 22.75 102 318 184.17810058594 734.5174407959 144871.81507874 70323986.313069
27372	360317 10481 694 8795 22.75 102 318 486.85000610352 486.85000610352 154818.30194092 75373291.244872
vector 27561  IntersectionExampleScenario.node[32].veinsmobility  posx  ETV
vector 27562  IntersectionExampleScenario.node[32].veinsmobility  posy  ETV
vector 27563  IntersectionExampleScenario.node[32].veinsmobility  speed  ETV
vector 27564  IntersectionExampleScenario.node[32].veinsmobility  acceleration  ETV
vector 27565  IntersectionExampleScenario.node[32].veinsmobility  co2emission  ETV
27397	371199 8712 1301 9114 32.75 104.5 288 0.973 11.36141391502 641.76624316065 2858.5711752552
27396	379911 9161 1301 9114 32.75 104.5 288 -3.9719414710999 2.5 37.32285118103 336.21302655576
27395	389072 9164 1284 9114 32.5 104.5 289 0 15.25 2190.8264838541 27897.290789356
27394	398236 9529 1267 9114 32.25 104.5 290 184.17810058594 483.14999389648 122193.22393799 53487533.686907
27393	407765 9574 1267 9114 32.25 104.5 290 486.85000610352 734.72361755371 149612.49855042 78329163.850414
27411	417339 7973 1821 9326 40.75 106.25 263 0.973 11.200708441096 602.79864431861 2698.2752957051
27410	425312 8251 1821 9326 40.75 106.25 263 -3.9209187030792 2.5000009536743 36.98334312439 318.11305892988
27409	433563 8518 1804 9326 40.5 106.25 264 0 15.02499961853 2224.2189571429 28614.273667112
27408	442081 8720 1787 9326 40.25 106.25 265 184.17810058594 735.26127624512 118655.6633606 57418065.347806
27407	450801 8772 1787 9326 40.25 106.25 265 486.85000610352 486.85000610352 129015.25161743 62811076.037393
vector 27568  IntersectionExampleScenario.node[33].veinsmobility  posx  ETV
vector 27569  IntersectionExampleScenario.node[33].veinsmobility  posy  ETV
vector 27570  IntersectionExampleScenario.node[33].veinsmobility  speed  ETV
vector 27575  IntersectionExampleScenario.node[34].veinsmobility  posx  ETV
vector 27576  IntersectionExampleScenario.node[34].veinsmobility  posy  ETV
vector 27571  IntersectionExampleScenario.node[33].veinsmobility  acceleration  ETV
vector 27572  IntersectionExampleScenario.node[33].veinsmobility  co2emission  ETV
vector 27577  IntersectionExampleScenario.node[34].veinsmobility  speed  ETV
vector 27578  IntersectionExampleScenario.node[34].veinsmobility  acceleration  ETV
vector 27579  IntersectionExampleScenario.node[34].veinsmobility  co2emission  ETV
vector 27582  IntersectionExampleScenario.node[35].veinsmobility  posx  ETV
vector 27583  IntersectionExampleScenario.node[35].veinsmobility  posy  ETV
vector 27584  IntersectionExampleScenario.node[35].veinsmobility  speed  ETV
27481	460607 5043 4786 9849 71.75 110.75 157 0.973 11.648172402475 522.41056843357 2910.5115526439
27480	465650 4874 4786 9849 71.75 110.75 157 -3.5725135803223 2.5 39.869146347046 293.68761746271
27479	470524 4957 4757 9849 71.5 110.75 158 5.6500000953674 15.867288589478 2187.2891330719 31733.421674531
27478	475481 5274 4728 9849 71.25 110.75 159 184.17810058594 483.14999389648 63183.620697021 26833490.065896
27477	480755 5284 4728 9849 71.25 110.75 159 486.85000610352 733.86164855957 85454.500350952 46840005.421047
vector 27585  IntersectionExampleScenario.node[35].veinsmobility  acceleration  ETV
vector 27586  IntersectionExampleScenario.node[35].veinsmobility  co2emission  ETV
27502	486208 4950 5347 10313 76.25 114.75 155 0.973 11.810082123732 521.38871249793 2960.2167460545
27501	491158 4693 5347 10313 76.25 114.75 155 -3.2007369995117 2.5 41.566686630249 275.96382970512
27500	495851 4870 5314 10313 76 114.75 156 5.6500000953674 16.091711044312 2182.1149539948 32152.822545714
27499	500721 5234 5281 10313 75.75 114.75 157 184.17810058594 483.14999389648 62388.181030273 26498862.96239
27498	505955 5248 5281 10313 75.75 114.75 157 486.85000610352 732.49932861328 84205.941040039 46043799.532397
27404	511203 8620 1598 10371 37.25 115.25 313 0.973 12.553400930962 714.78432359752 3594.0317878026
27403	519823 7821 1598 10371 37.25 115.25 313 -8.2048759460449 4 42.585195541382 529.4234891482
27402	527644 7937 1581 10371 37 115.25 314 0 16.89999961853 2168.0612955093 32226.301420531
27401	535581 10397 1564 10371 36.75 115.25 315 239.35101318359 483.14999389648 144656.35690308 67467651.081819
27400	545978 10448 1564 10371 36.75 115.25 315 184.17810058594 483.36395263672 137032.55181885 61732809.804141
27446	556426 7876 2780 10569 52.5 117 259 0.973 12.099024792222 642.76860853218 3246.3379737042
27445	564302 8249 2780 10569 52.5 117 259 -3.9311633110046 2.5 41.057416915894 364.08767180885
27444	572551 8231 2755 10569 52.25 117 260 0 16.27499961853 2205.590019187 30186.092154457
27443	580782 8692 2732 10569 52 117 261 483.14999389648 732.47045898438 134128.58479309 70013739.480366
27442	589474 8659 2732 10569 52 117 261 184.17810058594 486.86489868164 110275.24401855 48583376.680094
vector 27589  IntersectionExampleScenario.node[36].veinsmobility  posx  ETV
vector 27590  IntersectionExampleScenario.node[36].veinsmobility  posy  ETV
vector 27591  IntersectionExampleScenario.node[36].veinsmobility  speed  ETV
vector 27592  IntersectionExampleScenario.node[36].veinsmobility  acceleration  ETV
vector 27593  IntersectionExampleScenario.node[36].veinsmobility  co2emission  ETV
27474	598534 6111 4559 10854 69.75 119.75 201 0.973 11.810082123732 563.12009149255 3016.1560959196
27473	604645 6359 4559 10854 69.75 119.75 201 -2.6142101287842 2.5 38.850629806519 325.31248768371
27472	611004 6428 4530 10854 69.5 119.75 202 1.3494530916214 15.875 2180.7250051498 28676.205909437
27471	617432 6808 4501 10854 69.25 119.75 203 237.95739746094 483.14999389648 90030.596832275 40920640.070635
27470	624240 6770 4501 10854 69.25 119.75 203 184.17810058594 483.14999389648 82603.817382812 35431394.03179
27495	631010 5807 5250 11075 75.5 122 187 0.973 11.450879080643 539.08322735555 2856.6523074546
27494	636817 5866 5250 11075 75.5 122 187 -2.9475250244141 2.5 37.15309715271 311.27359262768
27493	642683 6042 5218 11075 75.25 122 188 4.5476970672607 15.375 2207.1461648941 28512.322785947
27492	648725 6289 5185 11075 75 122 189 483.14999389648 732.87036132812 99861.259307861 53799366.158547
27491	655014 6340 5185 11075 75 122 189 184.17810058594 486.85000610352 75945.038452148 32339257.640035
27509	661354 5204 6040 11167 81.75 123 166 0.973 11.54047740176 503.46848259893 2760.5822901334
27508	666558 5211 6040 11167 81.75 123 166 -3.2240142822266 2.5 38.680875778198 232.3651921959
27507	671769 5418 6007 11167 81.5 123 167 5.6500000953674 15.5 2221.6351194382 30585.789694293
27506	677187 5681 5974 11167 81.25 123 168 483.14999389648 483.14999389648 81169.198974609 39216897.989165
27505	682868 5647 5974 11167 81.25 123 168 184.17810058594 734.25132751465 74974.103805542 37631803.116465
27516	688515 5333 6242 11315 83.25 124.75 167 0.973 11.648172402475 508.57123686805 2755.5094089623
27515	693848 5237 6242 11315 83.25 124.75 167 -3.2672920227051 2.5 39.699392318726 223.65316712277
27514	699085 5410 6207 11315 83 124.75 168 5.6500000953674 15.64999961853 2284.4182252884 32231.907372834
27513	704495 5721 6172 11315 82.75 124.75 169 483.14999389648 731.7607421875 89798.4168396 48670098.363335
27512	710216 5692 6172 11315 82.75 124.75 169 163.88433837891 487.06594848633 66085.054931641 27921526.206813
27523	715908 5476 6447 11440 84.75 126.25 167 0.95314095571029 11.648172402475 535.19175827205 2865.3449124259
27522	721384 5242 6447 11440 84.75 126.25 167 -4.5 2.5 41.396924972534 256.43089730732
27521	726626 5415 6412 11440 84.5 126.25 168 5.6500000953674 16.028867721558 2334.8486881256 33663.004353574
27520	732041 5733 6377 11440 84.25 126.25 169 483.14999389648 733.89756774902 89733.175018311 48606382.143643
27519	737774 5712 6377 11440 84.25 126.25 169 153.73748779297 486.85791015625 65319.212677002 27471316.39329
vector 27596  IntersectionExampleScenario.node[37].veinsmobility  posx  ETV
vector 27597  IntersectionExampleScenario.node[37].veinsmobility  posy  ETV
vector 27598  IntersectionExampleScenario.node[37].veinsmobility  speed  ETV
vector 27599  IntersectionExampleScenario.node[37].veinsmobility  acceleration  ETV
vector 27600  IntersectionExampleScenario.node[37].veinsmobility  co2emission  ETV
27425	743887 9775 2115 11904 44.75 132.25 351 0.973 11.648172402475 723.27064385561 3095.1577292612
27424	753662 8455 2115 11904 44.75 132.25 351 -33.347507476807 4 38.511121749878 1470.1154910821
27423	762117 8877 2094 11904 44.5 132.25 352 0 15.64999961853 2202.4096317291 31638.109856833
27422	770994 11848 2073 11904 44.25 132.25 353 483.14999389648 785.82187652588 187607.63300323 101952074.17864
27421	782842 11852 2073 11904 44.25 132.25 353 483.14999389648 733.24354553223 178940.90304565 91906209.912844
vector 27603  IntersectionExampleScenario.node[38].veinsmobility  posx  ETV
vector 27604  IntersectionExampleScenario.node[38].veinsmobility  posy  ETV
vector 27605  IntersectionExampleScenario.node[38].veinsmobility  speed  ETV
vector 27606  IntersectionExampleScenario.node[38].veinsmobility  acceleration  ETV
vector 27607  IntersectionExampleScenario.node[38].veinsmobility  co2emission  ETV
27432	795095 10301 2329 12067 47.25 134.25 349 0.973 11.200708441096 701.16283312474 2797.7388563147
27431	805396 9808 2329 12067 47.25 134.25 349 -4.3671455383301 2.5 35.795072555542 389.88083467915
27430	815204 10015 2306 12067 47 134.25 350 0 15.02499961853 2241.3963218611 29758.116055881
27429	825219 11689 2283 12067 46.75 134.25 351 486.85000610352 801.41563415527 189914.19528198 105244783.20288
27428	836908 11805 2283 12067 46.75 134.25 351 238.07922363281 483.14999389648 161146.73217773 75156874.661415
27488	848713 8068 4906 12281 72.75 137 258 0.973 11.450879080643 642.47541360082 2925.1035305779
27487	856781 8348 4906 12281 72.75 137 258 -4.5 2.5 41.736440658569 365.73595192599
27486	865129 8486 4875 12281 72.5 137 259 0 16.0980052948 2211.5778331086 29597.804879721
27485	873615 8805 4844 12281 72.25 137 260 483.11904907227 785.82187652588 144162.056633 81850108.06998
27484	882420 8821 4844 12281 72.25 137 260 483.14999389648 733.92706298828 133670.84831238 69815051.467094
27467	891241 8742 4305 12281 67.5 137 279 0.973 10.756497587458 611.85850595769 2506.388302533
27466	899983 9207 4305 12281 67.5 137 279 -3.8017702102661 2.5000009536743 34.77654838562 297.62320982371
27465	909190 9198 4276 12281 67.25 137 280 0 14.446394920349 2182.9473496266 27215.055341217
27464	918388 9492 4247 12281 67 137 281 486.85000610352 785.82187652588 154530.51423645 87004476.896613
27463	927880 9499 4247 12281 67 137 281 237.00085449219 483.14999389648 127104.05838013 58644052.289219
27544	937379 5917 7533 12405 92.5 138.75 186 0.973 11.648172402475 550.72058226497 2958.880316269
27543	943296 5862 7533 12405 92.5 138.75 186 -2.3249340057373 2.5 38.850629806519 309.49605880918
27542	949158 6208 7498 12405 92.25 138.75 187 3.2352786064148 15.64999961853 2215.8992145061 29510.183454824
27541	955366 6444 7463 12405 92 138.75 188 237.49633789062 785.82187652588 98799.409919739 56048487.49058
27540	961810 6467 7463 12405 92 138.75 188 483.14999389648 483.14999389648 90832.198852539 43885576.321208
vector 27610  IntersectionExampleScenario.node[39].veinsmobility  posx  ETV
vector 27611  IntersectionExampleScenario.node[39].veinsmobility  posy  ETV
vector 27612  IntersectionExampleScenario.node[39].veinsmobility  speed  ETV
vector 27613  IntersectionExampleScenario.node[39].veinsmobility  acceleration  ETV
vector 27614  IntersectionExampleScenario.node[39].veinsmobility  co2emission  ETV
vector 27617  IntersectionExampleScenario.node[40].veinsmobility  posx  ETV
vector 27618  IntersectionExampleScenario.node[40].veinsmobility  posy  ETV
vector 27619  IntersectionExampleScenario.node[40].veinsmobility  speed  ETV
27565	968910 5217 8892 12677 102.75 142.5 160 0.973 11.648172402475 541.1466722685 3423.5276746923
27564	974127 5065 8892 12677 102.75 142.5 160 -3.5705718994141 2.5 37.662351608276 306.00420609431
27563	979192 5305 8859 12677 102.5 142.5 161 5.6500000953674 15.64999961853 2209.9573287964 31180.342867342
27562	984497 5617 8826 12677 102.25 142.5 162 483.14999389648 785.82187652588 92646.336738586 54769520.06716
27561	990114 5607 8826 12677 102.25 142.5 162 483.14999389648 733.7253112793 86804.308258057 47487907.8992
vector 27620  IntersectionExampleScenario.node[40].veinsmobility  acceleration  ETV
vector 27621  IntersectionExampleScenario.node[40].veinsmobility  co2emission  ETV
vector 27624  IntersectionExampleScenario.node[41].veinsmobility  posx  ETV
vector 27625  IntersectionExampleScenario.node[41].veinsmobility  posy  ETV
vector 27626  IntersectionExampleScenario.node[41].veinsmobility  speed  ETV
vector 27627  IntersectionExampleScenario.node[41].veinsmobility  acceleration  ETV
vector 27628  IntersectionExampleScenario.node[41].veinsmobility  co2emission  ETV
vector 27631  IntersectionExampleScenario.node[42].veinsmobility  posx  ETV
vector 27632  IntersectionExampleScenario.node[42].veinsmobility  posy  ETV
vector 27633  IntersectionExampleScenario.node[42].veinsmobility  speed  ETV
vector 27634  IntersectionExampleScenario.node[42].veinsmobility  acceleration  ETV
vector 27635  IntersectionExampleScenario.node[42].veinsmobility  co2emission  ETV
27460	996692 9304 4085 13107 65.5 147.75 330 0.973 12.099024792222 713.65857379842 3349.47084963
27459	1005996 8456 4085 13107 65.5 147.75 330 -7.8776445388794 4 40.038900375366 513.03881719338
27458	1014452 8647 4058 13107 65.25 147.75 331 0 16.27499961853 2205.5864975452 32071.414867027
27457	1023099 11291 4031 13107 65 147.75 332 486.85000610352 486.85000610352 161634.20202637 78691612.243074
27456	1034390 11265 4031 13107 65 147.75 332 238.29949951172 785.82187652588 169198.31769562 90300975.633239
vector 27638  IntersectionExampleScenario.node[43].veinsmobility  posx  ETV
vector 27639  IntersectionExampleScenario.node[43].veinsmobility  posy  ETV
vector 27640  IntersectionExampleScenario.node[43].veinsmobility  speed  ETV
vector 27641  IntersectionExampleScenario.node[43].veinsmobility  acceleration  ETV
vector 27642  IntersectionExampleScenario.node[43].veinsmobility  co2emission  ETV
vector 27645  IntersectionExampleScenario.node[44].veinsmobility  posx  ETV
vector 27646  IntersectionExampleScenario.node[44].veinsmobility  posy  ETV
vector 27647  IntersectionExampleScenario.node[44].veinsmobility  speed  ETV
vector 27648  IntersectionExampleScenario.node[44].veinsmobility  acceleration  ETV
vector 27649  IntersectionExampleScenario.node[44].veinsmobility  co2emission  ETV
27572	1046457 5773 9553 13458 108.25 151.75 175 0.973 11.36141391502 541.10310091275 2937.6043009259
27571	1052230 5564 9553 13458 108.25 151.75 175 -2.9032115936279 2.5000019073486 37.15309715271 324.90455813952
27570	1057794 5828 9524 13458 108 151.75 176 5.6500000953674 15.25 2188.6365480423 29072.911422621
27569	1063622 6169 9495 13458 107.75 151.75 177 486.85000610352 734.12889099121 94580.002883911 51521473.274033
27568	1069791 6169 9495 13458 107.75 151.75 177 486.85000610352 785.82187652588 100867.75734711 59261894.138826
27579	1075960 6204 9615 13717 108.75 154.75 185 0.973 10.916047529558 546.92298859206 2671.1174901907
27578	1082164 5881 9615 13717 108.75 154.75 185 -4.5 2.5000019073486 35.795072555542 368.37064596151
27577	1088045 6197 9584 13717 108.5 154.75 186 5.2508845329285 14.82256603241 2275.3023147583 29582.649661762
27576	1094242 6522 9553 13717 108.25 154.75 187 486.85000610352 732.48661804199 99523.514083862 53968428.010025
27575	1100764 6520 9553 13717 108.25 154.75 187 486.79400634766 809.56562805176 108561.59429169 65245664.114865
vector 27652  IntersectionExampleScenario.node[45].veinsmobility  posx  ETV
vector 27653  IntersectionExampleScenario.node[45].veinsmobility  posy  ETV
vector 27654  IntersectionExampleScenario.node[45].veinsmobility  speed  ETV
vector 27655  IntersectionExampleScenario.node[45].veinsmobility  acceleration  ETV
vector 27656  IntersectionExampleScenario.node[45].veinsmobility  co2emission  ETV
27593	1107685 5130 10774 14008 119 158 157 0.96130954590988 12.319782330301 519.18515713573 3107.7091493947
27592	1112815 5211 10774 14008 119 158 157 -3.1737174987793 2.5 41.227186203003 277.41024872268
27591	1118026 5212 10747 14008 118.75 158 158 5.6500000953674 16.579271316528 2183.6846675873 31732.181709814
27590	1123238 5559 10720 14008 118.5 158 159 486.85000610352 732.73037719727 85281.869415283 46630995.226604
27589	1128797 5557 10720 14008 118.5 158 159 486.83340454102 785.82187652588 90958.530311584 53750325.548617
vector 27659  IntersectionExampleScenario.node[46].veinsmobility  posx  ETV
vector 27660  IntersectionExampleScenario.node[46].veinsmobility  posy  ETV
27530	1134508 9082 6555 14537 85.5 163.75 314 0.96333723109819 12.099024792222 694.98881736748 3298.7066743546
27529	1143590 8322 6555 14537 85.5 163.75 314 -8.6817770004272 4 40.208654403687 508.90561601963
27528	1151912 8410 6519 14537 85.25 163.75 315 0 16.27499961853 2170.6419680119 31293.1493309
27527	1160322 10861 6482 14537 85 163.75 316 184.17810058594 483.36395263672 137256.11248779 61765958.969105
27526	1171183 10817 6482 14537 85 163.75 316 486.85000610352 731.43809509277 161694.65292358 83817429.0066
vector 27661  IntersectionExampleScenario.node[46].veinsmobility  speed  ETV
vector 27662  IntersectionExampleScenario.node[46].veinsmobility  acceleration  ETV
vector 27663  IntersectionExampleScenario.node[46].veinsmobility  co2emission  ETV
vector 27666  IntersectionExampleScenario.node[47].veinsmobility  posx  ETV
vector 27667  IntersectionExampleScenario.node[47].veinsmobility  posy  ETV
vector 27673  IntersectionExampleScenario.node[48].veinsmobility  posx  ETV
vector 27674  IntersectionExampleScenario.node[48].veinsmobility  posy  ETV
vector 27668  IntersectionExampleScenario.node[47].veinsmobility  speed  ETV
vector 27669  IntersectionExampleScenario.node[47].veinsmobility  acceleration  ETV
vector 27670  IntersectionExampleScenario.node[47].veinsmobility  co2emission  ETV
vector 27675  IntersectionExampleScenario.node[48].veinsmobility  speed  ETV
vector 27676  IntersectionExampleScenario.node[48].veinsmobility  acceleration  ETV
vector 27677  IntersectionExampleScenario.node[48].veinsmobility  co2emission  ETV
27537	1183049 9664 6664 14802 86.25 166.5 322 0.973 11.810082123732 708.84540686972 3188.0356823795
27536	1192713 8791 6664 14802 86.25 166.5 322 -4.5 2.5 39.869146347046 480.28631033062
27535	1201504 9197 6627 14802 86 166.5 323 0 15.875 2284.0904835323 32482.319105152
27534	1210701 11148 6590 14802 85.75 166.5 324 161.1796875 483.25762939453 137997.91030884 61332904.968446
27533	1221849 11173 6590 14802 85.75 166.5 324 486.85000610352 735.05268859863 165861.86662292 86042713.535755
27551	1233022 8764 8503 14974 99.75 168.25 275 0.973 12.099024792222 659.01011489445 3263.1967866855
27550	1241786 9148 8503 14974 99.75 168.25 275 -3.8622448444366 2.5000004768372 41.057416915894 357.00556846408
27549	1250934 9223 8469 14974 99.5 168.25 276 0 16.27499961853 2209.7257360676 30024.498087261
27548	1260157 9608 8436 14974 99.25 168.25 277 184.17810058594 486.85000610352 116939.65509033 51336124.034584
27547	1269765 9638 8436 14974 99.25 168.25 277 236.71502685547 486.85000610352 126776.87646484 59131882.405852
vector 27680  IntersectionExampleScenario.node[49].veinsmobility  posx  ETV
vector 27681  IntersectionExampleScenario.node[49].veinsmobility  posy  ETV
vector 27682  IntersectionExampleScenario.node[49].veinsmobility  speed  ETV
vector 27687  IntersectionExampleScenario.node[50].veinsmobility  posx  ETV
vector 27688  IntersectionExampleScenario.node[50].veinsmobility  posy  ETV
vector 27683  IntersectionExampleScenario.node[49].veinsmobility  acceleration  ETV
vector 27684  IntersectionExampleScenario.node[49].veinsmobility  co2emission  ETV
vector 27694  IntersectionExampleScenario.node[51].veinsmobility  posx  ETV
vector 27695  IntersectionExampleScenario.node[51].veinsmobility  posy  ETV
vector 27689  IntersectionExampleScenario.node[50].veinsmobility  speed  ETV
vector 27690  IntersectionExampleScenario.node[50].veinsmobility  acceleration  ETV
vector 27691  IntersectionExampleScenario.node[50].veinsmobility  co2emission  ETV
vector 27696  IntersectionExampleScenario.node[51].veinsmobility  speed  ETV
vector 27697  IntersectionExampleScenario.node[51].veinsmobility  acceleration  ETV
vector 27698  IntersectionExampleScenario.node[51].veinsmobility  co2emission  ETV
vector 27701  IntersectionExampleScenario.node[52].veinsmobility  posx  ETV
vector 27702  IntersectionExampleScenario.node[52].veinsmobility  posy  ETV
vector 27703  IntersectionExampleScenario.node[52].veinsmobility  speed  ETV
vector 27704  IntersectionExampleScenario.node[52].veinsmobility  acceleration  ETV
vector 27705  IntersectionExampleScenario.node[52].veinsmobility  co2emission  ETV
27558	1281007 9272 8536 15992 100 179.25 318 0.973 12.353032912318 713.46122552885 3492.446017108
27557	1290279 8537 8536 15992 100 179.25 318 -7.0899138450623 4 41.736440658569 511.54719753958
27556	1298816 8559 8503 15992 99.75 179.25 319 0 16.625 2184.3440021276 32309.03737981
27555	1307375 11142 8469 15992 99.5 179.25 320 483.14999389648 733.34817504883 162597.22279358 83750096.224858
27554	1318517 11125 8469 15992 99.5 179.25 320 184.17810058594 486.85000610352 139515.32699585 62989208.353727
vector 27708  IntersectionExampleScenario.node[53].veinsmobility  posx  ETV
vector 27709  IntersectionExampleScenario.node[53].veinsmobility  posy  ETV
vector 27710  IntersectionExampleScenario.node[53].veinsmobility  speed  ETV
vector 27711  IntersectionExampleScenario.node[53].veinsmobility  acceleration  ETV
vector 27712  IntersectionExampleScenario.node[53].veinsmobility  co2emission  ETV
27586	1330043 8961 9878 16242 111 181.5 283 0.973 11.810082123732 653.60248191293 3099.0852882154
27585	1339004 9369 9878 16242 111 181.5 283 -3.6947979927063 2.5 39.699392318726 349.605167033
27584	1348373 9213 9849 16242 110.75 181.5 284 0 15.875 2188.1945383558 29294.50651739
27583	1357586 9965 9819 16242 110.5 181.5 285 236.12164306641 483.14999389648 129636.81143188 60062381.375778
27582	1367551 9934 9819 16242 110.5 181.5 285 184.17810058594 483.14999389648 121078.23449707 53458272.242039
vector 27715  IntersectionExampleScenario.node[54].veinsmobility  posx  ETV
vector 27716  IntersectionExampleScenario.node[54].veinsmobility  posy  ETV
vector 27717  IntersectionExampleScenario.node[54].veinsmobility  speed  ETV
vector 27718  IntersectionExampleScenario.node[54].veinsmobility  acceleration  ETV
vector 27719  IntersectionExampleScenario.node[54].veinsmobility  co2emission  ETV
27600	1377886 6732 11862 16567 131.75 184.25 211 0.973 11.450879080643 558.255126382 2759.0833081477
27599	1384618 6976 11862 16567 131.75 184.25 211 -3.6996831893921 2.5000004768372 37.15309715271 323.01212399757
27598	1391594 7145 11841 16567 131.5 184.25 212 0 15.375 2205.813455306 28649.984757099
27597	1398739 7448 11820 16567 131.25 184.25 213 483.14999389648 732.44692993164 111426.90393066 59365618.218561
27596	1406187 7421 11820 16567 131.25 184.25 213 184.17810058594 486.85000610352 87286.078796387 37668059.246954
27621	1413608 5651 12696 16784 142.75 186 174 0.973 12.099024792222 581.48601710448 3420.2979606374
27620	1419259 5422 12696 16784 142.75 186 174 -3.0947723388672 2.5 42.245687484741 362.21192944089
27619	1424681 5792 12677 16784 142.5 186 175 5.5809335708618 16.27499961853 2190.0969161987 30023.637006641
27618	1430473 6156 12658 16784 142.25 186 176 235.45111083984 483.14999389648 77208.909576416 34806404.03447
27617	1436629 6131 12658 16784 142.25 186 176 184.17810058594 483.25338745117 70363.931884766 29852813.241923
27628	1442760 5619 12890 16934 145.25 187.25 169 0.973 11.990504229548 532.60692019635 3028.3170850108
27627	1448379 5505 12890 16934 145.25 187.25 169 -6.3774070739746 2.5 39.529638290405 315.38029919344
27626	1453884 5690 12869 16934 145 187.25 170 5.6500000953674 16.125 2280.0859651566 31912.711314482
27625	1459574 5985 12848 16934 144.75 187.25 171 483.14999389648 483.14999389648 82618.648956299 39917199.738971
27624	1465559 5947 12848 16934 144.75 187.25 171 168.58435058594 732.77192687988 75041.438552856 37361385.850071
vector 27722  IntersectionExampleScenario.node[55].veinsmobility  posx  ETV
vector 27723  IntersectionExampleScenario.node[55].veinsmobility  posy  ETV
vector 27729  IntersectionExampleScenario.node[56].veinsmobility  posx  ETV
vector 27730  IntersectionExampleScenario.node[56].veinsmobility  posy  ETV
vector 27724  IntersectionExampleScenario.node[55].veinsmobility  speed  ETV
vector 27725  IntersectionExampleScenario.node[55].veinsmobility  acceleration  ETV
vector 27726  IntersectionExampleScenario.node[55].veinsmobility  co2emission  ETV
vector 27731  IntersectionExampleScenario.node[56].veinsmobility  speed  ETV
vector 27732  IntersectionExampleScenario.node[56].veinsmobility  acceleration  ETV
vector 27733  IntersectionExampleScenario.node[56].veinsmobility  co2emission  ETV
vector 27736  IntersectionExampleScenario.node[57].veinsmobility  posx  ETV
vector 27737  IntersectionExampleScenario.node[57].veinsmobility  posy  ETV
vector 27738  IntersectionExampleScenario.node[57].veinsmobility  speed  ETV
vector 27739  IntersectionExampleScenario.node[57].veinsmobility  acceleration  ETV
vector 27740  IntersectionExampleScenario.node[57].veinsmobility  co2emission  ETV
27663	1472709 5268 14584 18710 164.25 202.5 154 0.973 11.648172402475 469.21496155858 2457.4558325946
27662	1477977 4837 14584 18710 164.25 202.5 154 -3.0418663024902 2.5 38.171613693237 190.18313915527
27661	1482814 5194 14561 18710 164 202.5 155 5.6500000953674 15.64999961853 2212.8071584702 32216.61186922
27660	1488008 5447 14537 18710 163.75 202.5 156 237.82177734375 785.82187652588 81410.988975525 46608762.669011
27659	1493455 5460 14537 18710 163.75 202.5 156 483.14999389648 483.14999389648 75371.399047852 36415690.989939
vector 27743  IntersectionExampleScenario.node[58].veinsmobility  posx  ETV
vector 27744  IntersectionExampleScenario.node[58].veinsmobility  posy  ETV
vector 27745  IntersectionExampleScenario.node[58].veinsmobility  speed  ETV
vector 27746  IntersectionExampleScenario.node[58].veinsmobility  acceleration  ETV
vector 27747  IntersectionExampleScenario.node[58].veinsmobility  co2emission  ETV
27677	1499316 5637 14727 19103 165.75 206.5 164 0.973 11.200708441096 465.1662412354 2213.8780153726
27676	1504953 5137 14727 19103 165.75 206.5 164 -3.2890396118164 2.5 35.964826583862 170.18591807055
27675	1510090 5557 14702 19103 165.5 206.5 165 5.6500000953674 15.02499961853 2292.9423551559 32380.640819757
27674	1515647 5791 14677 19103 165.25 206.5 166 237.83190917969 806.11563110352 88154.223335266 51522535.13121
27673	1521438 5811 14677 19103 165.25 206.5 166 483.14999389648 483.14999389648 80202.898986816 38750030.155961
vector 27750  IntersectionExampleScenario.node[59].veinsmobility  posx  ETV
vector 27751  IntersectionExampleScenario.node[59].veinsmobility  posy  ETV
vector 27752  IntersectionExampleScenario.node[59].veinsmobility  speed  ETV
vector 27753  IntersectionExampleScenario.node[59].veinsmobility  acceleration  ETV
vector 27754  IntersectionExampleScenario.node[59].veinsmobility  co2emission  ETV
27607	1527650 9347 12004 19618 133.5 212.25 316 0.973 11.648172402475 680.61941258103 3019.0078887118
27606	1536997 8355 12004 19618 133.5 212.25 316 -7.4922199249268 4 38.171613693237 479.41769177267
27605	1545352 8689 11983 19618 133.25 212.25 317 0 15.64999961853 2175.1207141876 30519.901571347
27604	1554041 11059 11962 19618 133 212.25 318 486.85000610352 732.53002929688 162987.08840942 84660841.147403
27603	1565100 11118 11962 19618 133 212.25 318 486.63604736328 785.82187652588 170497.44872284 93590898.440038
27614	1576218 9319 12528 19751 140.5 214 295 0.973 11.200708441096 635.0087942513 2724.8447945109
27613	1585537 9803 12528 19751 140.5 214 295 -3.9143650531769 2.5 35.625318527222 324.69663850084
27612	1595340 9687 12509 19751 140.25 214 296 0 15.02499961853 2216.7433580607 28641.761673157
27611	1605027 10393 12490 19751 140 214 297 486.85000610352 486.85000610352 144594.45181274 70395809.747569
27610	1615420 10367 12490 19751 140 214 297 236.07043457031 785.82187652588 153012.92151642 83148615.640122
vector 27757  IntersectionExampleScenario.node[60].veinsmobility  posx  ETV
vector 27758  IntersectionExampleScenario.node[60].veinsmobility  posy  ETV
vector 27759  IntersectionExampleScenario.node[60].veinsmobility  speed  ETV
vector 27760  IntersectionExampleScenario.node[60].veinsmobility  acceleration  ETV
vector 27761  IntersectionExampleScenario.node[60].veinsmobility  co2emission  ETV
27642	1626188 8611 13300 19947 150 216.5 267 0.973 11.200708441096 607.94076375403 2688.6716088211
27641	1634799 8846 13300 19947 150 216.5 267 -3.9199948310852 2.5000009536743 35.964826583862 317.45403023459
27640	1643645 9086 13277 19947 149.75 216.5 268 0 15.02499961853 2213.3550638165 28031.142365212
27639	1652731 9406 13254 19947 149.5 216.5 269 235.16345214844 486.85000610352 122115.45056152 56629577.023619
27638	1662137 9396 13254 19947 149.5 216.5 269 483.13092041016 785.82187652588 148190.63607025 83653856.909521
vector 27764  IntersectionExampleScenario.node[61].veinsmobility  posx  ETV
vector 27765  IntersectionExampleScenario.node[61].veinsmobility  posy  ETV
vector 27766  IntersectionExampleScenario.node[61].veinsmobility  speed  ETV
vector 27767  IntersectionExampleScenario.node[61].veinsmobility  acceleration  ETV
vector 27768  IntersectionExampleScenario.node[61].veinsmobility  co2emission  ETV
vector 27771  IntersectionExampleScenario.node[62].veinsmobility  posx  ETV
vector 27772  IntersectionExampleScenario.node[62].veinsmobility  posy  ETV
27649	1672088 8646 13389 20037 151 217.5 267 0.973 11.99588389652 671.13379640401 3132.674321705
27648	1680734 9041 13389 20037 151 217.5 267 -4.5 2.5 41.929769515991 439.03385432391
27647	1689775 9093 13366 20037 150.75 217.5 268 0 16.132442474365 2288.2617916036 30190.771307175
27646	1698868 9410 13343 20037 150.5 217.5 269 238.81695556641 486.85000610352 122826.51565552 57182112.424311
27645	1708278 9388 13343 20037 150.5 217.5 269 483.119140625 807.99687957764 150746.90063477 86783966.249144
vector 27773  IntersectionExampleScenario.node[62].veinsmobility  speed  ETV
vector 27774  IntersectionExampleScenario.node[62].veinsmobility  acceleration  ETV
vector 27775  IntersectionExampleScenario.node[62].veinsmobility  co2emission  ETV
27656	1717913 8446 13847 20362 156.25 220.75 259 0.973 11.810082123732 654.03546314275 3265.0249447839
27655	1726359 8537 13847 20362 156.25 220.75 259 -3.8390889167786 2.5 39.190130233765 492.67808551291
27654	1734896 8610 13824 20362 156 220.75 260 0 15.875 2214.4453407228 29118.036622773
27653	1743506 9135 13801 20362 155.75 220.75 261 486.85000610352 732.98652648926 135136.96388245 71039142.485825
27652	1752641 9120 13801 20362 155.75 220.75 261 486.85000610352 793.68839263916 145883.8836441 83526319.807347
27684	1761761 6308 15438 20562 173.75 222.75 197 0.973 12.099024792222 575.8492043609 3197.8167519701
27683	1768069 6440 15438 20562 173.75 222.75 197 -2.2845897674561 2.5 40.038900375366 344.01009107527
27682	1774509 6596 15417 20562 173.5 222.75 198 2.3148441314697 16.27499961853 2182.1180129051 28517.683185127
27681	1781105 6961 15396 20562 173.25 222.75 199 486.85000610352 732.16932678223 104806.53541565 56172095.670634
27680	1788066 6947 15396 20562 173.25 222.75 199 486.75277709961 785.82187652588 112871.86606598 65778982.687561
vector 27778  IntersectionExampleScenario.node[63].veinsmobility  posx  ETV
vector 27779  IntersectionExampleScenario.node[63].veinsmobility  posy  ETV
vector 27780  IntersectionExampleScenario.node[63].veinsmobility  speed  ETV
27691	1795245 6760 15486 20864 174.25 225.75 207 0.973 11.481647711142 577.2327929473 2908.3597783931
27690	1802005 6787 15486 20864 174.25 225.75 207 -4.5 2.5 36.813589096069 439.09043597535
27689	1808792 6968 15461 20864 174 225.75 208 1.6110773086548 15.417946815491 2278.4979469776 28914.072443272
27688	1815760 7306 15438 20864 173.75 225.75 209 486.85000610352 732.76254272461 110109.83752441 59042949.768635
27687	1823066 7294 15438 20864 173.75 225.75 209 486.73962402344 809.56562805176 120626.83628845 71876158.939972
vector 27781  IntersectionExampleScenario.node[63].veinsmobility  acceleration  ETV
vector 27782  IntersectionExampleScenario.node[63].veinsmobility  co2emission  ETV
27719	1830529 5487 16536 20891 184 226 169 0.973 11.648172402475 526.14161760263 3012.2759133667
27718	1836016 5357 16536 20891 184 226 169 -2.2796249389648 2.5 39.020376205444 255.37586631987
27717	1841373 5720 16505 20891 183.75 226 170 5.6500000953674 15.64999961853 2215.468588829 30044.131870644
27716	1847093 5984 16474 20891 183.5 226 171 486.85000610352 486.85000610352 83251.351043701 40530920.763752
27715	1853077 5974 16474 20891 183.5 226 171 237.40618896484 785.82187652588 89927.875511169 51437104.310817
27635	1859051 9406 13062 21053 147.25 227.5 322 0.973 12.553400930962 724.86425416458 3606.8769169714
27634	1868457 8561 13062 21053 147.25 227.5 322 -8.2048778533936 4 42.585195541382 529.42350602441
27633	1877018 8693 13039 21053 147 227.5 323 0 16.89999961853 2184.3575949669 32491.870782956
27632	1885711 11318 13016 21053 146.75 227.5 324 184.17810058594 483.36395263672 141288.50180054 63745496.212407
27631	1897029 11264 13016 21053 146.75 227.5 324 486.85000610352 734.72305297852 165523.16633606 85653820.26251
vector 27785  IntersectionExampleScenario.node[64].veinsmobility  posx  ETV
vector 27786  IntersectionExampleScenario.node[64].veinsmobility  posy  ETV
vector 27787  IntersectionExampleScenario.node[64].veinsmobility  speed  ETV
vector 27792  IntersectionExampleScenario.node[65].veinsmobility  posx  ETV
vector 27793  IntersectionExampleScenario.node[65].veinsmobility  posy  ETV
vector 27788  IntersectionExampleScenario.node[64].veinsmobility  acceleration  ETV
vector 27789  IntersectionExampleScenario.node[64].veinsmobility  co2emission  ETV
vector 27794  IntersectionExampleScenario.node[65].veinsmobility  speed  ETV
vector 27795  IntersectionExampleScenario.node[65].veinsmobility  acceleration  ETV
vector 27796  IntersectionExampleScenario.node[65].veinsmobility  co2emission  ETV
vector 27799  IntersectionExampleScenario.node[66].veinsmobility  posx  ETV
vector 27800  IntersectionExampleScenario.node[66].veinsmobility  posy  ETV
vector 27801  IntersectionExampleScenario.node[66].veinsmobility  speed  ETV
vector 27802  IntersectionExampleScenario.node[66].veinsmobility  acceleration  ETV
vector 27803  IntersectionExampleScenario.node[66].veinsmobility  co2emission  ETV
vector 27806  IntersectionExampleScenario.node[67].veinsmobility  posx  ETV
vector 27807  IntersectionExampleScenario.node[67].veinsmobility  posy  ETV
vector 27808  IntersectionExampleScenario.node[67].veinsmobility  speed  ETV
27670	1909728 9070 14702 22469 165.5 242.75 310 0.973 12.80944146078 725.23203460059 3783.1694628552
27669	1918798 8272 14702 22469 165.5 242.75 310 -6.7546281814575 4 44.112981796265 515.17408159856
27668	1927070 8408 14677 22469 165.25 242.75 311 0 17.25 2181.0812213421 33126.141202517
27667	1935478 10917 14653 22469 165 242.75 312 483.14999389648 732.32774353027 158404.30421448 81504491.270296
27666	1946395 10892 14653 22469 165 242.75 312 184.17810058594 486.85000610352 135945.02670288 61360350.904216
vector 27809  IntersectionExampleScenario.node[67].veinsmobility  acceleration  ETV
vector 27810  IntersectionExampleScenario.node[67].veinsmobility  co2emission  ETV
vector 27813  IntersectionExampleScenario.node[68].veinsmobility  posx  ETV
vector 27814  IntersectionExampleScenario.node[68].veinsmobility  posy  ETV
vector 27815  IntersectionExampleScenario.node[68].veinsmobility  speed  ETV
vector 27816  IntersectionExampleScenario.node[68].veinsmobility  acceleration  ETV
vector 27817  IntersectionExampleScenario.node[68].veinsmobility  co2emission  ETV
vector 27820  IntersectionExampleScenario.node[69].veinsmobility  posx  ETV
vector 27821  IntersectionExampleScenario.node[69].veinsmobility  posy  ETV
vector 27822  IntersectionExampleScenario.node[69].veinsmobility  speed  ETV
vector 27823  IntersectionExampleScenario.node[69].veinsmobility  acceleration  ETV
vector 27824  IntersectionExampleScenario.node[69].veinsmobility  co2emission  ETV
27698	1958258 9241 15511 22831 174.5 246.5 289 0.973 10.756497587458 618.77605171743 2499.1893479007
27697	1967499 9520 15511 22831 174.5 246.5 289 -3.8587074279785 2.5 33.927785873413 311.75157224016
27696	1977019 9565 15486 22831 174.25 246.5 290 0 14.39999961853 2218.3116081851 27978.757372531
27695	1986584 10184 15461 22831 174 246.5 291 483.14999389648 483.14999389648 140596.64822388 67929269.731232
27694	1996768 10131 15461 22831 174 246.5 291 184.17810058594 734.45755004883 132393.57098389 64658638.297312
27712	2006899 8726 16213 23081 181.25 249 272 0.973 11.450879080643 621.90275250158 2751.7564561727
27711	2015625 9115 16213 23081 181.25 249 272 -3.886415719986 2.5000009536743 36.643835067749 332.08868664165
27710	2024740 9202 16184 23081 181 249 273 0 15.375 2214.4008403346 27830.600859281
27709	2033942 9577 16155 23081 180.75 249 274 483.14999389648 734.9426574707 141137.42138672 73890082.937811
27708	2043519 9554 16155 23081 180.75 249 274 184.17810058594 486.85000610352 114779.71957397 50099908.351349
vector 27827  IntersectionExampleScenario.node[70].veinsmobility  posx  ETV
vector 27828  IntersectionExampleScenario.node[70].veinsmobility  posy  ETV
vector 27829  IntersectionExampleScenario.node[70].veinsmobility  speed  ETV
vector 27830  IntersectionExampleScenario.node[70].veinsmobility  acceleration  ETV
vector 27831  IntersectionExampleScenario.node[70].veinsmobility  co2emission  ETV
27740	2053474 6903 18189 23347 197.75 251.5 216 0.973 11.200708441096 554.1879663069 2607.7633506479
27739	2060377 7036 18189 23347 197.75 251.5 216 -3.8796498775482 2.5 35.964826583862 319.4115229674
27738	2067413 7318 18160 23347 197.5 251.5 217 0 15.02499961853 2213.1724910885 28151.436524918
27737	2074731 7619 18130 23347 197.25 251.5 218 483.14999389648 734.53749084473 114153.47906494 60897620.118626
27736	2082350 7596 18130 23347 197.25 251.5 218 184.17810058594 486.88055419922 89149.456298828 38356988.481541
27747	2089946 6123 19028 23509 205.75 253 190 0.973 11.648172402475 531.63079875364 2657.3481825283
27746	2096069 6206 19028 23509 205.75 253 190 -2.2614784240723 2.5 37.662351608276 262.29502882394
27745	2102275 6424 19003 23509 205.5 253 191 4.0942506790161 15.64999961853 2204.3513970375 28236.485555936
27744	2108699 6705 18978 23509 205.25 253 192 483.14999389648 732.73173522949 101237.6907959 54415425.09999
27743	2115404 6693 18978 23509 205.25 253 192 184.17810058594 486.88021850586 77119.331451416 32792517.695642
27768	2122097 4879 20014 23644 217.25 254.25 149 0.90753377507377 12.553400930962 558.63698419878 3931.6990955245
27767	2126976 4749 20014 23644 217.25 254.25 149 -3.4586524963379 2.5000038146973 43.094457626343 300.02641340593
27766	2131725 4998 19991 23644 217 254.25 150 5.6500000953674 16.89999961853 2221.7739419937 33786.613881619
27765	2136723 5285 19968 23644 216.75 254.25 151 483.14999389648 483.14999389648 72955.649078369 35248521.406928
27764	2142008 5229 19968 23644 216.75 254.25 151 184.17810058594 734.11981201172 67308.410873413 33970466.017713
vector 27834  IntersectionExampleScenario.node[71].veinsmobility  posx  ETV
vector 27835  IntersectionExampleScenario.node[71].veinsmobility  posy  ETV
vector 27836  IntersectionExampleScenario.node[71].veinsmobility  speed  ETV
vector 27837  IntersectionExampleScenario.node[71].veinsmobility  acceleration  ETV
vector 27838  IntersectionExampleScenario.node[71].veinsmobility  co2emission  ETV
vector 27841  IntersectionExampleScenario.node[72].veinsmobility  posx  ETV
vector 27842  IntersectionExampleScenario.node[72].veinsmobility  posy  ETV
vector 27843  IntersectionExampleScenario.node[72].veinsmobility  speed  ETV
vector 27844  IntersectionExampleScenario.node[72].veinsmobility  acceleration  ETV
vector 27845  IntersectionExampleScenario.node[72].veinsmobility  co2emission  ETV
vector 27848  IntersectionExampleScenario.node[73].veinsmobility  posx  ETV
vector 27849  IntersectionExampleScenario.node[73].veinsmobility  posy  ETV
vector 27850  IntersectionExampleScenario.node[73].veinsmobility  speed  ETV
27705	2148271 9729 15965 24428 179 261 329 0.973 11.200708441096 672.36933904461 2759.7566617063
27704	2158000 8655 15965 24428 179 261 329 -7.2424693107605 4 35.455564498901 448.16378211868
27703	2166655 9059 15938 24428 178.75 261 330 0 15.02499961853 2181.8535255194 29453.276232969
27702	2175714 11573 15911 24428 178.5 261 331 486.63604736328 785.82187652588 177312.28160858 97216359.097865
27701	2187287 11520 15911 24428 178.5 261 331 235.55383300781 483.14999389648 151263.49987793 70325984.085025
vector 27851  IntersectionExampleScenario.node[73].veinsmobility  acceleration  ETV
vector 27852  IntersectionExampleScenario.node[73].veinsmobility  co2emission  ETV
vector 27855  IntersectionExampleScenario.node[74].veinsmobility  posx  ETV
vector 27856  IntersectionExampleScenario.node[74].veinsmobility  posy  ETV
vector 27857  IntersectionExampleScenario.node[74].veinsmobility  speed  ETV
vector 27858  IntersectionExampleScenario.node[74].veinsmobility  acceleration  ETV
vector 27859  IntersectionExampleScenario.node[74].veinsmobility  co2emission  ETV
vector 27862  IntersectionExampleScenario.node[75].veinsmobility  posx  ETV
vector 27863  IntersectionExampleScenario.node[75].veinsmobility  posy  ETV
vector 27864  IntersectionExampleScenario.node[75].veinsmobility  speed  ETV
vector 27865  IntersectionExampleScenario.node[75].veinsmobility  acceleration  ETV
vector 27866  IntersectionExampleScenario.node[75].veinsmobility  co2emission  ETV
vector 27869  IntersectionExampleScenario.node[76].veinsmobility  posx  ETV
vector 27870  IntersectionExampleScenario.node[76].veinsmobility  posy  ETV
vector 27871  IntersectionExampleScenario.node[76].veinsmobility  speed  ETV
vector 27872  IntersectionExampleScenario.node[76].veinsmobility  acceleration  ETV
vector 27873  IntersectionExampleScenario.node[76].veinsmobility  co2emission  ETV
vector 27876  IntersectionExampleScenario.node[77].veinsmobility  posx  ETV
vector 27877  IntersectionExampleScenario.node[77].veinsmobility  posy  ETV
vector 27883  IntersectionExampleScenario.node[78].veinsmobility  posx  ETV
vector 27884  IntersectionExampleScenario.node[78].veinsmobility  posy  ETV
vector 27878  IntersectionExampleScenario.node[77].veinsmobility  speed  ETV
vector 27885  IntersectionExampleScenario.node[78].veinsmobility  speed  ETV
vector 27879  IntersectionExampleScenario.node[77].veinsmobility  acceleration  ETV
vector 27880  IntersectionExampleScenario.node[77].veinsmobility  co2emission  ETV
vector 27886  IntersectionExampleScenario.node[78].veinsmobility  acceleration  ETV
vector 27887  IntersectionExampleScenario.node[78].veinsmobility  co2emission  ETV
vector 27890  IntersectionExampleScenario.node[79].veinsmobility  posx  ETV
vector 27891  IntersectionExampleScenario.node[79].veinsmobility  posy  ETV
vector 27892  IntersectionExampleScenario.node[79].veinsmobility  speed  ETV
vector 27893  IntersectionExampleScenario.node[79].veinsmobility  acceleration  ETV
vector 27894  IntersectionExampleScenario.node[79].veinsmobility  co2emission  ETV
27726	2201382 9948 17368 26484 191 276.5 343 0.973 11.36141391502 697.61417201482 3050.5606695644
27725	2211330 9229 17368 26484 191 276.5 343 -8.9495363235474 4 37.32285118103 491.42384538962
27724	2220559 9298 17337 26484 190.75 276.5 344 0 15.25 2177.9986174107 29902.680342307
27723	2229857 12011 17308 26484 190.5 276.5 345 486.85000610352 733.68672180176 176314.07632446 91274835.860742
27722	2241868 12070 17308 26484 190.5 276.5 345 486.63604736328 785.82187652588 184170.43215179 100544379.5552
vector 27897  IntersectionExampleScenario.node[80].veinsmobility  posx  ETV
vector 27898  IntersectionExampleScenario.node[80].veinsmobility  posy  ETV
vector 27899  IntersectionExampleScenario.node[80].veinsmobility  speed  ETV
vector 27904  IntersectionExampleScenario.node[81].veinsmobility  posx  ETV
vector 27905  IntersectionExampleScenario.node[81].veinsmobility  posy  ETV
vector 27900  IntersectionExampleScenario.node[80].veinsmobility  acceleration  ETV
vector 27901  IntersectionExampleScenario.node[80].veinsmobility  co2emission  ETV
vector 27906  IntersectionExampleScenario.node[81].veinsmobility  speed  ETV
vector 27907  IntersectionExampleScenario.node[81].veinsmobility  acceleration  ETV
vector 27908  IntersectionExampleScenario.node[81].veinsmobility  co2emission  ETV
27733	2254740 10402 17399 26845 191.25 279 352 0.973 11.36141391502 710.0023034129 2845.5920272109
27732	2265142 9747 17399 26845 191.25 279 352 -4.5 2.5 37.32285118103 433.68014010441
27731	2274889 9828 17368 26845 191 279 353 0 15.25 2287.6416955888 30983.692457242
27730	2284717 12381 17337 26845 190.75 279 354 486.85000610352 734.54745483398 180757.90817261 93483018.736864
27729	2297098 12377 17337 26845 190.75 279 354 486.85000610352 810.23281097412 192251.54530334 107142467.49363
vector 27911  IntersectionExampleScenario.node[82].veinsmobility  posx  ETV
vector 27912  IntersectionExampleScenario.node[82].veinsmobility  posy  ETV
vector 27913  IntersectionExampleScenario.node[82].veinsmobility  speed  ETV
vector 27914  IntersectionExampleScenario.node[82].veinsmobility  acceleration  ETV
vector 27915  IntersectionExampleScenario.node[82].veinsmobility  co2emission  ETV
27754	2309876 9250 19315 27150 208.75 281 290 0.973 11.450879080643 642.95724687995 2857.9111583447
27753	2319126 9695 19315 27150 208.75 281 290 -3.7090089321136 2.5000019073486 37.15309715271 327.74182936065
27752	2328821 9666 19290 27150 208.5 281 291 0 15.375 2207.7000638796 28627.512638332
27751	2338487 10209 19265 27150 208.25 281 292 237.21282958984 486.85000610352 133620.21688843 62316334.544558
27750	2348696 10204 19265 27150 208.25 281 292 483.14999389648 785.82187652588 159707.9238205 89388486.806582
27796	2358900 6158 21626 27261 233.5 281.75 194 0.973 12.099024792222 567.30386868719 3159.960303239
27795	2365058 6376 21626 27261 233.5 281.75 194 -2.1363754272461 2.5 40.038900375366 331.29377796624
27794	2371434 6606 21601 27261 233.25 281.75 195 1.7880659103394 16.27499961853 2215.2334988117 29951.104916215
27793	2378040 6860 21576 27261 233 281.75 196 486.85000610352 486.85000610352 95422.601196289 46456493.974827
27792	2384900 6833 21576 27261 233 281.75 196 237.48474121094 785.82187652588 102813.17090607 57992153.432911
vector 27918  IntersectionExampleScenario.node[83].veinsmobility  posx  ETV
vector 27919  IntersectionExampleScenario.node[83].veinsmobility  posy  ETV
vector 27925  IntersectionExampleScenario.node[84].veinsmobility  posx  ETV
vector 27926  IntersectionExampleScenario.node[84].veinsmobility  posy  ETV
vector 27920  IntersectionExampleScenario.node[83].veinsmobility  speed  ETV
vector 27921  IntersectionExampleScenario.node[83].veinsmobility  acceleration  ETV
vector 27922  IntersectionExampleScenario.node[83].veinsmobility  co2emission  ETV
vector 27927  IntersectionExampleScenario.node[84].veinsmobility  speed  ETV
vector 27928  IntersectionExampleScenario.node[84].veinsmobility  acceleration  ETV
vector 27929  IntersectionExampleScenario.node[84].veinsmobility  co2emission  ETV
vector 27932  IntersectionExampleScenario.node[85].veinsmobility  posx  ETV
vector 27933  IntersectionExampleScenario.node[85].veinsmobility  posy  ETV
27761	2392689 8913 19926 28757 216.25 291.5 302 0.973 12.26218747632 700.01857355509 3451.9308959489
27760	2401602 8054 19926 28757 216.25 291.5 302 -7.2936158180237 4 42.245687484741 502.44978717067
27759	2409656 8286 19905 28757 216 291.5 303 0 16.5 2181.1264528036 32226.817794884
27758	2417942 10610 19884 28757 215.75 291.5 304 184.17810058594 483.36395263672 131779.42837524 59238562.217052
27757	2428552 10559 19884 28757 215.75 291.5 304 486.85000610352 733.79710388184 155765.36526489 80885247.701884
vector 27934  IntersectionExampleScenario.node[85].veinsmobility  speed  ETV
vector 27935  IntersectionExampleScenario.node[85].veinsmobility  acceleration  ETV
vector 27936  IntersectionExampleScenario.node[85].veinsmobility  co2emission  ETV
vector 27939  IntersectionExampleScenario.node[86].veinsmobility  posx  ETV
vector 27940  IntersectionExampleScenario.node[86].veinsmobility  posy  ETV
vector 27941  IntersectionExampleScenario.node[86].veinsmobility  speed  ETV
vector 27942  IntersectionExampleScenario.node[86].veinsmobility  acceleration  ETV
vector 27943  IntersectionExampleScenario.node[86].veinsmobility  co2emission  ETV
27775	2439759 9598 20087 29233 218 294.5 307 0.973 12.099024792222 702.18587575611 3320.6620918125
27774	2449357 9141 20087 29233 218 294.5 307 -4.5 2.5 40.887662887573 453.91320645942
27773	2458498 9413 20062 29233 217.75 294.5 308 0 16.27499961853 2265.7837619707 32464.221548246
27772	2467911 10769 20037 29233 217.5 294.5 309 164.94219970703 483.14999389648 131423.61791992 58330824.006031
27771	2478680 10809 20037 29233 217.5 294.5 309 486.85000610352 734.21775817871 158390.49996948 82289608.249757
vector 27946  IntersectionExampleScenario.node[87].veinsmobility  posx  ETV
vector 27947  IntersectionExampleScenario.node[87].veinsmobility  posy  ETV
vector 27948  IntersectionExampleScenario.node[87].veinsmobility  speed  ETV
vector 27949  IntersectionExampleScenario.node[87].veinsmobility  acceleration  ETV
vector 27950  IntersectionExampleScenario.node[87].veinsmobility  co2emission  ETV
27803	2489890 7719 21892 29468 236.25 296 240 0.973 12.099024792222 624.58372685561 3248.7544879634
27802	2497609 8020 21892 29468 236.25 296 240 -3.7895078659058 2.5 41.227170944214 357.6726848843
27801	2505629 8220 21867 29468 236 296 241 0 16.27499961853 2225.6966001075 30626.038239683
27800	2513849 8409 21842 29468 235.75 296 242 184.17810058594 735.20901489258 108748.44720459 52938923.286683
27799	2522258 8469 21842 29468 235.75 296 242 486.85000610352 486.85000610352 117817.70147705 57359548.683204
vector 27953  IntersectionExampleScenario.node[88].veinsmobility  posx  ETV
vector 27954  IntersectionExampleScenario.node[88].veinsmobility  posy  ETV
vector 27955  IntersectionExampleScenario.node[88].veinsmobility  speed  ETV
vector 27956  IntersectionExampleScenario.node[88].veinsmobility  acceleration  ETV
vector 27957  IntersectionExampleScenario.node[88].veinsmobility  co2emission  ETV
27810	2531128 7341 22492 30121 243 300.25 230 0.973 10.756497587458 559.8767494562 2469.7729352064
27809	2538469 7431 22492 30121 243 300.25 230 -3.9582717418671 2.5000009536743 34.267293930054 302.70797002929
27808	2545900 7890 22469 30121 242.75 300.25 231 0 14.39999961853 2219.2849451117 27462.479908074
27807	2553790 8062 22446 30121 242.5 300.25 232 184.17810058594 734.23254394531 103778.61730957 50833300.608846
27806	2561852 8120 22446 30121 242.5 300.25 232 486.85000610352 486.85000610352 112949.20141602 54989319.398774
vector 27960  IntersectionExampleScenario.node[89].veinsmobility  posx  ETV
vector 27961  IntersectionExampleScenario.node[89].veinsmobility  posy  ETV
vector 27962  IntersectionExampleScenario.node[89].veinsmobility  speed  ETV
vector 27963  IntersectionExampleScenario.node[89].veinsmobility  acceleration  ETV
vector 27964  IntersectionExampleScenario.node[89].veinsmobility  co2emission  ETV
vector 27967  IntersectionExampleScenario.node[90].veinsmobility  posx  ETV
vector 27968  IntersectionExampleScenario.node[90].veinsmobility  posy  ETV
vector 27969  IntersectionExampleScenario.node[90].veinsmobility  speed  ETV
vector 27970  IntersectionExampleScenario.node[90].veinsmobility  acceleration  ETV
vector 27971  IntersectionExampleScenario.node[90].veinsmobility  co2emission  ETV
27782	2570774 9675 20891 31220 226 308 329 0.973 11.648172402475 695.4765234785 3053.2372753389
27781	2580449 8692 20891 31220 226 308 329 -7.0929417610168 4 38.341367721558 478.53536989279
27780	2589141 8978 20864 31220 225.75 308 330 0 15.64999961853 2185.1120396852 30881.109330726
27779	2598119 11577 20837 31220 225.5 308 331 483.14999389648 733.70735168457 168360.80534363 86830039.234055
27778	2609696 11557 20837 31220 225.5 308 331 184.17810058594 486.85000610352 144348.40710449 65167260.231747
27789	2621253 9691 21576 31528 233 310.25 310 0.973 11.36141391502 650.23386812749 2814.5643894338
27788	2630944 10103 21576 31528 233 310.25 310 -3.9336032867432 2.5 35.964826583862 328.71805816335
27787	2641047 9913 21553 31528 232.75 310.25 311 0 15.25 2183.8125042208 27990.17336549
27786	2650960 10918 21530 31528 232.5 310.25 312 236.84759521484 483.14999389648 142253.98825073 66020848.949376
27785	2661878 10881 21530 31528 232.5 310.25 312 184.17810058594 483.14999389648 133328.66317749 59079796.931295
27817	2672759 8815 22564 31756 243.75 312 274 0.97223939240464 11.648172402475 633.59421898089 2940.3306752363
27816	2681574 9184 22564 31756 243.75 312 274 -3.8888838291168 2.5 38.680875778198 329.72582359371
27815	2690758 9234 22540 31756 243.5 312 275 0 15.64999961853 2177.2536506588 28252.973957017
27814	2699992 9649 22515 31756 243.25 312 276 238.67932128906 483.14999389648 125316.75115967 57969585.937174
27813	2709641 9613 22515 31756 243.25 312 276 184.17810058594 483.14999389648 115920.8772583 50647434.577889
vector 27974  IntersectionExampleScenario.node[91].veinsmobility  posx  ETV
vector 27975  IntersectionExampleScenario.node[91].veinsmobility  posy  ETV
vector 27976  IntersectionExampleScenario.node[91].veinsmobility  speed  ETV
vector 27977  IntersectionExampleScenario.node[91].veinsmobility  acceleration  ETV
vector 27978  IntersectionExampleScenario.node[91].veinsmobility  co2emission  ETV
27831	2719655 8408 23185 32077 250 314.5 259 0.973 11.810082123732 624.45352851597 3066.7688007874
27830	2728063 8686 23185 32077 250 314.5 259 -3.8112237453461 2.5 39.529638290405 377.76180375245
27829	2736749 8753 23158 32077 249.75 314.5 260 0 15.875 2184.8057082407 28943.156193619
27828	2745502 9130 23131 32077 249.5 314.5 261 236.99389648438 483.14999389648 118079.109375 54486098.274672
27827	2754632 9093 23131 32077 249.5 314.5 261 184.17810058594 483.32131958008 108674.21405029 47145371.299138
27866	2763725 6536 24939 32318 265.25 316.5 206 0.96333723109819 12.099024792222 576.97785687487 3134.9859593331
27865	2770261 6778 24939 32318 265.25 316.5 206 -2.1729011535645 2.5 40.208654403687 321.67070855424
27864	2777039 6914 24908 32318 265 316.5 207 1.2378273010254 16.27499961853 2181.5102436543 28632.859257461
27863	2783953 7271 24877 32318 264.75 316.5 208 237.74743652344 483.14999389648 92588.577941895 42201511.106576
27862	2791224 7250 24877 32318 264.75 316.5 208 184.17810058594 483.14999389648 84380.404388428 36010837.53744
vector 27981  IntersectionExampleScenario.node[92].veinsmobility  posx  ETV
vector 27982  IntersectionExampleScenario.node[92].veinsmobility  posy  ETV
vector 27983  IntersectionExampleScenario.node[92].veinsmobility  speed  ETV
27887	2798706 6283 25502 32494 269.75 318 194 0.973 11.648172402475 548.69912118793 2898.0206325059
27886	2804989 6427 25502 32494 269.75 318 194 -3.5666961669922 2.5 37.662351608276 307.45145420452
27885	2811416 6581 25467 32494 269.5 318 195 3.0816490650177 15.64999961853 2224.5085134506 29146.631173776
27884	2817997 6860 25432 32494 269.25 318 196 483.14999389648 483.14999389648 94697.398803711 45753047.654026
27883	2824857 6825 25432 32494 269.25 318 196 184.17810058594 735.17555236816 87127.60848999 42979488.517209
vector 27984  IntersectionExampleScenario.node[92].veinsmobility  acceleration  ETV
vector 27985  IntersectionExampleScenario.node[92].veinsmobility  co2emission  ETV
27894	2831851 6542 25751 32845 271.5 321 199 0.973 10.756497587458 520.02433216686 2301.8220469238
27893	2838393 6447 25751 32845 271.5 321 199 -2.8809356689453 2.5 34.267293930054 226.51870766976
27892	2844840 6785 25714 32845 271.25 321 200 3.2641515731812 14.39999961853 2289.7409591675 28731.682227773
27891	2851625 7033 25677 32845 271 321 201 483.14999389648 483.14999389648 97113.148773193 46920217.237037
27890	2858658 7003 25677 32845 271 321 201 164.94219970703 732.7756652832 87823.714065552 43209782.228498
27824	2865661 9339 22706 33222 245.25 324.25 317 0.973 11.810082123732 685.24399323427 3135.3205300052
27823	2875000 8537 22706 33222 245.25 324.25 317 -7.7750473022461 4 38.511121749878 481.76489070548
27822	2883537 8686 22681 33222 245 324.25 318 0 15.875 2181.7101407051 30752.64095389
27821	2892223 11154 22656 33222 244.75 324.25 319 486.63604736328 785.82187652588 170964.22815704 93801904.574814
27820	2903377 11087 22656 33222 244.75 324.25 319 235.74822998047 483.14999389648 145896.65420532 67868103.163202
27838	2914464 8916 23837 33380 256 325.75 280 0.973 11.648172402475 642.12269325775 2895.1252707273
27837	2923380 9269 23837 33380 256 325.75 280 -3.7288699150085 2.5 38.341367721558 336.81807335113
27836	2932649 9249 23808 33380 255.75 325.75 281 0 15.64999961853 2214.2233262239 29319.299860862
27835	2941898 9837 23779 33380 255.5 325.75 282 483.13436889648 785.82187652588 153709.83083344 85840578.663177
27834	2951735 9862 23779 33380 255.5 325.75 282 483.14999389648 734.91493225098 144777.79011536 75500616.179608
27845	2961597 8778 24189 33505 259 327 273 0.973 11.990504229548 656.75739425502 3161.2726445931
27844	2970375 9343 24189 33505 259 327 273 -4.3988723754883 2.5000009536743 40.038900375366 401.22865009655
27843	2979718 9355 24158 33505 258.75 327 274 0 16.125 2267.0772681255 30344.437822607
27842	2989073 9587 24127 33505 258.5 327 275 236.85400390625 798.59687805176 144468.58889771 80272177.418302
27841	2998660 9624 24127 33505 258.5 327 275 483.14999389648 483.14999389648 132866.24832153 64194327.065597
vector 27988  IntersectionExampleScenario.node[93].veinsmobility  posx  ETV
vector 27989  IntersectionExampleScenario.node[93].veinsmobility  posy  ETV
vector 27990  IntersectionExampleScenario.node[93].veinsmobility  speed  ETV
vector 27991  IntersectionExampleScenario.node[93].veinsmobility  acceleration  ETV
vector 27992  IntersectionExampleScenario.node[93].veinsmobility  co2emission  ETV
27852	3008685 8930 24459 33885 261.25 331 280 0.973 11.36141391502 637.76930719698 2896.1415225295
27851	3017615 9561 24459 33885 261.25 331 280 -4.5 2.5 36.134572982788 386.26668224084
27850	3027176 9485 24428 33885 261 331 281 0 15.25 2281.8696790524 28466.109446667
27849	3036661 9850 24397 33885 260.75 331 282 486.85000610352 809.09532165527 158308.8459549 91227156.293859
27848	3046511 9868 24397 33885 260.75 331 282 235.34918212891 483.14999389648 127672.76196289 58955614.070048
27873	3056379 8314 25184 33931 267.25 331.5 258 0.973 11.450879080643 632.39687764456 2996.6017318956
27872	3064693 8542 25184 33931 267.25 331.5 258 -3.8433749675751 2.5 40.208654403687 397.25336768982
27871	3073235 8767 25153 33931 267 331.5 259 0 15.740423202515 2208.6791709736 28337.44020914
27870	3082002 9072 25122 33931 266.75 331.5 260 482.93780517578 785.82187652588 145295.69182587 83074677.844674
[...]
30719	20722516 10064 184490 190938 1688 1755.75 272 486.85000610352 486.85000610352 132423.20166016 64470236.536494
30718	20732580 10037 184490 190938 1688 1755.75 272 237.66912841797 795.46562957764 144720.36248779 81489249.360555
30757	20742617 5750 187737 191211 1718.5 1759 163 0.973 11.648172402475 561.33512857078 3470.0678475049
30756	20748367 5380 187737 191211 1718.5 1759 163 -4.7149085998535 2.5 38.511121749878 361.98406142934
30755	20753747 5784 187714 191211 1718.25 1759 164 5.6500000953674 15.64999961853 2202.2331047058 30542.789341216
30754	20759531 6094 187691 191211 1718 1759 165 237.72839355469 486.85000610352 72004.891143799 32384339.425499
30753	20765625 6085 187691 191211 1718 1759 165 482.98303222656 785.82187652588 94399.220542908 55779764.641444
vector 30830  IntersectionExampleScenario.node[499].veinsmobility  posx  ETV
vector 30831  IntersectionExampleScenario.node[499].veinsmobility  posy  ETV
vector 30832  IntersectionExampleScenario.node[499].veinsmobility  speed  ETV
vector 30833  IntersectionExampleScenario.node[499].veinsmobility  acceleration  ETV
vector 30834  IntersectionExampleScenario.node[499].veinsmobility  co2emission  ETV
vector 30837  IntersectionExampleScenario.node[500].veinsmobility  posx  ETV
vector 30838  IntersectionExampleScenario.node[500].veinsmobility  posy  ETV
vector 30839  IntersectionExampleScenario.node[500].veinsmobility  speed  ETV
vector 30840  IntersectionExampleScenario.node[500].veinsmobility  acceleration  ETV
vector 30841  IntersectionExampleScenario.node[500].veinsmobility  co2emission  ETV
vector 30844  IntersectionExampleScenario.node[501].veinsmobility  posx  ETV
vector 30845  IntersectionExampleScenario.node[501].veinsmobility  posy  ETV
vector 30851  IntersectionExampleScenario.node[502].veinsmobility  posx  ETV
vector 30852  IntersectionExampleScenario.node[502].veinsmobility  posy  ETV
vector 30846  IntersectionExampleScenario.node[501].veinsmobility  speed  ETV
vector 30847  IntersectionExampleScenario.node[501].veinsmobility  acceleration  ETV
vector 30848  IntersectionExampleScenario.node[501].veinsmobility  co2emission  ETV
vector 30853  IntersectionExampleScenario.node[502].veinsmobility  speed  ETV
vector 30854  IntersectionExampleScenario.node[502].veinsmobility  acceleration  ETV
vector 30855  IntersectionExampleScenario.node[502].veinsmobility  co2emission  ETV
30764	20773334 5842 188041 191545 1722 1762.5 163 0.973 11.450879080643 484.89709612371 2515.2497841399
30763	20779176 5731 188041 191545 1722 1762.5 163 -4.5 2.5 36.98334312439 226.36241188774
30762	20784907 5784 188020 191545 1721.75 1762.5 164 5.6500000953674 15.375 2243.5114240646 31522.749238551
30761	20790691 6102 187998 191545 1721.5 1762.5 165 237.74627685547 486.85000610352 71803.860443115 32222511.152243
30760	20796793 6093 187998 191545 1721.5 1762.5 165 483.14999389648 795.46562957764 94952.688186646 56588777.640547
30736	20802886 8946 185353 191748 1694.75 1764.25 279 0.973 11.810082123732 648.26999323427 3099.3448280052
30735	20811832 8295 185353 191748 1694.75 1764.25 279 -7.775092124939 4 38.511121749878 481.7653167427
30734	20820127 8449 185321 191748 1694.5 1764.25 280 0 15.875 2181.7102353573 30752.64212689
30733	20828576 10377 185288 191748 1694.25 1764.25 281 184.17810058594 483.36395263672 120544.96939087 53826950.911986
30732	20838953 10325 185288 191748 1694.25 1764.25 281 486.85000610352 734.25172424316 145033.04542542 75968822.531465
vector 30858  IntersectionExampleScenario.node[503].veinsmobility  posx  ETV
vector 30859  IntersectionExampleScenario.node[503].veinsmobility  posy  ETV
vector 30860  IntersectionExampleScenario.node[503].veinsmobility  speed  ETV
vector 30861  IntersectionExampleScenario.node[503].veinsmobility  acceleration  ETV
vector 30862  IntersectionExampleScenario.node[503].veinsmobility  co2emission  ETV
vector 30865  IntersectionExampleScenario.node[504].veinsmobility  posx  ETV
vector 30866  IntersectionExampleScenario.node[504].veinsmobility  posy  ETV
vector 30867  IntersectionExampleScenario.node[504].veinsmobility  speed  ETV
vector 30868  IntersectionExampleScenario.node[504].veinsmobility  acceleration  ETV
vector 30869  IntersectionExampleScenario.node[504].veinsmobility  co2emission  ETV
30785	20850090 7213 188582 193470 1727.75 1780.5 212 0.973 11.450879080643 577.01920488771 2845.3601241692
30784	20857303 6470 188582 193470 1727.75 1780.5 212 -6.9984560012817 4 37.492597579956 469.58322065122
30783	20863773 7017 188555 193470 1727.5 1780.5 213 0 15.375 2215.8641395569 31072.669385032
30782	20870790 7919 188528 193470 1727.25 1780.5 214 483.14999389648 483.14999389648 103394.09869385 49954858.152865
30781	20878709 7887 188528 193470 1727.25 1780.5 214 184.17810058594 734.38114929199 97373.692108154 48536574.604396
vector 30872  IntersectionExampleScenario.node[505].veinsmobility  posx  ETV
vector 30873  IntersectionExampleScenario.node[505].veinsmobility  posy  ETV
vector 30874  IntersectionExampleScenario.node[505].veinsmobility  speed  ETV
vector 30875  IntersectionExampleScenario.node[505].veinsmobility  acceleration  ETV
vector 30876  IntersectionExampleScenario.node[505].veinsmobility  co2emission  ETV
30799	20887002 6343 189419 193639 1736.5 1782.25 184 0.973 11.450879080643 527.59562869001 2726.9272135808
30798	20893345 6363 189419 193639 1736.5 1782.25 184 -2.0918846130371 2.5 37.15309715271 280.95350666085
30797	20899708 6559 189396 193639 1736.25 1782.25 185 2.9775297641754 15.375 2204.2945883274 29096.812511232
30796	20906267 6866 189373 193639 1736 1782.25 186 483.14999389648 732.1272277832 98359.109176636 53035482.507704
30795	20913133 6858 189373 193639 1736 1782.25 186 184.17810058594 486.85000610352 75106.209991455 32167407.013366
vector 30879  IntersectionExampleScenario.node[506].veinsmobility  posx  ETV
vector 30880  IntersectionExampleScenario.node[506].veinsmobility  posy  ETV
vector 30881  IntersectionExampleScenario.node[506].veinsmobility  speed  ETV
30813	20920226 6009 189934 193874 1742.5 1784.75 170 0.973 11.450879080643 542.14599568769 2960.2710863975
30812	20926235 5804 189934 193874 1742.5 1784.75 170 -3.6640968322754 2.5 39.529638290405 309.03584830821
30811	20932039 6043 189911 193874 1742.25 1784.75 171 5.6500000953674 15.583141326904 2214.3192839622 30296.943030948
30810	20938082 6354 189888 193874 1742 1784.75 172 483.14999389648 735.20506286621 91491.722579956 49665999.101098
30809	20944436 6331 189888 193874 1742 1784.75 172 184.17810058594 487.07092285156 68656.764373779 29181029.61395
vector 30882  IntersectionExampleScenario.node[506].veinsmobility  acceleration  ETV
vector 30883  IntersectionExampleScenario.node[506].veinsmobility  co2emission  ETV
vector 30886  IntersectionExampleScenario.node[507].veinsmobility  posx  ETV
vector 30887  IntersectionExampleScenario.node[507].veinsmobility  posy  ETV
vector 30893  IntersectionExampleScenario.node[508].veinsmobility  posx  ETV
vector 30894  IntersectionExampleScenario.node[508].veinsmobility  posy  ETV
vector 30888  IntersectionExampleScenario.node[507].veinsmobility  speed  ETV
vector 30889  IntersectionExampleScenario.node[507].veinsmobility  acceleration  ETV
vector 30890  IntersectionExampleScenario.node[507].veinsmobility  co2emission  ETV
vector 30895  IntersectionExampleScenario.node[508].veinsmobility  speed  ETV
vector 30896  IntersectionExampleScenario.node[508].veinsmobility  acceleration  ETV
vector 30897  IntersectionExampleScenario.node[508].veinsmobility  co2emission  ETV
30820	20951750 5702 190812 194759 1754.25 1793.75 159 0.97223939240464 11.810082123732 507.90446564047 2852.4636117653
30819	20957452 5382 190812 194759 1754.25 1793.75 159 -3.3224391937256 2.5 38.680875778198 281.07744002893
30818	20962834 5583 190791 194759 1754 1793.75 160 5.6500000953674 15.875 2180.3963637352 31117.976678118
30817	20968417 5954 190772 194759 1753.75 1793.75 161 237.83447265625 483.14999389648 69706.979278564 31091660.187102
30816	20974371 5934 190772 194759 1753.75 1793.75 161 184.17810058594 483.26412963867 64007.387817383 27185758.505355
vector 30900  IntersectionExampleScenario.node[509].veinsmobility  posx  ETV
vector 30901  IntersectionExampleScenario.node[509].veinsmobility  posy  ETV
vector 30902  IntersectionExampleScenario.node[509].veinsmobility  speed  ETV
vector 30903  IntersectionExampleScenario.node[509].veinsmobility  acceleration  ETV
vector 30904  IntersectionExampleScenario.node[509].veinsmobility  co2emission  ETV
vector 30907  IntersectionExampleScenario.node[510].veinsmobility  posx  ETV
vector 30908  IntersectionExampleScenario.node[510].veinsmobility  posy  ETV
vector 30909  IntersectionExampleScenario.node[510].veinsmobility  speed  ETV
vector 30910  IntersectionExampleScenario.node[510].veinsmobility  acceleration  ETV
vector 30911  IntersectionExampleScenario.node[510].veinsmobility  co2emission  ETV
30750	20981117 10214 187534 195102 1716.25 1796.75 323 0.973 11.201908430607 671.3877083919 2818.5853218106
30749	20991331 9346 187534 195102 1716.25 1796.75 323 -8.6476802825928 4 35.795072555542 478.20743127365
30748	21000677 9700 187509 195102 1716 1796.75 324 0 15.026681900024 2202.6764798164 30152.122923747
30747	21010377 12016 187484 195102 1715.75 1796.75 325 238.53045654297 785.82187652588 165686.78916168 88739574.514516
30746	21022393 12026 187484 195102 1715.75 1796.75 325 483.14999389648 483.14999389648 157023.74801636 75866022.895706
vector 30914  IntersectionExampleScenario.node[511].veinsmobility  posx  ETV
vector 30915  IntersectionExampleScenario.node[511].veinsmobility  posy  ETV
30792	21034575 8849 189259 195325 1734.75 1798.75 257 0.973 11.200708441096 609.73878719403 2691.4585769178
30791	21043424 9290 189259 195325 1734.75 1798.75 257 -3.8088512420654 2.5 37.15309715271 315.56670802808
30790	21052714 9431 189236 195325 1734.5 1798.75 258 0 15.02499961853 2217.01379692 29099.292824887
30789	21062145 9565 189213 195325 1734.25 1798.75 259 236.22442626953 785.82187652588 133912.44530487 73475196.468142
30788	21071710 9585 189213 195325 1734.25 1798.75 259 483.14999389648 483.14999389648 125135.84841919 60459384.399963
vector 30916  IntersectionExampleScenario.node[511].veinsmobility  speed  ETV
vector 30917  IntersectionExampleScenario.node[511].veinsmobility  acceleration  ETV
vector 30918  IntersectionExampleScenario.node[511].veinsmobility  co2emission  ETV
vector 30921  IntersectionExampleScenario.node[512].veinsmobility  posx  ETV
vector 30922  IntersectionExampleScenario.node[512].veinsmobility  posy  ETV
30771	21081701 9227 188234 195470 1724.25 1800 304 0.973 11.810082123732 633.42538283015 2931.6556568092
30770	21090928 8192 188234 195470 1724.25 1800 304 -8.2820014953613 4 40.205892562866 541.56972939644
30769	21099120 8402 188211 195470 1724 1800 305 0 15.875 1520.1859560013 21008.836372828
30768	21107522 11256 188188 195470 1723.75 1800 306 486.85000610352 546.83120727539 149574.24121094 73133774.201104
30767	21118778 11313 188188 195470 1723.75 1800 306 486.63604736328 807.52970123291 166754.16436768 93402697.604651
30778	21130091 9101 188353 195470 1725.5 1800 299 0.973 11.200708441096 589.09153520345 2459.2085235781
30777	21139192 7995 188353 195470 1725.5 1800 299 -4.5 2.5 28.39999961853 464.5721260161
30776	21147187 8446 188328 195470 1725.25 1800 300 0 16.125936508179 1446.1676803976 19688.838387471
30775	21155633 11101 188303 195470 1725 1800 301 486.85000610352 517.78515625 146767.01785278 71567563.971408
30774	21166734 11127 188303 195470 1725 1800 301 486.82312011719 817.94922637939 166125.91972351 94280821.787974
30806	21177861 7707 189888 195470 1742 1800 233 0.973 11.200708441096 463.09437804489 1911.8619963114
30805	21185568 8239 189888 195470 1742 1800 233 -3.8019199371338 2.5 22.39999961853 285.57887785312
30804	21193807 8209 189867 195470 1741.75 1800 234 0 15.02499961853 1264.7318218704 14800.149971411
30803	21202016 8694 189846 195470 1741.5 1800 235 486.85000610352 486.85000610352 114409.75143433 55700388.184103
30802	21210710 8665 189846 195470 1741.5 1800 235 473.16442871094 785.82187652588 132384.74645233 76316016.213655
30827	21219375 5643 190833 195470 1754.5 1800 183 0.973 11.200708441096 345.37408773428 1392.1164109525
30826	21225018 5282 190833 195470 1754.5 1800 183 -6.8669729232788 2.5 -22.60000038147 297.62419353667
30825	21230300 5492 190812 195470 1754.25 1800 184 0 15.02499961853 1147.1561479568 15500.62099406
30824	21235792 6824 190791 195470 1754 1800 185 184.17810058594 471.60000610352 74050.894226074 31378978.798773
30823	21242616 6843 190791 195470 1754 1800 185 486.85000610352 486.85000610352 90067.25112915 43849241.761954
30834	21249459 5528 191362 195470 1760.75 1800 158 0.973 12.26218747632 570.55840134086 3699.5092260412
30833	21254987 5365 191362 195470 1760.75 1800 158 -3.6440658569336 2.5 41.227170944214 390.40171748535
30832	21260352 5532 191339 195470 1760.5 1800 159 5.6500000953674 16.5 2115.939218998 29834.079513988
30831	21265884 5911 191316 195470 1760.25 1800 160 486.83023071289 785.82187652588 91879.279212952 54441136.601462
30830	21271795 5918 191316 195470 1760.25 1800 160 253.78430175781 483.14999389648 70482.452148438 31794420.475437
30841	21277713 4855 191435 195470 1761.5 1800 155 0.973 11.648172402475 339.20827876197 1629.5280713504
30840	21282568 4756 191435 195470 1761.5 1800 155 -8.556245803833 2.5 -22.60000038147 363.6559575091
30839	21287324 4783 191410 195470 1761.25 1800 156 0 15.64999961853 1145.7440125942 16155.720923197
30838	21292107 5807 191385 195470 1761 1800 157 483.14999389648 483.14999389648 75854.549041748 36649124.906541
30837	21297914 5779 191385 195470 1761 1800 157 184.17810058594 471.60000610352 61238.718963623 25457845.224243
30848	21303693 5266 191516 195470 1762.25 1800 152 0.973 11.427246707567 329.98738894794 1433.7649824303
30847	21308959 5452 191516 195470 1762.25 1800 152 -4.5 2.5 -22.60000038147 293.32103586941
30846	21314411 5540 191487 195470 1762 1800 153 0 15.341999053955 1214.9934403272 16564.479681072
30845	21319951 5697 191460 195470 1761.75 1800 154 483.14999389648 483.14999389648 74405.099060059 35948823.156735
30844	21325648 5676 191460 195470 1761.75 1800 154 161.1796875 465.20059204102 57044.92678833 22881629.781721
30855	21331324 4972 191545 195470 1762.5 1800 151 0.973 11.648172402475 360.78518901641 1745.3395005118
30854	21336296 5464 191545 195470 1762.5 1800 151 -3.9424419403076 2.5000019073486 13.39999961853 271.06795711773
30853	21341760 5552 191516 195470 1762.25 1800 152 0 15.64999961853 1171.441243222 14135.246392062
30852	21347312 5659 191487 195470 1762 1800 153 486.45211791992 486.85000610352 74487.555877686 36264026.183353
30851	21352971 5644 191487 195470 1762 1800 153 496.13592529297 785.82187652588 90827.326896667 55197307.468673
30862	21358615 4387 192016 195470 1766.75 1800 134 0.973 11.648172402475 323.6658477448 1589.9219794521
30861	21363002 4873 192016 195470 1766.75 1800 134 -4.5 2.5000009536743 3.7412929534912 309.75443143611
30860	21367875 4965 191989 195470 1766.5 1800 135 0 15.940587043762 1106.607416898 13712.258491542
30859	21372840 5032 191962 195470 1766.25 1800 136 486.85000610352 486.85000610352 66211.600830078 32235118.268247
30858	21377872 5019 191962 195470 1766.25 1800 136 515.37506103516 790.18281555176 82838.910560608 51573829.275021
30869	21382891 3876 192335 195470 1769.75 1800 122 0.973 11.200708441096 268.01133120027 1291.5746828302
30868	21386767 4497 192335 195470 1769.75 1800 122 -3.7744028568268 2.5 -21.774174749851 177.24964465898
30867	21391264 4527 192308 195470 1769.5 1800 123 0 15.02499961853 1091.7555559129 13130.112417397
30866	21395791 4588 192281 195470 1769.25 1800 124 483.14999389648 483.14999389648 59910.599243164 28945805.658669
30865	21400379 4568 192281 195470 1769.25 1800 124 184.17810058594 457.42218017578 44139.954742432 16782360.226689
30876	21404947 2478 193589 195470 1781.75 1800 74 0.973 12.099024792222 236.11305500322 1495.4256617075
30875	21407425 2572 193589 195470 1781.75 1800 74 -2.0931091308594 2.5 2.2811717987061 170.31953767057
30874	21409997 2761 193564 195470 1781.5 1800 75 5.6500000953674 16.27499961853 950.69352674484 12920.35823348
30873	21412758 2812 193539 195470 1781.25 1800 76 483.14999389648 483.14999389648 36719.399536133 17740977.661765
30872	21415570 2784 193539 195470 1781.25 1800 76 184.17810058594 420.0676574707 23066.552825928 7456153.8810047
30883	21418354 2156 193899 195470 1785 1800 61 0.973 11.200708441096 207.28295332556 1218.7367339867
30882	21420510 2237 193899 195470 1785 1800 61 -1.2515335083008 2.5 31.103902816772 97.87015144408
30881	21422747 2277 193874 195470 1784.75 1800 62 5.6500000953674 15.02499961853 844.08418560028 11861.436877746
30880	21425024 2330 193849 195470 1784.5 1800 63 483.14999389648 483.14999389648 30438.449615479 14706336.745937
30879	21427354 2303 193849 195470 1784.5 1800 63 172.9296875 379.43435668945 16841.266448975 4764482.5435517
30890	21429657 1348 194435 195470 1790.75 1800 38 0.973 11.200708441096 180.78277682696 1220.0852299321
30889	21431005 1271 194435 195470 1790.75 1800 38 -0.89003753662109 2.5 36.906446456909 98.29399231356
30888	21432276 1428 194408 195470 1790.5 1800 39 5.6500000953674 15.943881034851 523.33909893036 7415.4813643497
30887	21433704 1480 194383 195470 1790.25 1800 40 483.14999389648 483.14999389648 19325.999755859 9337356.6640869
30886	21435184 1460 194383 195470 1790.25 1800 40 184.17810058594 310.06164550781 9517.9776611328 2328055.6896047
30897	21436644 1361 194462 195470 1791 1800 37 1.5237915469079 11.200708441096 167.03739099124 1143.4930833901
30896	21438005 1279 194462 195470 1791 1800 37 -0.17160415649414 2.5 36.814805984497 93.817300262821
30895	21439284 1395 194435 195470 1790.75 1800 38 5.6500000953674 15.02499961853 492.688580513 6711.6524695227
30894	21440679 1420 194408 195470 1790.5 1800 39 184.17810058594 302.39721679688 9173.0513916016 2212132.9869597
30893	21442099 1442 194408 195470 1790.5 1800 39 486.85000610352 486.85000610352 18987.150238037 9243894.2092767
30904	21443541 808 194871 195470 1794.75 1800 22 1.986667772344 11.200708441096 137.06280724426 1083.0587155811
30903	21444349 667 194871 195470 1794.75 1800 22 -0.044288635253906 2.5 37.346490859985 93.754394008505
30902	21445016 840 194842 195470 1794.5 1800 23 5.6500000953674 15.02499961853 270.38010215759 3417.0387294881
30901	21445856 888 194813 195470 1794.25 1800 24 723.22135925293 785.82187652588 18252.624610901 13890964.843623
30900	21446744 888 194813 195470 1794.25 1800 24 483.14999389648 483.14999389648 11595.599853516 5602413.9984521
30911	21447632 589 195044 195470 1796.25 1800 16 5.2162187258585 11.648172402475 134.25053707584 1188.8536053759
30910	21448221 412 195044 195470 1796.25 1800 16 2.4999980926514 2.5 39.999998092651 99.99999046326
30909	21448633 617 195015 195470 1796 1800 17 5.6500000953674 15.64999961853 181.04999542236 2087.5573869991
30908	21449250 665 194986 195470 1795.75 1800 18 483.14999389648 483.14999389648 8696.6998901367 4201810.4988391
30907	21449915 648 194986 195470 1795.75 1800 18 184.17810058594 224.27813720703 3602.9310913086 724053.53529534
30918	21450563 148 195383 195470 1799.25 1800 4 5.2162187258585 6.4635356930995 23.356389703243 137.24455235531
30917	21450711 112 195383 195470 1799.25 1800 4 2.4999980926514 2.5 9.9999980926514 24.99999046326
30916	21450823 183 195354 195470 1799 1800 5 5.6500000953674 8.1499996185303 34.5 241.95624880791
30915	21451006 221 195325 195470 1798.75 1800 6 486.85000610352 486.85000610352 2921.1000366211 1422137.570658
30914	21451227 221 195325 195470 1798.75 1800 6 779.54688262939 785.82187652588 4700.0250244141 3681737.9733812
30922	21451448 35 195470 195470 1800 1800 1 486.85000610352 486.85000610352 486.85000610352 237022.92844299
30921	21451483 35 195470 195470 1800 1800 1 807.09531402588 807.09531402588 807.09531402588 651402.84592253
27333	21451518 639 0 195469 0 1800 31 0 26 543 10223
27334	21452157 657 0 195469 0 1800 31 0 247 3786 635302
