version 2
run nodebug-8-20200606-19:52:42-18208
attr configname nodebug
attr datetime 20200606-19:52:42
attr experiment nodebug
attr inifile omnetpp.ini
attr iterationvars ""
attr iterationvars2 $repetition=8
attr measurement ""
attr network "\"org.car2x.veins.modules.application.ExtTraCIScenarioManagerLaunchd.IntersectionExampleScenario\""
attr processid 18208
attr repetition 8
attr replication #8
attr resultdir results
attr runnumber 8
attr seedset 8
param **.coreDebug false
param **.debug false
param *.**.nic.mac1609_4.bitrate 18Mbps
param *.**.nic.mac1609_4.txPower 20mW
param *.**.nic.mac1609_4.useServiceChannel false
param *.**.nic.phy80211p.analogueModels "xmldoc(\"config.xml\")"
param *.**.nic.phy80211p.decider "xmldoc(\"config.xml\")"
param *.**.nic.phy80211p.sensitivity -89dBm
param *.**.nic.phy80211p.thermalNoise -110dBm
param *.**.nic.phy80211p.usePropagationDelay true
param *.**.nic.phy80211p.useThermalNoise true
param *.annotations.draw false
param *.connectionManager.alpha 2.0
param *.connectionManager.carrierFrequency "5.890e9 Hz"
param *.connectionManager.pMax 20mW
param *.connectionManager.sat -89dBm
param *.connectionManager.sendDirect true
param *.manager.autoShutdown true
param *.manager.host "\"localhost\""
param *.manager.launchConfig "xmldoc(\"paramics.launchd.xml\")"
param *.manager.margin 25
param *.manager.moduleDisplayString "\"\""
param *.manager.moduleName "\"node\""
param *.manager.moduleType "\"org.car2x.veins.nodes.Car\""
param *.manager.port 9999
param *.manager.updateInterval 250ms
param *.node[*0].veinsmobility.accidentCount 0
param *.node[*0].veinsmobility.accidentDuration 30s
param *.node[*0].veinsmobility.accidentStart 75s
param *.node[*].appl.LiderSelectZoneRadio 55.0
param *.node[*].appl.ShareDataZoneRadio 110.0
param *.node[*].appl.TiempoSemaforo 30.0
param *.node[*].appl.beaconInterval 1s
param *.node[*].appl.beaconPriority 3
param *.node[*].appl.dataOnSch false
param *.node[*].appl.dataPriority 2
param *.node[*].appl.debug false
param *.node[*].appl.headerLength "256 bit"
param *.node[*].appl.maxOffset 0.005s
param *.node[*].appl.sendBeacons false
param *.node[*].appl.sendData true
param *.node[*].applType "\"Dummy\""
param *.node[*].mobilityType "\"TraCIMobility\""
param *.node[*].mobilityType.debug true
param *.node[*].veinsmobility.x 0
param *.node[*].veinsmobility.y 0
param *.node[*].veinsmobility.z 1.895
param *.node[*].veinsmobilityType "\"org.car2x.veins.modules.mobility.traci.TraCIMobility\""
param *.node[*].veinsmobilityType.debug true
param *.playgroundSizeX 8500m
param *.playgroundSizeY 8500m
param *.playgroundSizeZ 50m
param *.world.use2D false
param *.world.useTorus false

scalar IntersectionExampleScenario.node[2].appl 	VehicleRemoved 	0
scalar IntersectionExampleScenario.node[2].appl 	ArrivedAtDest 	1
scalar IntersectionExampleScenario.node[2].appl 	IntersectionEnterTime 	12
scalar IntersectionExampleScenario.node[2].appl 	IntersectionExitTime 	35.567923251976
scalar IntersectionExampleScenario.node[2].appl 	NumberOfCollisions 	0
scalar IntersectionExampleScenario.node[2].nic.phy80211p 	busyTime 	0
scalar IntersectionExampleScenario.node[2].nic.mac1609_4 	ReceivedUnicastPackets 	0
scalar IntersectionExampleScenario.node[2].nic.mac1609_4 	ReceivedBroadcasts 	0
scalar IntersectionExampleScenario.node[2].nic.mac1609_4 	SentPackets 	0
scalar IntersectionExampleScenario.node[2].nic.mac1609_4 	SNIRLostPackets 	0
scalar IntersectionExampleScenario.node[2].nic.mac1609_4 	RXTXLostPackets 	0
scalar IntersectionExampleScenario.node[2].nic.mac1609_4 	TotalLostPackets 	0
scalar IntersectionExampleScenario.node[2].nic.mac1609_4 	DroppedPacketsInMac 	0
scalar IntersectionExampleScenario.node[2].nic.mac1609_4 	TooLittleTime 	0
scalar IntersectionExampleScenario.node[2].nic.mac1609_4 	TimesIntoBackoff 	0
scalar IntersectionExampleScenario.node[2].nic.mac1609_4 	SlotsBackoff 	0
scalar IntersectionExampleScenario.node[2].nic.mac1609_4 	NumInternalContention 	0
scalar IntersectionExampleScenario.node[2].nic.mac1609_4 	totalBusyTime 	0
scalar IntersectionExampleScenario.node[2].veinsmobility 	startTime 	12
scalar IntersectionExampleScenario.node[2].veinsmobility 	totalTime 	39.5
scalar IntersectionExampleScenario.node[2].veinsmobility 	stopTime 	51.75
scalar IntersectionExampleScenario.node[2].veinsmobility 	minSpeed 	5.6500000953674
scalar IntersectionExampleScenario.node[2].veinsmobility 	maxSpeed 	16.27499961853
scalar IntersectionExampleScenario.node[2].veinsmobility 	totalDistance 	550.87482696436
scalar IntersectionExampleScenario.node[2].veinsmobility 	totalCO2Emission 	129.59893019767
scalar IntersectionExampleScenario.node[4].appl 	VehicleRemoved 	0
scalar IntersectionExampleScenario.node[4].appl 	ArrivedAtDest 	1
scalar IntersectionExampleScenario.node[4].appl 	IntersectionEnterTime 	21.25
scalar IntersectionExampleScenario.node[4].appl 	IntersectionExitTime 	44.277350132645
scalar IntersectionExampleScenario.node[4].appl 	NumberOfCollisions 	0
scalar IntersectionExampleScenario.node[4].nic.phy80211p 	busyTime 	0
scalar IntersectionExampleScenario.node[4].nic.mac1609_4 	ReceivedUnicastPackets 	0
scalar IntersectionExampleScenario.node[4].nic.mac1609_4 	ReceivedBroadcasts 	0
scalar IntersectionExampleScenario.node[4].nic.mac1609_4 	SentPackets 	0
scalar IntersectionExampleScenario.node[4].nic.mac1609_4 	SNIRLostPackets 	0
scalar IntersectionExampleScenario.node[4].nic.mac1609_4 	RXTXLostPackets 	0
scalar IntersectionExampleScenario.node[4].nic.mac1609_4 	TotalLostPackets 	0
scalar IntersectionExampleScenario.node[4].nic.mac1609_4 	DroppedPacketsInMac 	0
scalar IntersectionExampleScenario.node[4].nic.mac1609_4 	TooLittleTime 	0
scalar IntersectionExampleScenario.node[4].nic.mac1609_4 	TimesIntoBackoff 	0
scalar IntersectionExampleScenario.node[4].nic.mac1609_4 	SlotsBackoff 	0
scalar IntersectionExampleScenario.node[4].nic.mac1609_4 	NumInternalContention 	0
scalar IntersectionExampleScenario.node[4].nic.mac1609_4 	totalBusyTime 	0
scalar IntersectionExampleScenario.node[4].veinsmobility 	startTime 	21.25
scalar IntersectionExampleScenario.node[4].veinsmobility 	totalTime 	39.5
scalar IntersectionExampleScenario.node[4].veinsmobility 	stopTime 	61
scalar IntersectionExampleScenario.node[4].veinsmobility 	minSpeed 	5.6500000953674
scalar IntersectionExampleScenario.node[4].veinsmobility 	maxSpeed 	15.875
scalar IntersectionExampleScenario.node[4].veinsmobility 	totalDistance 	545.86126850731
scalar IntersectionExampleScenario.node[4].veinsmobility 	totalCO2Emission 	128.85763965315
scalar IntersectionExampleScenario.node[1].appl 	VehicleRemoved 	0
scalar IntersectionExampleScenario.node[1].appl 	ArrivedAtDest 	1
scalar IntersectionExampleScenario.node[1].appl 	IntersectionEnterTime 	1.5
scalar IntersectionExampleScenario.node[1].appl 	IntersectionExitTime 	52.300293920125
scalar IntersectionExampleScenario.node[1].appl 	NumberOfCollisions 	0
scalar IntersectionExampleScenario.node[1].nic.phy80211p 	busyTime 	0
scalar IntersectionExampleScenario.node[1].nic.mac1609_4 	ReceivedUnicastPackets 	0
scalar IntersectionExampleScenario.node[1].nic.mac1609_4 	ReceivedBroadcasts 	0
scalar IntersectionExampleScenario.node[1].nic.mac1609_4 	SentPackets 	0
scalar IntersectionExampleScenario.node[1].nic.mac1609_4 	SNIRLostPackets 	0
scalar IntersectionExampleScenario.node[1].nic.mac1609_4 	RXTXLostPackets 	0
scalar IntersectionExampleScenario.node[1].nic.mac1609_4 	TotalLostPackets 	0
scalar IntersectionExampleScenario.node[1].nic.mac1609_4 	DroppedPacketsInMac 	0
scalar IntersectionExampleScenario.node[1].nic.mac1609_4 	TooLittleTime 	0
scalar IntersectionExampleScenario.node[1].nic.mac1609_4 	TimesIntoBackoff 	0
scalar IntersectionExampleScenario.node[1].nic.mac1609_4 	SlotsBackoff 	0
scalar IntersectionExampleScenario.node[1].nic.mac1609_4 	NumInternalContention 	0
scalar IntersectionExampleScenario.node[1].nic.mac1609_4 	totalBusyTime 	0
scalar IntersectionExampleScenario.node[1].veinsmobility 	startTime 	1.5
scalar IntersectionExampleScenario.node[1].veinsmobility 	totalTime 	67.5
scalar IntersectionExampleScenario.node[1].veinsmobility 	stopTime 	69.25
scalar IntersectionExampleScenario.node[1].veinsmobility 	minSpeed 	0
scalar IntersectionExampleScenario.node[1].veinsmobility 	maxSpeed 	15.02499961853
scalar IntersectionExampleScenario.node[1].veinsmobility 	totalDistance 	550.91409410586
scalar IntersectionExampleScenario.node[1].veinsmobility 	totalCO2Emission 	154.29078200188
scalar IntersectionExampleScenario.node[6].appl 	VehicleRemoved 	0
scalar IntersectionExampleScenario.node[6].appl 	ArrivedAtDest 	1
scalar IntersectionExampleScenario.node[6].appl 	IntersectionEnterTime 	27.5
scalar IntersectionExampleScenario.node[6].appl 	IntersectionExitTime 	54.362018125772
scalar IntersectionExampleScenario.node[6].appl 	NumberOfCollisions 	0
scalar IntersectionExampleScenario.node[6].nic.phy80211p 	busyTime 	0
scalar IntersectionExampleScenario.node[6].nic.mac1609_4 	ReceivedUnicastPackets 	0
scalar IntersectionExampleScenario.node[6].nic.mac1609_4 	ReceivedBroadcasts 	0
scalar IntersectionExampleScenario.node[6].nic.mac1609_4 	SentPackets 	0
scalar IntersectionExampleScenario.node[6].nic.mac1609_4 	SNIRLostPackets 	0
scalar IntersectionExampleScenario.node[6].nic.mac1609_4 	RXTXLostPackets 	0
scalar IntersectionExampleScenario.node[6].nic.mac1609_4 	TotalLostPackets 	0
scalar IntersectionExampleScenario.node[6].nic.mac1609_4 	DroppedPacketsInMac 	0
scalar IntersectionExampleScenario.node[6].nic.mac1609_4 	TooLittleTime 	0
scalar IntersectionExampleScenario.node[6].nic.mac1609_4 	TimesIntoBackoff 	0
scalar IntersectionExampleScenario.node[6].nic.mac1609_4 	SlotsBackoff 	0
scalar IntersectionExampleScenario.node[6].nic.mac1609_4 	NumInternalContention 	0
scalar IntersectionExampleScenario.node[6].nic.mac1609_4 	totalBusyTime 	0
scalar IntersectionExampleScenario.node[6].veinsmobility 	startTime 	27.5
scalar IntersectionExampleScenario.node[6].veinsmobility 	totalTime 	43.5
scalar IntersectionExampleScenario.node[6].veinsmobility 	stopTime 	71.25
scalar IntersectionExampleScenario.node[6].veinsmobility 	minSpeed 	5.6500000953674
scalar IntersectionExampleScenario.node[6].veinsmobility 	maxSpeed 	14.875
scalar IntersectionExampleScenario.node[6].veinsmobility 	totalDistance 	551.49265289307
scalar IntersectionExampleScenario.node[6].veinsmobility 	totalCO2Emission 	128.40905970293
scalar IntersectionExampleScenario.node[7].appl 	VehicleRemoved 	0
scalar IntersectionExampleScenario.node[7].appl 	ArrivedAtDest 	1
scalar IntersectionExampleScenario.node[7].appl 	IntersectionEnterTime 	30.75
scalar IntersectionExampleScenario.node[7].appl 	IntersectionExitTime 	57.29396059268
scalar IntersectionExampleScenario.node[7].appl 	NumberOfCollisions 	0
scalar IntersectionExampleScenario.node[7].nic.phy80211p 	busyTime 	0
scalar IntersectionExampleScenario.node[7].nic.mac1609_4 	ReceivedUnicastPackets 	0
scalar IntersectionExampleScenario.node[7].nic.mac1609_4 	ReceivedBroadcasts 	0
scalar IntersectionExampleScenario.node[7].nic.mac1609_4 	SentPackets 	0
scalar IntersectionExampleScenario.node[7].nic.mac1609_4 	SNIRLostPackets 	0
scalar IntersectionExampleScenario.node[7].nic.mac1609_4 	RXTXLostPackets 	0
scalar IntersectionExampleScenario.node[7].nic.mac1609_4 	TotalLostPackets 	0
scalar IntersectionExampleScenario.node[7].nic.mac1609_4 	DroppedPacketsInMac 	0
scalar IntersectionExampleScenario.node[7].nic.mac1609_4 	TooLittleTime 	0
scalar IntersectionExampleScenario.node[7].nic.mac1609_4 	TimesIntoBackoff 	0
scalar IntersectionExampleScenario.node[7].nic.mac1609_4 	SlotsBackoff 	0
scalar IntersectionExampleScenario.node[7].nic.mac1609_4 	NumInternalContention 	0
scalar IntersectionExampleScenario.node[7].nic.mac1609_4 	totalBusyTime 	0
scalar IntersectionExampleScenario.node[7].veinsmobility 	startTime 	30.75
scalar IntersectionExampleScenario.node[7].veinsmobility 	totalTime 	42.75
scalar IntersectionExampleScenario.node[7].veinsmobility 	stopTime 	73.75
scalar IntersectionExampleScenario.node[7].veinsmobility 	minSpeed 	5.6500000953674
scalar IntersectionExampleScenario.node[7].veinsmobility 	maxSpeed 	15.875
scalar IntersectionExampleScenario.node[7].veinsmobility 	totalDistance 	555.05127091936
scalar IntersectionExampleScenario.node[7].veinsmobility 	totalCO2Emission 	148.55060139205
scalar IntersectionExampleScenario.node[8].appl 	VehicleRemoved 	0
scalar IntersectionExampleScenario.node[8].appl 	ArrivedAtDest 	1
scalar IntersectionExampleScenario.node[8].appl 	IntersectionEnterTime 	35.5
scalar IntersectionExampleScenario.node[8].appl 	IntersectionExitTime 	59.539961224626
scalar IntersectionExampleScenario.node[8].appl 	NumberOfCollisions 	0
scalar IntersectionExampleScenario.node[8].nic.phy80211p 	busyTime 	0
scalar IntersectionExampleScenario.node[8].nic.mac1609_4 	ReceivedUnicastPackets 	0
scalar IntersectionExampleScenario.node[8].nic.mac1609_4 	ReceivedBroadcasts 	0
scalar IntersectionExampleScenario.node[8].nic.mac1609_4 	SentPackets 	0
scalar IntersectionExampleScenario.node[8].nic.mac1609_4 	SNIRLostPackets 	0
scalar IntersectionExampleScenario.node[8].nic.mac1609_4 	RXTXLostPackets 	0
scalar IntersectionExampleScenario.node[8].nic.mac1609_4 	TotalLostPackets 	0
scalar IntersectionExampleScenario.node[8].nic.mac1609_4 	DroppedPacketsInMac 	0
scalar IntersectionExampleScenario.node[8].nic.mac1609_4 	TooLittleTime 	0
scalar IntersectionExampleScenario.node[8].nic.mac1609_4 	TimesIntoBackoff 	0
scalar IntersectionExampleScenario.node[8].nic.mac1609_4 	SlotsBackoff 	0
scalar IntersectionExampleScenario.node[8].nic.mac1609_4 	NumInternalContention 	0
scalar IntersectionExampleScenario.node[8].nic.mac1609_4 	totalBusyTime 	0
scalar IntersectionExampleScenario.node[8].veinsmobility 	startTime 	35.5
scalar IntersectionExampleScenario.node[8].veinsmobility 	totalTime 	39.75
scalar IntersectionExampleScenario.node[8].veinsmobility 	stopTime 	75.5
scalar IntersectionExampleScenario.node[8].veinsmobility 	minSpeed 	5.6500000953674
scalar IntersectionExampleScenario.node[8].veinsmobility 	maxSpeed 	15.672581672668
scalar IntersectionExampleScenario.node[8].veinsmobility 	totalDistance 	559.85383605957
scalar IntersectionExampleScenario.node[8].veinsmobility 	totalCO2Emission 	129.78874785946
scalar IntersectionExampleScenario.node[9].appl 	VehicleRemoved 	0
scalar IntersectionExampleScenario.node[9].appl 	ArrivedAtDest 	1
scalar IntersectionExampleScenario.node[9].appl 	IntersectionEnterTime 	40.75
scalar IntersectionExampleScenario.node[9].appl 	IntersectionExitTime 	64.579779851105
scalar IntersectionExampleScenario.node[9].appl 	NumberOfCollisions 	0
scalar IntersectionExampleScenario.node[9].nic.phy80211p 	busyTime 	0
scalar IntersectionExampleScenario.node[9].nic.mac1609_4 	ReceivedUnicastPackets 	0
scalar IntersectionExampleScenario.node[9].nic.mac1609_4 	ReceivedBroadcasts 	0
scalar IntersectionExampleScenario.node[9].nic.mac1609_4 	SentPackets 	0
scalar IntersectionExampleScenario.node[9].nic.mac1609_4 	SNIRLostPackets 	0
scalar IntersectionExampleScenario.node[9].nic.mac1609_4 	RXTXLostPackets 	0
scalar IntersectionExampleScenario.node[9].nic.mac1609_4 	TotalLostPackets 	0
scalar IntersectionExampleScenario.node[9].nic.mac1609_4 	DroppedPacketsInMac 	0
scalar IntersectionExampleScenario.node[9].nic.mac1609_4 	TooLittleTime 	0
scalar IntersectionExampleScenario.node[9].nic.mac1609_4 	TimesIntoBackoff 	0
scalar IntersectionExampleScenario.node[9].nic.mac1609_4 	SlotsBackoff 	0
scalar IntersectionExampleScenario.node[9].nic.mac1609_4 	NumInternalContention 	0
scalar IntersectionExampleScenario.node[9].nic.mac1609_4 	totalBusyTime 	0
scalar IntersectionExampleScenario.node[9].veinsmobility 	startTime 	40.75
scalar IntersectionExampleScenario.node[9].veinsmobility 	totalTime 	40.75
scalar IntersectionExampleScenario.node[9].veinsmobility 	stopTime 	81.75
scalar IntersectionExampleScenario.node[9].veinsmobility 	minSpeed 	5.6500000953674
scalar IntersectionExampleScenario.node[9].veinsmobility 	maxSpeed 	15.02499961853
scalar IntersectionExampleScenario.node[9].veinsmobility 	totalDistance 	551.65433496195
scalar IntersectionExampleScenario.node[9].veinsmobility 	totalCO2Emission 	119.13617912837
scalar IntersectionExampleScenario.node[0].appl 	VehicleRemoved 	0
scalar IntersectionExampleScenario.node[0].appl 	ArrivedAtDest 	1
scalar IntersectionExampleScenario.node[0].appl 	IntersectionEnterTime 	0.25
scalar IntersectionExampleScenario.node[0].appl 	IntersectionExitTime 	68.316356960917
scalar IntersectionExampleScenario.node[0].appl 	NumberOfCollisions 	0
scalar IntersectionExampleScenario.node[0].nic.phy80211p 	busyTime 	0
scalar IntersectionExampleScenario.node[0].nic.mac1609_4 	ReceivedUnicastPackets 	0
scalar IntersectionExampleScenario.node[0].nic.mac1609_4 	ReceivedBroadcasts 	0
scalar IntersectionExampleScenario.node[0].nic.mac1609_4 	SentPackets 	0
scalar IntersectionExampleScenario.node[0].nic.mac1609_4 	SNIRLostPackets 	0
scalar IntersectionExampleScenario.node[0].nic.mac1609_4 	RXTXLostPackets 	0
scalar IntersectionExampleScenario.node[0].nic.mac1609_4 	TotalLostPackets 	0
scalar IntersectionExampleScenario.node[0].nic.mac1609_4 	DroppedPacketsInMac 	0
scalar IntersectionExampleScenario.node[0].nic.mac1609_4 	TooLittleTime 	0
scalar IntersectionExampleScenario.node[0].nic.mac1609_4 	TimesIntoBackoff 	0
scalar IntersectionExampleScenario.node[0].nic.mac1609_4 	SlotsBackoff 	0
scalar IntersectionExampleScenario.node[0].nic.mac1609_4 	NumInternalContention 	0
scalar IntersectionExampleScenario.node[0].nic.mac1609_4 	totalBusyTime 	0
scalar IntersectionExampleScenario.node[0].veinsmobility 	startTime 	0.25
scalar IntersectionExampleScenario.node[0].veinsmobility 	totalTime 	83.5
scalar IntersectionExampleScenario.node[0].veinsmobility 	stopTime 	84
scalar IntersectionExampleScenario.node[0].veinsmobility 	minSpeed 	0
scalar IntersectionExampleScenario.node[0].veinsmobility 	maxSpeed 	16.27499961853
scalar IntersectionExampleScenario.node[0].veinsmobility 	totalDistance 	550.17152513614
scalar IntersectionExampleScenario.node[0].veinsmobility 	totalCO2Emission 	180.48307917297
scalar IntersectionExampleScenario.node[3].appl 	VehicleRemoved 	0
scalar IntersectionExampleScenario.node[3].appl 	ArrivedAtDest 	1
scalar IntersectionExampleScenario.node[3].appl 	IntersectionEnterTime 	14.5
scalar IntersectionExampleScenario.node[3].appl 	IntersectionExitTime 	69.053261471679
scalar IntersectionExampleScenario.node[3].appl 	NumberOfCollisions 	0
scalar IntersectionExampleScenario.node[3].nic.phy80211p 	busyTime 	0
scalar IntersectionExampleScenario.node[3].nic.mac1609_4 	ReceivedUnicastPackets 	0
scalar IntersectionExampleScenario.node[3].nic.mac1609_4 	ReceivedBroadcasts 	0
scalar IntersectionExampleScenario.node[3].nic.mac1609_4 	SentPackets 	0
scalar IntersectionExampleScenario.node[3].nic.mac1609_4 	SNIRLostPackets 	0
scalar IntersectionExampleScenario.node[3].nic.mac1609_4 	RXTXLostPackets 	0
scalar IntersectionExampleScenario.node[3].nic.mac1609_4 	TotalLostPackets 	0
scalar IntersectionExampleScenario.node[3].nic.mac1609_4 	DroppedPacketsInMac 	0
scalar IntersectionExampleScenario.node[3].nic.mac1609_4 	TooLittleTime 	0
scalar IntersectionExampleScenario.node[3].nic.mac1609_4 	TimesIntoBackoff 	0
scalar IntersectionExampleScenario.node[3].nic.mac1609_4 	SlotsBackoff 	0
scalar IntersectionExampleScenario.node[3].nic.mac1609_4 	NumInternalContention 	0
scalar IntersectionExampleScenario.node[3].nic.mac1609_4 	totalBusyTime 	0
scalar IntersectionExampleScenario.node[3].veinsmobility 	startTime 	14.5
scalar IntersectionExampleScenario.node[3].veinsmobility 	totalTime 	71.5
scalar IntersectionExampleScenario.node[3].veinsmobility 	stopTime 	86.25
scalar IntersectionExampleScenario.node[3].veinsmobility 	minSpeed 	0
scalar IntersectionExampleScenario.node[3].veinsmobility 	maxSpeed 	15.25
scalar IntersectionExampleScenario.node[3].veinsmobility 	totalDistance 	545.2436336099
scalar IntersectionExampleScenario.node[3].veinsmobility 	totalCO2Emission 	159.33466387622
scalar IntersectionExampleScenario.node[11].appl 	VehicleRemoved 	0
scalar IntersectionExampleScenario.node[11].appl 	ArrivedAtDest 	1
scalar IntersectionExampleScenario.node[11].appl 	IntersectionEnterTime 	46.75
scalar IntersectionExampleScenario.node[11].appl 	IntersectionExitTime 	71.821241949685
scalar IntersectionExampleScenario.node[11].appl 	NumberOfCollisions 	0
scalar IntersectionExampleScenario.node[11].nic.phy80211p 	busyTime 	0
scalar IntersectionExampleScenario.node[11].nic.mac1609_4 	ReceivedUnicastPackets 	0
scalar IntersectionExampleScenario.node[11].nic.mac1609_4 	ReceivedBroadcasts 	0
scalar IntersectionExampleScenario.node[11].nic.mac1609_4 	SentPackets 	0
scalar IntersectionExampleScenario.node[11].nic.mac1609_4 	SNIRLostPackets 	0
scalar IntersectionExampleScenario.node[11].nic.mac1609_4 	RXTXLostPackets 	0
scalar IntersectionExampleScenario.node[11].nic.mac1609_4 	TotalLostPackets 	0
scalar IntersectionExampleScenario.node[11].nic.mac1609_4 	DroppedPacketsInMac 	0
scalar IntersectionExampleScenario.node[11].nic.mac1609_4 	TooLittleTime 	0
scalar IntersectionExampleScenario.node[11].nic.mac1609_4 	TimesIntoBackoff 	0
scalar IntersectionExampleScenario.node[11].nic.mac1609_4 	SlotsBackoff 	0
scalar IntersectionExampleScenario.node[11].nic.mac1609_4 	NumInternalContention 	0
scalar IntersectionExampleScenario.node[11].nic.mac1609_4 	totalBusyTime 	0
scalar IntersectionExampleScenario.node[11].veinsmobility 	startTime 	46.75
scalar IntersectionExampleScenario.node[11].veinsmobility 	totalTime 	40.75
scalar IntersectionExampleScenario.node[11].veinsmobility 	stopTime 	87.75
scalar IntersectionExampleScenario.node[11].veinsmobility 	minSpeed 	5.6500000953674
scalar IntersectionExampleScenario.node[11].veinsmobility 	maxSpeed 	16.27499961853
scalar IntersectionExampleScenario.node[11].veinsmobility 	totalDistance 	550.42944504864
scalar IntersectionExampleScenario.node[11].veinsmobility 	totalCO2Emission 	140.67534458767
scalar IntersectionExampleScenario.node[13].appl 	VehicleRemoved 	0
scalar IntersectionExampleScenario.node[13].appl 	ArrivedAtDest 	1
scalar IntersectionExampleScenario.node[13].appl 	IntersectionEnterTime 	51.75
scalar IntersectionExampleScenario.node[13].appl 	IntersectionExitTime 	75.340333465196
scalar IntersectionExampleScenario.node[13].appl 	NumberOfCollisions 	0
scalar IntersectionExampleScenario.node[13].nic.phy80211p 	busyTime 	0
scalar IntersectionExampleScenario.node[13].nic.mac1609_4 	ReceivedUnicastPackets 	0
scalar IntersectionExampleScenario.node[13].nic.mac1609_4 	ReceivedBroadcasts 	0
scalar IntersectionExampleScenario.node[13].nic.mac1609_4 	SentPackets 	0
scalar IntersectionExampleScenario.node[13].nic.mac1609_4 	SNIRLostPackets 	0
scalar IntersectionExampleScenario.node[13].nic.mac1609_4 	RXTXLostPackets 	0
scalar IntersectionExampleScenario.node[13].nic.mac1609_4 	TotalLostPackets 	0
scalar IntersectionExampleScenario.node[13].nic.mac1609_4 	DroppedPacketsInMac 	0
scalar IntersectionExampleScenario.node[13].nic.mac1609_4 	TooLittleTime 	0
scalar IntersectionExampleScenario.node[13].nic.mac1609_4 	TimesIntoBackoff 	0
scalar IntersectionExampleScenario.node[13].nic.mac1609_4 	SlotsBackoff 	0
scalar IntersectionExampleScenario.node[13].nic.mac1609_4 	NumInternalContention 	0
scalar IntersectionExampleScenario.node[13].nic.mac1609_4 	totalBusyTime 	0
scalar IntersectionExampleScenario.node[13].veinsmobility 	startTime 	51.75
scalar IntersectionExampleScenario.node[13].veinsmobility 	totalTime 	40.25
scalar IntersectionExampleScenario.node[13].veinsmobility 	stopTime 	92.25
scalar IntersectionExampleScenario.node[13].veinsmobility 	minSpeed 	5.6500000953674
scalar IntersectionExampleScenario.node[13].veinsmobility 	maxSpeed 	15.744986534119
scalar IntersectionExampleScenario.node[13].veinsmobility 	totalDistance 	546.55139335979
scalar IntersectionExampleScenario.node[13].veinsmobility 	totalCO2Emission 	129.9877966466
scalar IntersectionExampleScenario.node[16].appl 	VehicleRemoved 	0
scalar IntersectionExampleScenario.node[16].appl 	ArrivedAtDest 	1
scalar IntersectionExampleScenario.node[16].appl 	IntersectionEnterTime 	59.5
scalar IntersectionExampleScenario.node[16].appl 	IntersectionExitTime 	82.033896801731
scalar IntersectionExampleScenario.node[16].appl 	NumberOfCollisions 	0
scalar IntersectionExampleScenario.node[16].nic.phy80211p 	busyTime 	0
scalar IntersectionExampleScenario.node[16].nic.mac1609_4 	ReceivedUnicastPackets 	0
scalar IntersectionExampleScenario.node[16].nic.mac1609_4 	ReceivedBroadcasts 	0
scalar IntersectionExampleScenario.node[16].nic.mac1609_4 	SentPackets 	0
scalar IntersectionExampleScenario.node[16].nic.mac1609_4 	SNIRLostPackets 	0
scalar IntersectionExampleScenario.node[16].nic.mac1609_4 	RXTXLostPackets 	0
scalar IntersectionExampleScenario.node[16].nic.mac1609_4 	TotalLostPackets 	0
scalar IntersectionExampleScenario.node[16].nic.mac1609_4 	DroppedPacketsInMac 	0
scalar IntersectionExampleScenario.node[16].nic.mac1609_4 	TooLittleTime 	0
scalar IntersectionExampleScenario.node[16].nic.mac1609_4 	TimesIntoBackoff 	0
scalar IntersectionExampleScenario.node[16].nic.mac1609_4 	SlotsBackoff 	0
scalar IntersectionExampleScenario.node[16].nic.mac1609_4 	NumInternalContention 	0
scalar IntersectionExampleScenario.node[16].nic.mac1609_4 	totalBusyTime 	0
scalar IntersectionExampleScenario.node[16].veinsmobility 	startTime 	59.5
scalar IntersectionExampleScenario.node[16].veinsmobility 	totalTime 	38.25
scalar IntersectionExampleScenario.node[16].veinsmobility 	stopTime 	98
scalar IntersectionExampleScenario.node[16].veinsmobility 	minSpeed 	5.6500000953674
scalar IntersectionExampleScenario.node[16].veinsmobility 	maxSpeed 	16.27499961853
scalar IntersectionExampleScenario.node[16].veinsmobility 	totalDistance 	550.88079344042
scalar IntersectionExampleScenario.node[16].veinsmobility 	totalCO2Emission 	127.42163392973
scalar IntersectionExampleScenario.node[5].appl 	VehicleRemoved 	0
scalar IntersectionExampleScenario.node[5].appl 	ArrivedAtDest 	1
scalar IntersectionExampleScenario.node[5].appl 	IntersectionEnterTime 	26
scalar IntersectionExampleScenario.node[5].appl 	IntersectionExitTime 	83.540266349388
scalar IntersectionExampleScenario.node[5].appl 	NumberOfCollisions 	0
scalar IntersectionExampleScenario.node[5].nic.phy80211p 	busyTime 	0
scalar IntersectionExampleScenario.node[5].nic.mac1609_4 	ReceivedUnicastPackets 	0
scalar IntersectionExampleScenario.node[5].nic.mac1609_4 	ReceivedBroadcasts 	0
scalar IntersectionExampleScenario.node[5].nic.mac1609_4 	SentPackets 	0
scalar IntersectionExampleScenario.node[5].nic.mac1609_4 	SNIRLostPackets 	0
scalar IntersectionExampleScenario.node[5].nic.mac1609_4 	RXTXLostPackets 	0
scalar IntersectionExampleScenario.node[5].nic.mac1609_4 	TotalLostPackets 	0
scalar IntersectionExampleScenario.node[5].nic.mac1609_4 	DroppedPacketsInMac 	0
scalar IntersectionExampleScenario.node[5].nic.mac1609_4 	TooLittleTime 	0
scalar IntersectionExampleScenario.node[5].nic.mac1609_4 	TimesIntoBackoff 	0
scalar IntersectionExampleScenario.node[5].nic.mac1609_4 	SlotsBackoff 	0
scalar IntersectionExampleScenario.node[5].nic.mac1609_4 	NumInternalContention 	0
scalar IntersectionExampleScenario.node[5].nic.mac1609_4 	totalBusyTime 	0
scalar IntersectionExampleScenario.node[5].veinsmobility 	startTime 	26
scalar IntersectionExampleScenario.node[5].veinsmobility 	totalTime 	74.5
scalar IntersectionExampleScenario.node[5].veinsmobility 	stopTime 	100.75
scalar IntersectionExampleScenario.node[5].veinsmobility 	minSpeed 	0
scalar IntersectionExampleScenario.node[5].veinsmobility 	maxSpeed 	15.25
scalar IntersectionExampleScenario.node[5].veinsmobility 	totalDistance 	545.54157163054
scalar IntersectionExampleScenario.node[5].veinsmobility 	totalCO2Emission 	164.15298834017
scalar IntersectionExampleScenario.node[10].appl 	VehicleRemoved 	0
scalar IntersectionExampleScenario.node[10].appl 	ArrivedAtDest 	1
scalar IntersectionExampleScenario.node[10].appl 	IntersectionEnterTime 	42.75
scalar IntersectionExampleScenario.node[10].appl 	IntersectionExitTime 	85.335867562972
scalar IntersectionExampleScenario.node[10].appl 	NumberOfCollisions 	0
scalar IntersectionExampleScenario.node[10].nic.phy80211p 	busyTime 	0
scalar IntersectionExampleScenario.node[10].nic.mac1609_4 	ReceivedUnicastPackets 	0
scalar IntersectionExampleScenario.node[10].nic.mac1609_4 	ReceivedBroadcasts 	0
scalar IntersectionExampleScenario.node[10].nic.mac1609_4 	SentPackets 	0
scalar IntersectionExampleScenario.node[10].nic.mac1609_4 	SNIRLostPackets 	0
scalar IntersectionExampleScenario.node[10].nic.mac1609_4 	RXTXLostPackets 	0
scalar IntersectionExampleScenario.node[10].nic.mac1609_4 	TotalLostPackets 	0
scalar IntersectionExampleScenario.node[10].nic.mac1609_4 	DroppedPacketsInMac 	0
scalar IntersectionExampleScenario.node[10].nic.mac1609_4 	TooLittleTime 	0
scalar IntersectionExampleScenario.node[10].nic.mac1609_4 	TimesIntoBackoff 	0
scalar IntersectionExampleScenario.node[10].nic.mac1609_4 	SlotsBackoff 	0
scalar IntersectionExampleScenario.node[10].nic.mac1609_4 	NumInternalContention 	0
scalar IntersectionExampleScenario.node[10].nic.mac1609_4 	totalBusyTime 	0
scalar IntersectionExampleScenario.node[10].veinsmobility 	startTime 	42.75
scalar IntersectionExampleScenario.node[10].veinsmobility 	totalTime 	58.5
scalar IntersectionExampleScenario.node[10].veinsmobility 	stopTime 	101.5
scalar IntersectionExampleScenario.node[10].veinsmobility 	minSpeed 	0
scalar IntersectionExampleScenario.node[10].veinsmobility 	maxSpeed 	15.64999961853
scalar IntersectionExampleScenario.node[10].veinsmobility 	totalDistance 	551.34510803223
scalar IntersectionExampleScenario.node[10].veinsmobility 	totalCO2Emission 	148.12812149111
scalar IntersectionExampleScenario.node[12].appl 	VehicleRemoved 	0
scalar IntersectionExampleScenario.node[12].appl 	ArrivedAtDest 	1
scalar IntersectionExampleScenario.node[12].appl 	IntersectionEnterTime 	51.5
scalar IntersectionExampleScenario.node[12].appl 	IntersectionExitTime 	87.55933923769
scalar IntersectionExampleScenario.node[12].appl 	NumberOfCollisions 	0
scalar IntersectionExampleScenario.node[12].nic.phy80211p 	busyTime 	0
scalar IntersectionExampleScenario.node[12].nic.mac1609_4 	ReceivedUnicastPackets 	0
scalar IntersectionExampleScenario.node[12].nic.mac1609_4 	ReceivedBroadcasts 	0
scalar IntersectionExampleScenario.node[12].nic.mac1609_4 	SentPackets 	0
scalar IntersectionExampleScenario.node[12].nic.mac1609_4 	SNIRLostPackets 	0
scalar IntersectionExampleScenario.node[12].nic.mac1609_4 	RXTXLostPackets 	0
scalar IntersectionExampleScenario.node[12].nic.mac1609_4 	TotalLostPackets 	0
scalar IntersectionExampleScenario.node[12].nic.mac1609_4 	DroppedPacketsInMac 	0
scalar IntersectionExampleScenario.node[12].nic.mac1609_4 	TooLittleTime 	0
scalar IntersectionExampleScenario.node[12].nic.mac1609_4 	TimesIntoBackoff 	0
scalar IntersectionExampleScenario.node[12].nic.mac1609_4 	SlotsBackoff 	0
scalar IntersectionExampleScenario.node[12].nic.mac1609_4 	NumInternalContention 	0
scalar IntersectionExampleScenario.node[12].nic.mac1609_4 	totalBusyTime 	0
scalar IntersectionExampleScenario.node[12].veinsmobility 	startTime 	51.5
scalar IntersectionExampleScenario.node[12].veinsmobility 	totalTime 	52
scalar IntersectionExampleScenario.node[12].veinsmobility 	stopTime 	103.75
scalar IntersectionExampleScenario.node[12].veinsmobility 	minSpeed 	0
scalar IntersectionExampleScenario.node[12].veinsmobility 	maxSpeed 	15.64999961853
scalar IntersectionExampleScenario.node[12].veinsmobility 	totalDistance 	553.23558044434
scalar IntersectionExampleScenario.node[12].veinsmobility 	totalCO2Emission 	140.46021473217
scalar IntersectionExampleScenario.node[15].appl 	VehicleRemoved 	0
scalar IntersectionExampleScenario.node[15].appl 	ArrivedAtDest 	1
scalar IntersectionExampleScenario.node[15].appl 	IntersectionEnterTime 	54.75
scalar IntersectionExampleScenario.node[15].appl 	IntersectionExitTime 	90.333162451221
scalar IntersectionExampleScenario.node[15].appl 	NumberOfCollisions 	0
scalar IntersectionExampleScenario.node[15].nic.phy80211p 	busyTime 	0
scalar IntersectionExampleScenario.node[15].nic.mac1609_4 	ReceivedUnicastPackets 	0
scalar IntersectionExampleScenario.node[15].nic.mac1609_4 	ReceivedBroadcasts 	0
scalar IntersectionExampleScenario.node[15].nic.mac1609_4 	SentPackets 	0
scalar IntersectionExampleScenario.node[15].nic.mac1609_4 	SNIRLostPackets 	0
scalar IntersectionExampleScenario.node[15].nic.mac1609_4 	RXTXLostPackets 	0
scalar IntersectionExampleScenario.node[15].nic.mac1609_4 	TotalLostPackets 	0
scalar IntersectionExampleScenario.node[15].nic.mac1609_4 	DroppedPacketsInMac 	0
scalar IntersectionExampleScenario.node[15].nic.mac1609_4 	TooLittleTime 	0
scalar IntersectionExampleScenario.node[15].nic.mac1609_4 	TimesIntoBackoff 	0
scalar IntersectionExampleScenario.node[15].nic.mac1609_4 	SlotsBackoff 	0
scalar IntersectionExampleScenario.node[15].nic.mac1609_4 	NumInternalContention 	0
scalar IntersectionExampleScenario.node[15].nic.mac1609_4 	totalBusyTime 	0
scalar IntersectionExampleScenario.node[15].veinsmobility 	startTime 	54.75
scalar IntersectionExampleScenario.node[15].veinsmobility 	totalTime 	51.75
scalar IntersectionExampleScenario.node[15].veinsmobility 	stopTime 	106.75
scalar IntersectionExampleScenario.node[15].veinsmobility 	minSpeed 	0
scalar IntersectionExampleScenario.node[15].veinsmobility 	maxSpeed 	15.64999961853
scalar IntersectionExampleScenario.node[15].veinsmobility 	totalDistance 	561.78181647324
scalar IntersectionExampleScenario.node[15].veinsmobility 	totalCO2Emission 	143.61376367748
scalar IntersectionExampleScenario.node[19].appl 	VehicleRemoved 	0
scalar IntersectionExampleScenario.node[19].appl 	ArrivedAtDest 	1
scalar IntersectionExampleScenario.node[19].appl 	IntersectionEnterTime 	64.5
scalar IntersectionExampleScenario.node[19].appl 	IntersectionExitTime 	92.279800309043
scalar IntersectionExampleScenario.node[19].appl 	NumberOfCollisions 	0
scalar IntersectionExampleScenario.node[19].nic.phy80211p 	busyTime 	0
scalar IntersectionExampleScenario.node[19].nic.mac1609_4 	ReceivedUnicastPackets 	0
scalar IntersectionExampleScenario.node[19].nic.mac1609_4 	ReceivedBroadcasts 	0
scalar IntersectionExampleScenario.node[19].nic.mac1609_4 	SentPackets 	0
scalar IntersectionExampleScenario.node[19].nic.mac1609_4 	SNIRLostPackets 	0
scalar IntersectionExampleScenario.node[19].nic.mac1609_4 	RXTXLostPackets 	0
scalar IntersectionExampleScenario.node[19].nic.mac1609_4 	TotalLostPackets 	0
scalar IntersectionExampleScenario.node[19].nic.mac1609_4 	DroppedPacketsInMac 	0
scalar IntersectionExampleScenario.node[19].nic.mac1609_4 	TooLittleTime 	0
scalar IntersectionExampleScenario.node[19].nic.mac1609_4 	TimesIntoBackoff 	0
scalar IntersectionExampleScenario.node[19].nic.mac1609_4 	SlotsBackoff 	0
scalar IntersectionExampleScenario.node[19].nic.mac1609_4 	NumInternalContention 	0
scalar IntersectionExampleScenario.node[19].nic.mac1609_4 	totalBusyTime 	0
scalar IntersectionExampleScenario.node[19].veinsmobility 	startTime 	64.5
scalar IntersectionExampleScenario.node[19].veinsmobility 	totalTime 	43.75
scalar IntersectionExampleScenario.node[19].veinsmobility 	stopTime 	108.5
scalar IntersectionExampleScenario.node[19].veinsmobility 	minSpeed 	5.6500000953674
scalar IntersectionExampleScenario.node[19].veinsmobility 	maxSpeed 	15.64999961853
scalar IntersectionExampleScenario.node[19].veinsmobility 	totalDistance 	553.970703125
scalar IntersectionExampleScenario.node[19].veinsmobility 	totalCO2Emission 	134.3650890023
scalar IntersectionExampleScenario.node[14].appl 	VehicleRemoved 	0
scalar IntersectionExampleScenario.node[14].appl 	ArrivedAtDest 	1
scalar IntersectionExampleScenario.node[14].appl 	IntersectionEnterTime 	52.75
scalar IntersectionExampleScenario.node[14].appl 	IntersectionExitTime 	99.812466981879
scalar IntersectionExampleScenario.node[14].appl 	NumberOfCollisions 	0
scalar IntersectionExampleScenario.node[14].nic.phy80211p 	busyTime 	0
scalar IntersectionExampleScenario.node[14].nic.mac1609_4 	ReceivedUnicastPackets 	0
scalar IntersectionExampleScenario.node[14].nic.mac1609_4 	ReceivedBroadcasts 	0
scalar IntersectionExampleScenario.node[14].nic.mac1609_4 	SentPackets 	0
scalar IntersectionExampleScenario.node[14].nic.mac1609_4 	SNIRLostPackets 	0
scalar IntersectionExampleScenario.node[14].nic.mac1609_4 	RXTXLostPackets 	0
scalar IntersectionExampleScenario.node[14].nic.mac1609_4 	TotalLostPackets 	0
scalar IntersectionExampleScenario.node[14].nic.mac1609_4 	DroppedPacketsInMac 	0
scalar IntersectionExampleScenario.node[14].nic.mac1609_4 	TooLittleTime 	0
scalar IntersectionExampleScenario.node[14].nic.mac1609_4 	TimesIntoBackoff 	0
scalar IntersectionExampleScenario.node[14].nic.mac1609_4 	SlotsBackoff 	0
scalar IntersectionExampleScenario.node[14].nic.mac1609_4 	NumInternalContention 	0
scalar IntersectionExampleScenario.node[14].nic.mac1609_4 	totalBusyTime 	0
scalar IntersectionExampleScenario.node[14].veinsmobility 	startTime 	52.75
scalar IntersectionExampleScenario.node[14].veinsmobility 	totalTime 	64.25
scalar IntersectionExampleScenario.node[14].veinsmobility 	stopTime 	117.25
scalar IntersectionExampleScenario.node[14].veinsmobility 	minSpeed 	0
scalar IntersectionExampleScenario.node[14].veinsmobility 	maxSpeed 	14.75
scalar IntersectionExampleScenario.node[14].veinsmobility 	totalDistance 	550.93944673967
scalar IntersectionExampleScenario.node[14].veinsmobility 	totalCO2Emission 	148.27263671763
scalar IntersectionExampleScenario.node[21].appl 	VehicleRemoved 	0
scalar IntersectionExampleScenario.node[21].appl 	ArrivedAtDest 	1
scalar IntersectionExampleScenario.node[21].appl 	IntersectionEnterTime 	71.5
scalar IntersectionExampleScenario.node[21].appl 	IntersectionExitTime 	101.85236694748
scalar IntersectionExampleScenario.node[21].appl 	NumberOfCollisions 	0
scalar IntersectionExampleScenario.node[21].nic.phy80211p 	busyTime 	0
scalar IntersectionExampleScenario.node[21].nic.mac1609_4 	ReceivedUnicastPackets 	0
scalar IntersectionExampleScenario.node[21].nic.mac1609_4 	ReceivedBroadcasts 	0
scalar IntersectionExampleScenario.node[21].nic.mac1609_4 	SentPackets 	0
scalar IntersectionExampleScenario.node[21].nic.mac1609_4 	SNIRLostPackets 	0
scalar IntersectionExampleScenario.node[21].nic.mac1609_4 	RXTXLostPackets 	0
scalar IntersectionExampleScenario.node[21].nic.mac1609_4 	TotalLostPackets 	0
scalar IntersectionExampleScenario.node[21].nic.mac1609_4 	DroppedPacketsInMac 	0
scalar IntersectionExampleScenario.node[21].nic.mac1609_4 	TooLittleTime 	0
scalar IntersectionExampleScenario.node[21].nic.mac1609_4 	TimesIntoBackoff 	0
scalar IntersectionExampleScenario.node[21].nic.mac1609_4 	SlotsBackoff 	0
scalar IntersectionExampleScenario.node[21].nic.mac1609_4 	NumInternalContention 	0
scalar IntersectionExampleScenario.node[21].nic.mac1609_4 	totalBusyTime 	0
scalar IntersectionExampleScenario.node[21].veinsmobility 	startTime 	71.5
scalar IntersectionExampleScenario.node[21].veinsmobility 	totalTime 	47.25
scalar IntersectionExampleScenario.node[21].veinsmobility 	stopTime 	119
scalar IntersectionExampleScenario.node[21].veinsmobility 	minSpeed 	2.7085943222046
scalar IntersectionExampleScenario.node[21].veinsmobility 	maxSpeed 	15.25
scalar IntersectionExampleScenario.node[21].veinsmobility 	totalDistance 	545.42428255558
scalar IntersectionExampleScenario.node[21].veinsmobility 	totalCO2Emission 	134.53581974813
scalar IntersectionExampleScenario.node[23].appl 	VehicleRemoved 	0
scalar IntersectionExampleScenario.node[23].appl 	ArrivedAtDest 	1
scalar IntersectionExampleScenario.node[23].appl 	IntersectionEnterTime 	76.75
scalar IntersectionExampleScenario.node[23].appl 	IntersectionExitTime 	104.35083079213
scalar IntersectionExampleScenario.node[23].appl 	NumberOfCollisions 	0
scalar IntersectionExampleScenario.node[23].nic.phy80211p 	busyTime 	0
scalar IntersectionExampleScenario.node[23].nic.mac1609_4 	ReceivedUnicastPackets 	0
scalar IntersectionExampleScenario.node[23].nic.mac1609_4 	ReceivedBroadcasts 	0
scalar IntersectionExampleScenario.node[23].nic.mac1609_4 	SentPackets 	0
scalar IntersectionExampleScenario.node[23].nic.mac1609_4 	SNIRLostPackets 	0
scalar IntersectionExampleScenario.node[23].nic.mac1609_4 	RXTXLostPackets 	0
scalar IntersectionExampleScenario.node[23].nic.mac1609_4 	TotalLostPackets 	0
scalar IntersectionExampleScenario.node[23].nic.mac1609_4 	DroppedPacketsInMac 	0
scalar IntersectionExampleScenario.node[23].nic.mac1609_4 	TooLittleTime 	0
scalar IntersectionExampleScenario.node[23].nic.mac1609_4 	TimesIntoBackoff 	0
scalar IntersectionExampleScenario.node[23].nic.mac1609_4 	SlotsBackoff 	0
scalar IntersectionExampleScenario.node[23].nic.mac1609_4 	NumInternalContention 	0
scalar IntersectionExampleScenario.node[23].nic.mac1609_4 	totalBusyTime 	0
scalar IntersectionExampleScenario.node[23].veinsmobility 	startTime 	76.75
scalar IntersectionExampleScenario.node[23].veinsmobility 	totalTime 	43.75
scalar IntersectionExampleScenario.node[23].veinsmobility 	stopTime 	120.75
scalar IntersectionExampleScenario.node[23].veinsmobility 	minSpeed 	4.8986668586731
scalar IntersectionExampleScenario.node[23].veinsmobility 	maxSpeed 	15.974636077881
scalar IntersectionExampleScenario.node[23].veinsmobility 	totalDistance 	545.26061317531
scalar IntersectionExampleScenario.node[23].veinsmobility 	totalCO2Emission 	140.35702828503
scalar IntersectionExampleScenario.node[28].appl 	VehicleRemoved 	0
scalar IntersectionExampleScenario.node[28].appl 	ArrivedAtDest 	1
scalar IntersectionExampleScenario.node[28].appl 	IntersectionEnterTime 	89.75
scalar IntersectionExampleScenario.node[28].appl 	IntersectionExitTime 	112.87361736735
scalar IntersectionExampleScenario.node[28].appl 	NumberOfCollisions 	0
scalar IntersectionExampleScenario.node[28].nic.phy80211p 	busyTime 	0
scalar IntersectionExampleScenario.node[28].nic.mac1609_4 	ReceivedUnicastPackets 	0
scalar IntersectionExampleScenario.node[28].nic.mac1609_4 	ReceivedBroadcasts 	0
scalar IntersectionExampleScenario.node[28].nic.mac1609_4 	SentPackets 	0
scalar IntersectionExampleScenario.node[28].nic.mac1609_4 	SNIRLostPackets 	0
scalar IntersectionExampleScenario.node[28].nic.mac1609_4 	RXTXLostPackets 	0
scalar IntersectionExampleScenario.node[28].nic.mac1609_4 	TotalLostPackets 	0
scalar IntersectionExampleScenario.node[28].nic.mac1609_4 	DroppedPacketsInMac 	0
scalar IntersectionExampleScenario.node[28].nic.mac1609_4 	TooLittleTime 	0
scalar IntersectionExampleScenario.node[28].nic.mac1609_4 	TimesIntoBackoff 	0
scalar IntersectionExampleScenario.node[28].nic.mac1609_4 	SlotsBackoff 	0
scalar IntersectionExampleScenario.node[28].nic.mac1609_4 	NumInternalContention 	0
scalar IntersectionExampleScenario.node[28].nic.mac1609_4 	totalBusyTime 	0
scalar IntersectionExampleScenario.node[28].veinsmobility 	startTime 	89.75
scalar IntersectionExampleScenario.node[28].veinsmobility 	totalTime 	39.25
scalar IntersectionExampleScenario.node[28].veinsmobility 	stopTime 	129.25
scalar IntersectionExampleScenario.node[28].veinsmobility 	minSpeed 	5.6500000953674
scalar IntersectionExampleScenario.node[28].veinsmobility 	maxSpeed 	15.64999961853
scalar IntersectionExampleScenario.node[28].veinsmobility 	totalDistance 	550.36706326528
scalar IntersectionExampleScenario.node[28].veinsmobility 	totalCO2Emission 	123.47666246371
scalar IntersectionExampleScenario.node[17].appl 	VehicleRemoved 	0
scalar IntersectionExampleScenario.node[17].appl 	ArrivedAtDest 	1
scalar IntersectionExampleScenario.node[17].appl 	IntersectionEnterTime 	59.75
scalar IntersectionExampleScenario.node[17].appl 	IntersectionExitTime 	116.34320735512
scalar IntersectionExampleScenario.node[17].appl 	NumberOfCollisions 	0
scalar IntersectionExampleScenario.node[17].nic.phy80211p 	busyTime 	0
scalar IntersectionExampleScenario.node[17].nic.mac1609_4 	ReceivedUnicastPackets 	0
scalar IntersectionExampleScenario.node[17].nic.mac1609_4 	ReceivedBroadcasts 	0
scalar IntersectionExampleScenario.node[17].nic.mac1609_4 	SentPackets 	0
scalar IntersectionExampleScenario.node[17].nic.mac1609_4 	SNIRLostPackets 	0
scalar IntersectionExampleScenario.node[17].nic.mac1609_4 	RXTXLostPackets 	0
scalar IntersectionExampleScenario.node[17].nic.mac1609_4 	TotalLostPackets 	0
scalar IntersectionExampleScenario.node[17].nic.mac1609_4 	DroppedPacketsInMac 	0
scalar IntersectionExampleScenario.node[17].nic.mac1609_4 	TooLittleTime 	0
scalar IntersectionExampleScenario.node[17].nic.mac1609_4 	TimesIntoBackoff 	0
scalar IntersectionExampleScenario.node[17].nic.mac1609_4 	SlotsBackoff 	0
scalar IntersectionExampleScenario.node[17].nic.mac1609_4 	NumInternalContention 	0
scalar IntersectionExampleScenario.node[17].nic.mac1609_4 	totalBusyTime 	0
scalar IntersectionExampleScenario.node[17].veinsmobility 	startTime 	59.75
scalar IntersectionExampleScenario.node[17].veinsmobility 	totalTime 	73.25
scalar IntersectionExampleScenario.node[17].veinsmobility 	stopTime 	133.25
scalar IntersectionExampleScenario.node[17].veinsmobility 	minSpeed 	0
scalar IntersectionExampleScenario.node[17].veinsmobility 	maxSpeed 	15.02499961853
scalar IntersectionExampleScenario.node[17].veinsmobility 	totalDistance 	550.91409410586
scalar IntersectionExampleScenario.node[17].veinsmobility 	totalCO2Emission 	159.88553200188
scalar IntersectionExampleScenario.node[29].appl 	VehicleRemoved 	0
scalar IntersectionExampleScenario.node[29].appl 	ArrivedAtDest 	1
scalar IntersectionExampleScenario.node[29].appl 	IntersectionEnterTime 	91
scalar IntersectionExampleScenario.node[29].appl 	IntersectionExitTime 	118.55899413963
scalar IntersectionExampleScenario.node[29].appl 	NumberOfCollisions 	0
scalar IntersectionExampleScenario.node[29].nic.phy80211p 	busyTime 	0
scalar IntersectionExampleScenario.node[29].nic.mac1609_4 	ReceivedUnicastPackets 	0
scalar IntersectionExampleScenario.node[29].nic.mac1609_4 	ReceivedBroadcasts 	0
scalar IntersectionExampleScenario.node[29].nic.mac1609_4 	SentPackets 	0
scalar IntersectionExampleScenario.node[29].nic.mac1609_4 	SNIRLostPackets 	0
scalar IntersectionExampleScenario.node[29].nic.mac1609_4 	RXTXLostPackets 	0
scalar IntersectionExampleScenario.node[29].nic.mac1609_4 	TotalLostPackets 	0
scalar IntersectionExampleScenario.node[29].nic.mac1609_4 	DroppedPacketsInMac 	0
scalar IntersectionExampleScenario.node[29].nic.mac1609_4 	TooLittleTime 	0
scalar IntersectionExampleScenario.node[29].nic.mac1609_4 	TimesIntoBackoff 	0
scalar IntersectionExampleScenario.node[29].nic.mac1609_4 	SlotsBackoff 	0
scalar IntersectionExampleScenario.node[29].nic.mac1609_4 	NumInternalContention 	0
scalar IntersectionExampleScenario.node[29].nic.mac1609_4 	totalBusyTime 	0
scalar IntersectionExampleScenario.node[29].veinsmobility 	startTime 	91
scalar IntersectionExampleScenario.node[29].veinsmobility 	totalTime 	43.5
scalar IntersectionExampleScenario.node[29].veinsmobility 	stopTime 	134.75
scalar IntersectionExampleScenario.node[29].veinsmobility 	minSpeed 	4.6999583244324
scalar IntersectionExampleScenario.node[29].veinsmobility 	maxSpeed 	16.27499961853
scalar IntersectionExampleScenario.node[29].veinsmobility 	totalDistance 	550.23435505736
scalar IntersectionExampleScenario.node[29].veinsmobility 	totalCO2Emission 	134.48129954316
scalar IntersectionExampleScenario.node[30].appl 	VehicleRemoved 	0
scalar IntersectionExampleScenario.node[30].appl 	ArrivedAtDest 	1
scalar IntersectionExampleScenario.node[30].appl 	IntersectionEnterTime 	95
scalar IntersectionExampleScenario.node[30].appl 	IntersectionExitTime 	121.0797329841
scalar IntersectionExampleScenario.node[30].appl 	NumberOfCollisions 	0
scalar IntersectionExampleScenario.node[30].nic.phy80211p 	busyTime 	0
scalar IntersectionExampleScenario.node[30].nic.mac1609_4 	ReceivedUnicastPackets 	0
scalar IntersectionExampleScenario.node[30].nic.mac1609_4 	ReceivedBroadcasts 	0
scalar IntersectionExampleScenario.node[30].nic.mac1609_4 	SentPackets 	0
scalar IntersectionExampleScenario.node[30].nic.mac1609_4 	SNIRLostPackets 	0
scalar IntersectionExampleScenario.node[30].nic.mac1609_4 	RXTXLostPackets 	0
scalar IntersectionExampleScenario.node[30].nic.mac1609_4 	TotalLostPackets 	0
scalar IntersectionExampleScenario.node[30].nic.mac1609_4 	DroppedPacketsInMac 	0
scalar IntersectionExampleScenario.node[30].nic.mac1609_4 	TooLittleTime 	0
scalar IntersectionExampleScenario.node[30].nic.mac1609_4 	TimesIntoBackoff 	0
scalar IntersectionExampleScenario.node[30].nic.mac1609_4 	SlotsBackoff 	0
scalar IntersectionExampleScenario.node[30].nic.mac1609_4 	NumInternalContention 	0
scalar IntersectionExampleScenario.node[30].nic.mac1609_4 	totalBusyTime 	0
scalar IntersectionExampleScenario.node[30].veinsmobility 	startTime 	95
scalar IntersectionExampleScenario.node[30].veinsmobility 	totalTime 	42
scalar IntersectionExampleScenario.node[30].veinsmobility 	stopTime 	137.25
scalar IntersectionExampleScenario.node[30].veinsmobility 	minSpeed 	5.6500000953674
scalar IntersectionExampleScenario.node[30].veinsmobility 	maxSpeed 	16.27499961853
scalar IntersectionExampleScenario.node[30].veinsmobility 	totalDistance 	557.5495985591
scalar IntersectionExampleScenario.node[30].veinsmobility 	totalCO2Emission 	134.5552803604
scalar IntersectionExampleScenario.node[31].appl 	VehicleRemoved 	0
scalar IntersectionExampleScenario.node[31].appl 	ArrivedAtDest 	1
scalar IntersectionExampleScenario.node[31].appl 	IntersectionEnterTime 	96.75
scalar IntersectionExampleScenario.node[31].appl 	IntersectionExitTime 	122.55222284284
scalar IntersectionExampleScenario.node[31].appl 	NumberOfCollisions 	0
scalar IntersectionExampleScenario.node[31].nic.phy80211p 	busyTime 	0
scalar IntersectionExampleScenario.node[31].nic.mac1609_4 	ReceivedUnicastPackets 	0
scalar IntersectionExampleScenario.node[31].nic.mac1609_4 	ReceivedBroadcasts 	0
scalar IntersectionExampleScenario.node[31].nic.mac1609_4 	SentPackets 	0
scalar IntersectionExampleScenario.node[31].nic.mac1609_4 	SNIRLostPackets 	0
scalar IntersectionExampleScenario.node[31].nic.mac1609_4 	RXTXLostPackets 	0
scalar IntersectionExampleScenario.node[31].nic.mac1609_4 	TotalLostPackets 	0
scalar IntersectionExampleScenario.node[31].nic.mac1609_4 	DroppedPacketsInMac 	0
scalar IntersectionExampleScenario.node[31].nic.mac1609_4 	TooLittleTime 	0
scalar IntersectionExampleScenario.node[31].nic.mac1609_4 	TimesIntoBackoff 	0
scalar IntersectionExampleScenario.node[31].nic.mac1609_4 	SlotsBackoff 	0
scalar IntersectionExampleScenario.node[31].nic.mac1609_4 	NumInternalContention 	0
scalar IntersectionExampleScenario.node[31].nic.mac1609_4 	totalBusyTime 	0
scalar IntersectionExampleScenario.node[31].veinsmobility 	startTime 	96.75
scalar IntersectionExampleScenario.node[31].veinsmobility 	totalTime 	41
scalar IntersectionExampleScenario.node[31].veinsmobility 	stopTime 	138
scalar IntersectionExampleScenario.node[31].veinsmobility 	minSpeed 	5.6500000953674
scalar IntersectionExampleScenario.node[31].veinsmobility 	maxSpeed 	16.27499961853
scalar IntersectionExampleScenario.node[31].veinsmobility 	totalDistance 	574.24308776855
scalar IntersectionExampleScenario.node[31].veinsmobility 	totalCO2Emission 	134.06270488089
scalar IntersectionExampleScenario.node[18].appl 	VehicleRemoved 	0
scalar IntersectionExampleScenario.node[18].appl 	ArrivedAtDest 	1
scalar IntersectionExampleScenario.node[18].appl 	IntersectionEnterTime 	61.5
scalar IntersectionExampleScenario.node[18].appl 	IntersectionExitTime 	132.26468983013
scalar IntersectionExampleScenario.node[18].appl 	NumberOfCollisions 	0
scalar IntersectionExampleScenario.node[18].nic.phy80211p 	busyTime 	0
scalar IntersectionExampleScenario.node[18].nic.mac1609_4 	ReceivedUnicastPackets 	0
scalar IntersectionExampleScenario.node[18].nic.mac1609_4 	ReceivedBroadcasts 	0
scalar IntersectionExampleScenario.node[18].nic.mac1609_4 	SentPackets 	0
scalar IntersectionExampleScenario.node[18].nic.mac1609_4 	SNIRLostPackets 	0
scalar IntersectionExampleScenario.node[18].nic.mac1609_4 	RXTXLostPackets 	0
scalar IntersectionExampleScenario.node[18].nic.mac1609_4 	TotalLostPackets 	0
scalar IntersectionExampleScenario.node[18].nic.mac1609_4 	DroppedPacketsInMac 	0
scalar IntersectionExampleScenario.node[18].nic.mac1609_4 	TooLittleTime 	0
scalar IntersectionExampleScenario.node[18].nic.mac1609_4 	TimesIntoBackoff 	0
scalar IntersectionExampleScenario.node[18].nic.mac1609_4 	SlotsBackoff 	0
scalar IntersectionExampleScenario.node[18].nic.mac1609_4 	NumInternalContention 	0
scalar IntersectionExampleScenario.node[18].nic.mac1609_4 	totalBusyTime 	0
scalar IntersectionExampleScenario.node[18].veinsmobility 	startTime 	61.5
scalar IntersectionExampleScenario.node[18].veinsmobility 	totalTime 	86.75
scalar IntersectionExampleScenario.node[18].veinsmobility 	stopTime 	148.5
scalar IntersectionExampleScenario.node[18].veinsmobility 	minSpeed 	0
scalar IntersectionExampleScenario.node[18].veinsmobility 	maxSpeed 	15.64999961853
scalar IntersectionExampleScenario.node[18].veinsmobility 	totalDistance 	572.28723907471
scalar IntersectionExampleScenario.node[18].veinsmobility 	totalCO2Emission 	180.86408080812
scalar IntersectionExampleScenario.node[20].appl 	VehicleRemoved 	0
scalar IntersectionExampleScenario.node[20].appl 	ArrivedAtDest 	1
scalar IntersectionExampleScenario.node[20].appl 	IntersectionEnterTime 	70
scalar IntersectionExampleScenario.node[20].appl 	IntersectionExitTime 	134.78731685635
scalar IntersectionExampleScenario.node[20].appl 	NumberOfCollisions 	0
scalar IntersectionExampleScenario.node[20].nic.phy80211p 	busyTime 	0
scalar IntersectionExampleScenario.node[20].nic.mac1609_4 	ReceivedUnicastPackets 	0
scalar IntersectionExampleScenario.node[20].nic.mac1609_4 	ReceivedBroadcasts 	0
scalar IntersectionExampleScenario.node[20].nic.mac1609_4 	SentPackets 	0
scalar IntersectionExampleScenario.node[20].nic.mac1609_4 	SNIRLostPackets 	0
scalar IntersectionExampleScenario.node[20].nic.mac1609_4 	RXTXLostPackets 	0
scalar IntersectionExampleScenario.node[20].nic.mac1609_4 	TotalLostPackets 	0
scalar IntersectionExampleScenario.node[20].nic.mac1609_4 	DroppedPacketsInMac 	0
scalar IntersectionExampleScenario.node[20].nic.mac1609_4 	TooLittleTime 	0
scalar IntersectionExampleScenario.node[20].nic.mac1609_4 	TimesIntoBackoff 	0
scalar IntersectionExampleScenario.node[20].nic.mac1609_4 	SlotsBackoff 	0
scalar IntersectionExampleScenario.node[20].nic.mac1609_4 	NumInternalContention 	0
scalar IntersectionExampleScenario.node[20].nic.mac1609_4 	totalBusyTime 	0
scalar IntersectionExampleScenario.node[20].veinsmobility 	startTime 	70
scalar IntersectionExampleScenario.node[20].veinsmobility 	totalTime 	81.25
scalar IntersectionExampleScenario.node[20].veinsmobility 	stopTime 	151.5
scalar IntersectionExampleScenario.node[20].veinsmobility 	minSpeed 	0
scalar IntersectionExampleScenario.node[20].veinsmobility 	maxSpeed 	15.02499961853
scalar IntersectionExampleScenario.node[20].veinsmobility 	totalDistance 	551.88468170166
scalar IntersectionExampleScenario.node[20].veinsmobility 	totalCO2Emission 	165.92754133143
scalar IntersectionExampleScenario.node[22].appl 	VehicleRemoved 	0
scalar IntersectionExampleScenario.node[22].appl 	ArrivedAtDest 	1
scalar IntersectionExampleScenario.node[22].appl 	IntersectionEnterTime 	74.75
scalar IntersectionExampleScenario.node[22].appl 	IntersectionExitTime 	136.27234462718
scalar IntersectionExampleScenario.node[22].appl 	NumberOfCollisions 	0
scalar IntersectionExampleScenario.node[22].nic.phy80211p 	busyTime 	0
scalar IntersectionExampleScenario.node[22].nic.mac1609_4 	ReceivedUnicastPackets 	0
scalar IntersectionExampleScenario.node[22].nic.mac1609_4 	ReceivedBroadcasts 	0
scalar IntersectionExampleScenario.node[22].nic.mac1609_4 	SentPackets 	0
scalar IntersectionExampleScenario.node[22].nic.mac1609_4 	SNIRLostPackets 	0
scalar IntersectionExampleScenario.node[22].nic.mac1609_4 	RXTXLostPackets 	0
scalar IntersectionExampleScenario.node[22].nic.mac1609_4 	TotalLostPackets 	0
scalar IntersectionExampleScenario.node[22].nic.mac1609_4 	DroppedPacketsInMac 	0
scalar IntersectionExampleScenario.node[22].nic.mac1609_4 	TooLittleTime 	0
scalar IntersectionExampleScenario.node[22].nic.mac1609_4 	TimesIntoBackoff 	0
scalar IntersectionExampleScenario.node[22].nic.mac1609_4 	SlotsBackoff 	0
scalar IntersectionExampleScenario.node[22].nic.mac1609_4 	NumInternalContention 	0
scalar IntersectionExampleScenario.node[22].nic.mac1609_4 	totalBusyTime 	0
scalar IntersectionExampleScenario.node[22].veinsmobility 	startTime 	74.75
scalar IntersectionExampleScenario.node[22].veinsmobility 	totalTime 	77.5
scalar IntersectionExampleScenario.node[22].veinsmobility 	stopTime 	152.5
scalar IntersectionExampleScenario.node[22].veinsmobility 	minSpeed 	0
scalar IntersectionExampleScenario.node[22].veinsmobility 	maxSpeed 	16.418416976929
scalar IntersectionExampleScenario.node[22].veinsmobility 	totalDistance 	551.85562896729
scalar IntersectionExampleScenario.node[22].veinsmobility 	totalCO2Emission 	176.65423364483
scalar IntersectionExampleScenario.node[27].appl 	VehicleRemoved 	0
scalar IntersectionExampleScenario.node[27].appl 	ArrivedAtDest 	1
scalar IntersectionExampleScenario.node[27].appl 	IntersectionEnterTime 	89
scalar IntersectionExampleScenario.node[27].appl 	IntersectionExitTime 	139.2619535457
scalar IntersectionExampleScenario.node[27].appl 	NumberOfCollisions 	0
scalar IntersectionExampleScenario.node[27].nic.phy80211p 	busyTime 	0
scalar IntersectionExampleScenario.node[27].nic.mac1609_4 	ReceivedUnicastPackets 	0
scalar IntersectionExampleScenario.node[27].nic.mac1609_4 	ReceivedBroadcasts 	0
scalar IntersectionExampleScenario.node[27].nic.mac1609_4 	SentPackets 	0
scalar IntersectionExampleScenario.node[27].nic.mac1609_4 	SNIRLostPackets 	0
scalar IntersectionExampleScenario.node[27].nic.mac1609_4 	RXTXLostPackets 	0
scalar IntersectionExampleScenario.node[27].nic.mac1609_4 	TotalLostPackets 	0
scalar IntersectionExampleScenario.node[27].nic.mac1609_4 	DroppedPacketsInMac 	0
scalar IntersectionExampleScenario.node[27].nic.mac1609_4 	TooLittleTime 	0
scalar IntersectionExampleScenario.node[27].nic.mac1609_4 	TimesIntoBackoff 	0
scalar IntersectionExampleScenario.node[27].nic.mac1609_4 	SlotsBackoff 	0
scalar IntersectionExampleScenario.node[27].nic.mac1609_4 	NumInternalContention 	0
scalar IntersectionExampleScenario.node[27].nic.mac1609_4 	totalBusyTime 	0
scalar IntersectionExampleScenario.node[27].veinsmobility 	startTime 	89
scalar IntersectionExampleScenario.node[27].veinsmobility 	totalTime 	66.5
scalar IntersectionExampleScenario.node[27].veinsmobility 	stopTime 	155.75
scalar IntersectionExampleScenario.node[27].veinsmobility 	minSpeed 	0
scalar IntersectionExampleScenario.node[27].veinsmobility 	maxSpeed 	15.64999961853
scalar IntersectionExampleScenario.node[27].veinsmobility 	totalDistance 	549.28208531918
scalar IntersectionExampleScenario.node[27].veinsmobility 	totalCO2Emission 	156.08797351384
scalar IntersectionExampleScenario.node[24].appl 	VehicleRemoved 	0
scalar IntersectionExampleScenario.node[24].appl 	ArrivedAtDest 	1
scalar IntersectionExampleScenario.node[24].appl 	IntersectionEnterTime 	81.5
scalar IntersectionExampleScenario.node[24].appl 	IntersectionExitTime 	148.25103854758
scalar IntersectionExampleScenario.node[24].appl 	NumberOfCollisions 	0
scalar IntersectionExampleScenario.node[24].nic.phy80211p 	busyTime 	0
scalar IntersectionExampleScenario.node[24].nic.mac1609_4 	ReceivedUnicastPackets 	0
scalar IntersectionExampleScenario.node[24].nic.mac1609_4 	ReceivedBroadcasts 	0
scalar IntersectionExampleScenario.node[24].nic.mac1609_4 	SentPackets 	0
scalar IntersectionExampleScenario.node[24].nic.mac1609_4 	SNIRLostPackets 	0
scalar IntersectionExampleScenario.node[24].nic.mac1609_4 	RXTXLostPackets 	0
scalar IntersectionExampleScenario.node[24].nic.mac1609_4 	TotalLostPackets 	0
scalar IntersectionExampleScenario.node[24].nic.mac1609_4 	DroppedPacketsInMac 	0
scalar IntersectionExampleScenario.node[24].nic.mac1609_4 	TooLittleTime 	0
scalar IntersectionExampleScenario.node[24].nic.mac1609_4 	TimesIntoBackoff 	0
scalar IntersectionExampleScenario.node[24].nic.mac1609_4 	SlotsBackoff 	0
scalar IntersectionExampleScenario.node[24].nic.mac1609_4 	NumInternalContention 	0
scalar IntersectionExampleScenario.node[24].nic.mac1609_4 	totalBusyTime 	0
scalar IntersectionExampleScenario.node[24].veinsmobility 	startTime 	81.5
scalar IntersectionExampleScenario.node[24].veinsmobility 	totalTime 	82.25
scalar IntersectionExampleScenario.node[24].veinsmobility 	stopTime 	164
scalar IntersectionExampleScenario.node[24].veinsmobility 	minSpeed 	0
scalar IntersectionExampleScenario.node[24].veinsmobility 	maxSpeed 	16.27499961853
scalar IntersectionExampleScenario.node[24].veinsmobility 	totalDistance 	551.43734741211
scalar IntersectionExampleScenario.node[24].veinsmobility 	totalCO2Emission 	177.92814344961
scalar IntersectionExampleScenario.node[25].appl 	VehicleRemoved 	0
scalar IntersectionExampleScenario.node[25].appl 	ArrivedAtDest 	1
scalar IntersectionExampleScenario.node[25].appl 	IntersectionEnterTime 	83.75
scalar IntersectionExampleScenario.node[25].appl 	IntersectionExitTime 	150.3730050805
scalar IntersectionExampleScenario.node[25].appl 	NumberOfCollisions 	0
scalar IntersectionExampleScenario.node[25].nic.phy80211p 	busyTime 	0
scalar IntersectionExampleScenario.node[25].nic.mac1609_4 	ReceivedUnicastPackets 	0
scalar IntersectionExampleScenario.node[25].nic.mac1609_4 	ReceivedBroadcasts 	0
scalar IntersectionExampleScenario.node[25].nic.mac1609_4 	SentPackets 	0
scalar IntersectionExampleScenario.node[25].nic.mac1609_4 	SNIRLostPackets 	0
scalar IntersectionExampleScenario.node[25].nic.mac1609_4 	RXTXLostPackets 	0
scalar IntersectionExampleScenario.node[25].nic.mac1609_4 	TotalLostPackets 	0
scalar IntersectionExampleScenario.node[25].nic.mac1609_4 	DroppedPacketsInMac 	0
scalar IntersectionExampleScenario.node[25].nic.mac1609_4 	TooLittleTime 	0
scalar IntersectionExampleScenario.node[25].nic.mac1609_4 	TimesIntoBackoff 	0
scalar IntersectionExampleScenario.node[25].nic.mac1609_4 	SlotsBackoff 	0
scalar IntersectionExampleScenario.node[25].nic.mac1609_4 	NumInternalContention 	0
scalar IntersectionExampleScenario.node[25].nic.mac1609_4 	totalBusyTime 	0
scalar IntersectionExampleScenario.node[25].veinsmobility 	startTime 	83.75
scalar IntersectionExampleScenario.node[25].veinsmobility 	totalTime 	81.5
scalar IntersectionExampleScenario.node[25].veinsmobility 	stopTime 	165.5
scalar IntersectionExampleScenario.node[25].veinsmobility 	minSpeed 	0
scalar IntersectionExampleScenario.node[25].veinsmobility 	maxSpeed 	16.345365524292
scalar IntersectionExampleScenario.node[25].veinsmobility 	totalDistance 	569.41098022461
scalar IntersectionExampleScenario.node[25].veinsmobility 	totalCO2Emission 	183.99443660292
scalar IntersectionExampleScenario.node[26].appl 	VehicleRemoved 	0
scalar IntersectionExampleScenario.node[26].appl 	ArrivedAtDest 	1
scalar IntersectionExampleScenario.node[26].appl 	IntersectionEnterTime 	85.5
scalar IntersectionExampleScenario.node[26].appl 	IntersectionExitTime 	152.27951679583
scalar IntersectionExampleScenario.node[26].appl 	NumberOfCollisions 	0
scalar IntersectionExampleScenario.node[26].nic.phy80211p 	busyTime 	0
scalar IntersectionExampleScenario.node[26].nic.mac1609_4 	ReceivedUnicastPackets 	0
scalar IntersectionExampleScenario.node[26].nic.mac1609_4 	ReceivedBroadcasts 	0
scalar IntersectionExampleScenario.node[26].nic.mac1609_4 	SentPackets 	0
scalar IntersectionExampleScenario.node[26].nic.mac1609_4 	SNIRLostPackets 	0
scalar IntersectionExampleScenario.node[26].nic.mac1609_4 	RXTXLostPackets 	0
scalar IntersectionExampleScenario.node[26].nic.mac1609_4 	TotalLostPackets 	0
scalar IntersectionExampleScenario.node[26].nic.mac1609_4 	DroppedPacketsInMac 	0
scalar IntersectionExampleScenario.node[26].nic.mac1609_4 	TooLittleTime 	0
scalar IntersectionExampleScenario.node[26].nic.mac1609_4 	TimesIntoBackoff 	0
scalar IntersectionExampleScenario.node[26].nic.mac1609_4 	SlotsBackoff 	0
scalar IntersectionExampleScenario.node[26].nic.mac1609_4 	NumInternalContention 	0
scalar IntersectionExampleScenario.node[26].nic.mac1609_4 	totalBusyTime 	0
scalar IntersectionExampleScenario.node[26].veinsmobility 	startTime 	85.5
scalar IntersectionExampleScenario.node[26].veinsmobility 	totalTime 	82.5
scalar IntersectionExampleScenario.node[26].veinsmobility 	stopTime 	168.25
scalar IntersectionExampleScenario.node[26].veinsmobility 	minSpeed 	0
scalar IntersectionExampleScenario.node[26].veinsmobility 	maxSpeed 	16.125
scalar IntersectionExampleScenario.node[26].veinsmobility 	totalDistance 	582.51191711426
scalar IntersectionExampleScenario.node[26].veinsmobility 	totalCO2Emission 	179.62969478376
scalar IntersectionExampleScenario.node[32].appl 	VehicleRemoved 	0
scalar IntersectionExampleScenario.node[32].appl 	ArrivedAtDest 	1
scalar IntersectionExampleScenario.node[32].appl 	IntersectionEnterTime 	98.25
scalar IntersectionExampleScenario.node[32].appl 	IntersectionExitTime 	154.52456782572
scalar IntersectionExampleScenario.node[32].appl 	NumberOfCollisions 	0
scalar IntersectionExampleScenario.node[32].nic.phy80211p 	busyTime 	0
scalar IntersectionExampleScenario.node[32].nic.mac1609_4 	ReceivedUnicastPackets 	0
scalar IntersectionExampleScenario.node[32].nic.mac1609_4 	ReceivedBroadcasts 	0
scalar IntersectionExampleScenario.node[32].nic.mac1609_4 	SentPackets 	0
scalar IntersectionExampleScenario.node[32].nic.mac1609_4 	SNIRLostPackets 	0
scalar IntersectionExampleScenario.node[32].nic.mac1609_4 	RXTXLostPackets 	0
scalar IntersectionExampleScenario.node[32].nic.mac1609_4 	TotalLostPackets 	0
scalar IntersectionExampleScenario.node[32].nic.mac1609_4 	DroppedPacketsInMac 	0
scalar IntersectionExampleScenario.node[32].nic.mac1609_4 	TooLittleTime 	0
scalar IntersectionExampleScenario.node[32].nic.mac1609_4 	TimesIntoBackoff 	0
scalar IntersectionExampleScenario.node[32].nic.mac1609_4 	SlotsBackoff 	0
scalar IntersectionExampleScenario.node[32].nic.mac1609_4 	NumInternalContention 	0
scalar IntersectionExampleScenario.node[32].nic.mac1609_4 	totalBusyTime 	0
scalar IntersectionExampleScenario.node[32].veinsmobility 	startTime 	98.25
scalar IntersectionExampleScenario.node[32].veinsmobility 	totalTime 	72
scalar IntersectionExampleScenario.node[32].veinsmobility 	stopTime 	170.5
scalar IntersectionExampleScenario.node[32].veinsmobility 	minSpeed 	0
scalar IntersectionExampleScenario.node[32].veinsmobility 	maxSpeed 	16.125
scalar IntersectionExampleScenario.node[32].veinsmobility 	totalDistance 	554.09060668945
scalar IntersectionExampleScenario.node[32].veinsmobility 	totalCO2Emission 	165.2113745164
scalar IntersectionExampleScenario.node[33].appl 	VehicleRemoved 	0
scalar IntersectionExampleScenario.node[33].appl 	ArrivedAtDest 	1
scalar IntersectionExampleScenario.node[33].appl 	IntersectionEnterTime 	100.75
scalar IntersectionExampleScenario.node[33].appl 	IntersectionExitTime 	157.32305459899
scalar IntersectionExampleScenario.node[33].appl 	NumberOfCollisions 	0
scalar IntersectionExampleScenario.node[33].nic.phy80211p 	busyTime 	0
scalar IntersectionExampleScenario.node[33].nic.mac1609_4 	ReceivedUnicastPackets 	0
scalar IntersectionExampleScenario.node[33].nic.mac1609_4 	ReceivedBroadcasts 	0
scalar IntersectionExampleScenario.node[33].nic.mac1609_4 	SentPackets 	0
scalar IntersectionExampleScenario.node[33].nic.mac1609_4 	SNIRLostPackets 	0
scalar IntersectionExampleScenario.node[33].nic.mac1609_4 	RXTXLostPackets 	0
scalar IntersectionExampleScenario.node[33].nic.mac1609_4 	TotalLostPackets 	0
scalar IntersectionExampleScenario.node[33].nic.mac1609_4 	DroppedPacketsInMac 	0
scalar IntersectionExampleScenario.node[33].nic.mac1609_4 	TooLittleTime 	0
scalar IntersectionExampleScenario.node[33].nic.mac1609_4 	TimesIntoBackoff 	0
scalar IntersectionExampleScenario.node[33].nic.mac1609_4 	SlotsBackoff 	0
scalar IntersectionExampleScenario.node[33].nic.mac1609_4 	NumInternalContention 	0
scalar IntersectionExampleScenario.node[33].nic.mac1609_4 	totalBusyTime 	0
scalar IntersectionExampleScenario.node[33].veinsmobility 	startTime 	100.75
scalar IntersectionExampleScenario.node[33].veinsmobility 	totalTime 	73
scalar IntersectionExampleScenario.node[33].veinsmobility 	stopTime 	174
scalar IntersectionExampleScenario.node[33].veinsmobility 	minSpeed 	0
scalar IntersectionExampleScenario.node[33].veinsmobility 	maxSpeed 	15.875
scalar IntersectionExampleScenario.node[33].veinsmobility 	totalDistance 	561.4591584801
scalar IntersectionExampleScenario.node[33].veinsmobility 	totalCO2Emission 	174.31723677118
scalar IntersectionExampleScenario.node[40].appl 	VehicleRemoved 	0
scalar IntersectionExampleScenario.node[40].appl 	ArrivedAtDest 	1
scalar IntersectionExampleScenario.node[40].appl 	IntersectionEnterTime 	133
scalar IntersectionExampleScenario.node[40].appl 	IntersectionExitTime 	159.30952798936
scalar IntersectionExampleScenario.node[40].appl 	NumberOfCollisions 	0
scalar IntersectionExampleScenario.node[40].nic.phy80211p 	busyTime 	0
scalar IntersectionExampleScenario.node[40].nic.mac1609_4 	ReceivedUnicastPackets 	0
scalar IntersectionExampleScenario.node[40].nic.mac1609_4 	ReceivedBroadcasts 	0
scalar IntersectionExampleScenario.node[40].nic.mac1609_4 	SentPackets 	0
scalar IntersectionExampleScenario.node[40].nic.mac1609_4 	SNIRLostPackets 	0
scalar IntersectionExampleScenario.node[40].nic.mac1609_4 	RXTXLostPackets 	0
scalar IntersectionExampleScenario.node[40].nic.mac1609_4 	TotalLostPackets 	0
scalar IntersectionExampleScenario.node[40].nic.mac1609_4 	DroppedPacketsInMac 	0
scalar IntersectionExampleScenario.node[40].nic.mac1609_4 	TooLittleTime 	0
scalar IntersectionExampleScenario.node[40].nic.mac1609_4 	TimesIntoBackoff 	0
scalar IntersectionExampleScenario.node[40].nic.mac1609_4 	SlotsBackoff 	0
scalar IntersectionExampleScenario.node[40].nic.mac1609_4 	NumInternalContention 	0
scalar IntersectionExampleScenario.node[40].nic.mac1609_4 	totalBusyTime 	0
scalar IntersectionExampleScenario.node[40].veinsmobility 	startTime 	133
scalar IntersectionExampleScenario.node[40].veinsmobility 	totalTime 	42.25
scalar IntersectionExampleScenario.node[40].veinsmobility 	stopTime 	175.5
scalar IntersectionExampleScenario.node[40].veinsmobility 	minSpeed 	5.6500000953674
scalar IntersectionExampleScenario.node[40].veinsmobility 	maxSpeed 	16
scalar IntersectionExampleScenario.node[40].veinsmobility 	totalDistance 	550.30357810698
scalar IntersectionExampleScenario.node[40].veinsmobility 	totalCO2Emission 	142.30683459408
scalar IntersectionExampleScenario.node[42].appl 	VehicleRemoved 	0
scalar IntersectionExampleScenario.node[42].appl 	ArrivedAtDest 	1
scalar IntersectionExampleScenario.node[42].appl 	IntersectionEnterTime 	142.5
scalar IntersectionExampleScenario.node[42].appl 	IntersectionExitTime 	166.28767795151
scalar IntersectionExampleScenario.node[42].appl 	NumberOfCollisions 	0
scalar IntersectionExampleScenario.node[42].nic.phy80211p 	busyTime 	0
scalar IntersectionExampleScenario.node[42].nic.mac1609_4 	ReceivedUnicastPackets 	0
scalar IntersectionExampleScenario.node[42].nic.mac1609_4 	ReceivedBroadcasts 	0
scalar IntersectionExampleScenario.node[42].nic.mac1609_4 	SentPackets 	0
scalar IntersectionExampleScenario.node[42].nic.mac1609_4 	SNIRLostPackets 	0
scalar IntersectionExampleScenario.node[42].nic.mac1609_4 	RXTXLostPackets 	0
scalar IntersectionExampleScenario.node[42].nic.mac1609_4 	TotalLostPackets 	0
scalar IntersectionExampleScenario.node[42].nic.mac1609_4 	DroppedPacketsInMac 	0
scalar IntersectionExampleScenario.node[42].nic.mac1609_4 	TooLittleTime 	0
scalar IntersectionExampleScenario.node[42].nic.mac1609_4 	TimesIntoBackoff 	0
scalar IntersectionExampleScenario.node[42].nic.mac1609_4 	SlotsBackoff 	0
scalar IntersectionExampleScenario.node[42].nic.mac1609_4 	NumInternalContention 	0
scalar IntersectionExampleScenario.node[42].nic.mac1609_4 	totalBusyTime 	0
scalar IntersectionExampleScenario.node[42].veinsmobility 	startTime 	142.5
scalar IntersectionExampleScenario.node[42].veinsmobility 	totalTime 	40.75
scalar IntersectionExampleScenario.node[42].veinsmobility 	stopTime 	183.5
scalar IntersectionExampleScenario.node[42].veinsmobility 	minSpeed 	5.6500000953674
scalar IntersectionExampleScenario.node[42].veinsmobility 	maxSpeed 	15.25
scalar IntersectionExampleScenario.node[42].veinsmobility 	totalDistance 	544.57398881257
scalar IntersectionExampleScenario.node[42].veinsmobility 	totalCO2Emission 	124.39965242606
scalar IntersectionExampleScenario.node[44].appl 	VehicleRemoved 	0
scalar IntersectionExampleScenario.node[44].appl 	ArrivedAtDest 	1
scalar IntersectionExampleScenario.node[44].appl 	IntersectionEnterTime 	146.5
scalar IntersectionExampleScenario.node[44].appl 	IntersectionExitTime 	170.2582625896
scalar IntersectionExampleScenario.node[44].appl 	NumberOfCollisions 	0
scalar IntersectionExampleScenario.node[44].nic.phy80211p 	busyTime 	0
scalar IntersectionExampleScenario.node[44].nic.mac1609_4 	ReceivedUnicastPackets 	0
scalar IntersectionExampleScenario.node[44].nic.mac1609_4 	ReceivedBroadcasts 	0
scalar IntersectionExampleScenario.node[44].nic.mac1609_4 	SentPackets 	0
scalar IntersectionExampleScenario.node[44].nic.mac1609_4 	SNIRLostPackets 	0
scalar IntersectionExampleScenario.node[44].nic.mac1609_4 	RXTXLostPackets 	0
scalar IntersectionExampleScenario.node[44].nic.mac1609_4 	TotalLostPackets 	0
scalar IntersectionExampleScenario.node[44].nic.mac1609_4 	DroppedPacketsInMac 	0
scalar IntersectionExampleScenario.node[44].nic.mac1609_4 	TooLittleTime 	0
scalar IntersectionExampleScenario.node[44].nic.mac1609_4 	TimesIntoBackoff 	0
scalar IntersectionExampleScenario.node[44].nic.mac1609_4 	SlotsBackoff 	0
scalar IntersectionExampleScenario.node[44].nic.mac1609_4 	NumInternalContention 	0
scalar IntersectionExampleScenario.node[44].nic.mac1609_4 	totalBusyTime 	0
scalar IntersectionExampleScenario.node[44].veinsmobility 	startTime 	146.5
scalar IntersectionExampleScenario.node[44].veinsmobility 	totalTime 	40.25
scalar IntersectionExampleScenario.node[44].veinsmobility 	stopTime 	187
scalar IntersectionExampleScenario.node[44].veinsmobility 	minSpeed 	5.6500000953674
scalar IntersectionExampleScenario.node[44].veinsmobility 	maxSpeed 	15.375
scalar IntersectionExampleScenario.node[44].veinsmobility 	totalDistance 	555.98889153156
scalar IntersectionExampleScenario.node[44].veinsmobility 	totalCO2Emission 	122.35708115137
scalar IntersectionExampleScenario.node[34].appl 	VehicleRemoved 	0
scalar IntersectionExampleScenario.node[34].appl 	ArrivedAtDest 	1
scalar IntersectionExampleScenario.node[34].appl 	IntersectionEnterTime 	121.25
scalar IntersectionExampleScenario.node[34].appl 	IntersectionExitTime 	179.51581621799
scalar IntersectionExampleScenario.node[34].appl 	NumberOfCollisions 	0
scalar IntersectionExampleScenario.node[34].nic.phy80211p 	busyTime 	0
scalar IntersectionExampleScenario.node[34].nic.mac1609_4 	ReceivedUnicastPackets 	0
scalar IntersectionExampleScenario.node[34].nic.mac1609_4 	ReceivedBroadcasts 	0
scalar IntersectionExampleScenario.node[34].nic.mac1609_4 	SentPackets 	0
scalar IntersectionExampleScenario.node[34].nic.mac1609_4 	SNIRLostPackets 	0
scalar IntersectionExampleScenario.node[34].nic.mac1609_4 	RXTXLostPackets 	0
scalar IntersectionExampleScenario.node[34].nic.mac1609_4 	TotalLostPackets 	0
scalar IntersectionExampleScenario.node[34].nic.mac1609_4 	DroppedPacketsInMac 	0
scalar IntersectionExampleScenario.node[34].nic.mac1609_4 	TooLittleTime 	0
scalar IntersectionExampleScenario.node[34].nic.mac1609_4 	TimesIntoBackoff 	0
scalar IntersectionExampleScenario.node[34].nic.mac1609_4 	SlotsBackoff 	0
scalar IntersectionExampleScenario.node[34].nic.mac1609_4 	NumInternalContention 	0
scalar IntersectionExampleScenario.node[34].nic.mac1609_4 	totalBusyTime 	0
scalar IntersectionExampleScenario.node[34].veinsmobility 	startTime 	121.25
scalar IntersectionExampleScenario.node[34].veinsmobility 	totalTime 	75
scalar IntersectionExampleScenario.node[34].veinsmobility 	stopTime 	196.5
scalar IntersectionExampleScenario.node[34].veinsmobility 	minSpeed 	0
scalar IntersectionExampleScenario.node[34].veinsmobility 	maxSpeed 	15.64999961853
scalar IntersectionExampleScenario.node[34].veinsmobility 	totalDistance 	544.42739774138
scalar IntersectionExampleScenario.node[34].veinsmobility 	totalCO2Emission 	166.39749088446
scalar IntersectionExampleScenario.node[35].appl 	VehicleRemoved 	0
scalar IntersectionExampleScenario.node[35].appl 	ArrivedAtDest 	1
scalar IntersectionExampleScenario.node[35].appl 	IntersectionEnterTime 	121.5
scalar IntersectionExampleScenario.node[35].appl 	IntersectionExitTime 	181.30893635395
scalar IntersectionExampleScenario.node[35].appl 	NumberOfCollisions 	0
scalar IntersectionExampleScenario.node[35].nic.phy80211p 	busyTime 	0
scalar IntersectionExampleScenario.node[35].nic.mac1609_4 	ReceivedUnicastPackets 	0
scalar IntersectionExampleScenario.node[35].nic.mac1609_4 	ReceivedBroadcasts 	0
scalar IntersectionExampleScenario.node[35].nic.mac1609_4 	SentPackets 	0
scalar IntersectionExampleScenario.node[35].nic.mac1609_4 	SNIRLostPackets 	0
scalar IntersectionExampleScenario.node[35].nic.mac1609_4 	RXTXLostPackets 	0
scalar IntersectionExampleScenario.node[35].nic.mac1609_4 	TotalLostPackets 	0
scalar IntersectionExampleScenario.node[35].nic.mac1609_4 	DroppedPacketsInMac 	0
scalar IntersectionExampleScenario.node[35].nic.mac1609_4 	TooLittleTime 	0
scalar IntersectionExampleScenario.node[35].nic.mac1609_4 	TimesIntoBackoff 	0
scalar IntersectionExampleScenario.node[35].nic.mac1609_4 	SlotsBackoff 	0
scalar IntersectionExampleScenario.node[35].nic.mac1609_4 	NumInternalContention 	0
scalar IntersectionExampleScenario.node[35].nic.mac1609_4 	totalBusyTime 	0
scalar IntersectionExampleScenario.node[35].veinsmobility 	startTime 	121.5
scalar IntersectionExampleScenario.node[35].veinsmobility 	totalTime 	75.5
scalar IntersectionExampleScenario.node[35].veinsmobility 	stopTime 	197.25
scalar IntersectionExampleScenario.node[35].veinsmobility 	minSpeed 	0
scalar IntersectionExampleScenario.node[35].veinsmobility 	maxSpeed 	16.125
scalar IntersectionExampleScenario.node[35].veinsmobility 	totalDistance 	577.67214202881
scalar IntersectionExampleScenario.node[35].veinsmobility 	totalCO2Emission 	171.85725849338
scalar IntersectionExampleScenario.node[36].appl 	VehicleRemoved 	0
scalar IntersectionExampleScenario.node[36].appl 	ArrivedAtDest 	1
scalar IntersectionExampleScenario.node[36].appl 	IntersectionEnterTime 	127.25
scalar IntersectionExampleScenario.node[36].appl 	IntersectionExitTime 	183.51084590744
scalar IntersectionExampleScenario.node[36].appl 	NumberOfCollisions 	0
scalar IntersectionExampleScenario.node[36].nic.phy80211p 	busyTime 	0
scalar IntersectionExampleScenario.node[36].nic.mac1609_4 	ReceivedUnicastPackets 	0
scalar IntersectionExampleScenario.node[36].nic.mac1609_4 	ReceivedBroadcasts 	0
scalar IntersectionExampleScenario.node[36].nic.mac1609_4 	SentPackets 	0
scalar IntersectionExampleScenario.node[36].nic.mac1609_4 	SNIRLostPackets 	0
scalar IntersectionExampleScenario.node[36].nic.mac1609_4 	RXTXLostPackets 	0
scalar IntersectionExampleScenario.node[36].nic.mac1609_4 	TotalLostPackets 	0
scalar IntersectionExampleScenario.node[36].nic.mac1609_4 	DroppedPacketsInMac 	0
scalar IntersectionExampleScenario.node[36].nic.mac1609_4 	TooLittleTime 	0
scalar IntersectionExampleScenario.node[36].nic.mac1609_4 	TimesIntoBackoff 	0
[...]
scalar IntersectionExampleScenario.node[457].veinsmobility 	totalCO2Emission 	66.925215305862
scalar IntersectionExampleScenario.node[458].appl 	VehicleRemoved 	0
scalar IntersectionExampleScenario.node[458].appl 	ArrivedAtDest 	0
scalar IntersectionExampleScenario.node[458].appl 	IntersectionEnterTime 	1776.5
scalar IntersectionExampleScenario.node[458].appl 	IntersectionExitTime 	-1
scalar IntersectionExampleScenario.node[458].appl 	NumberOfCollisions 	0
scalar IntersectionExampleScenario.node[458].nic.phy80211p 	busyTime 	0
scalar IntersectionExampleScenario.node[458].nic.mac1609_4 	ReceivedUnicastPackets 	0
scalar IntersectionExampleScenario.node[458].nic.mac1609_4 	ReceivedBroadcasts 	0
scalar IntersectionExampleScenario.node[458].nic.mac1609_4 	SentPackets 	0
scalar IntersectionExampleScenario.node[458].nic.mac1609_4 	SNIRLostPackets 	0
scalar IntersectionExampleScenario.node[458].nic.mac1609_4 	RXTXLostPackets 	0
scalar IntersectionExampleScenario.node[458].nic.mac1609_4 	TotalLostPackets 	0
scalar IntersectionExampleScenario.node[458].nic.mac1609_4 	DroppedPacketsInMac 	0
scalar IntersectionExampleScenario.node[458].nic.mac1609_4 	TooLittleTime 	0
scalar IntersectionExampleScenario.node[458].nic.mac1609_4 	TimesIntoBackoff 	0
scalar IntersectionExampleScenario.node[458].nic.mac1609_4 	SlotsBackoff 	0
scalar IntersectionExampleScenario.node[458].nic.mac1609_4 	NumInternalContention 	0
scalar IntersectionExampleScenario.node[458].nic.mac1609_4 	totalBusyTime 	0
scalar IntersectionExampleScenario.node[458].veinsmobility 	startTime 	1776.5
scalar IntersectionExampleScenario.node[458].veinsmobility 	totalTime 	23.5
scalar IntersectionExampleScenario.node[458].veinsmobility 	stopTime 	1800
scalar IntersectionExampleScenario.node[458].veinsmobility 	minSpeed 	3.4206035137177
scalar IntersectionExampleScenario.node[458].veinsmobility 	maxSpeed 	15.693223953247
scalar IntersectionExampleScenario.node[458].veinsmobility 	totalDistance 	273.05307006836
scalar IntersectionExampleScenario.node[458].veinsmobility 	totalCO2Emission 	68.507230771799
scalar IntersectionExampleScenario.node[459].appl 	VehicleRemoved 	0
scalar IntersectionExampleScenario.node[459].appl 	ArrivedAtDest 	0
scalar IntersectionExampleScenario.node[459].appl 	IntersectionEnterTime 	1776.75
scalar IntersectionExampleScenario.node[459].appl 	IntersectionExitTime 	-1
scalar IntersectionExampleScenario.node[459].appl 	NumberOfCollisions 	0
scalar IntersectionExampleScenario.node[459].nic.phy80211p 	busyTime 	0
scalar IntersectionExampleScenario.node[459].nic.mac1609_4 	ReceivedUnicastPackets 	0
scalar IntersectionExampleScenario.node[459].nic.mac1609_4 	ReceivedBroadcasts 	0
scalar IntersectionExampleScenario.node[459].nic.mac1609_4 	SentPackets 	0
scalar IntersectionExampleScenario.node[459].nic.mac1609_4 	SNIRLostPackets 	0
scalar IntersectionExampleScenario.node[459].nic.mac1609_4 	RXTXLostPackets 	0
scalar IntersectionExampleScenario.node[459].nic.mac1609_4 	TotalLostPackets 	0
scalar IntersectionExampleScenario.node[459].nic.mac1609_4 	DroppedPacketsInMac 	0
scalar IntersectionExampleScenario.node[459].nic.mac1609_4 	TooLittleTime 	0
scalar IntersectionExampleScenario.node[459].nic.mac1609_4 	TimesIntoBackoff 	0
scalar IntersectionExampleScenario.node[459].nic.mac1609_4 	SlotsBackoff 	0
scalar IntersectionExampleScenario.node[459].nic.mac1609_4 	NumInternalContention 	0
scalar IntersectionExampleScenario.node[459].nic.mac1609_4 	totalBusyTime 	0
scalar IntersectionExampleScenario.node[459].veinsmobility 	startTime 	1776.75
scalar IntersectionExampleScenario.node[459].veinsmobility 	totalTime 	23.25
scalar IntersectionExampleScenario.node[459].veinsmobility 	stopTime 	1800
scalar IntersectionExampleScenario.node[459].veinsmobility 	minSpeed 	5.6192007064819
scalar IntersectionExampleScenario.node[459].veinsmobility 	maxSpeed 	14.57483291626
scalar IntersectionExampleScenario.node[459].veinsmobility 	totalDistance 	296.14531707764
scalar IntersectionExampleScenario.node[459].veinsmobility 	totalCO2Emission 	64.096374953867
scalar IntersectionExampleScenario.node[460].appl 	VehicleRemoved 	0
scalar IntersectionExampleScenario.node[460].appl 	ArrivedAtDest 	0
scalar IntersectionExampleScenario.node[460].appl 	IntersectionEnterTime 	1783
scalar IntersectionExampleScenario.node[460].appl 	IntersectionExitTime 	-1
scalar IntersectionExampleScenario.node[460].appl 	NumberOfCollisions 	0
scalar IntersectionExampleScenario.node[460].nic.phy80211p 	busyTime 	0
scalar IntersectionExampleScenario.node[460].nic.mac1609_4 	ReceivedUnicastPackets 	0
scalar IntersectionExampleScenario.node[460].nic.mac1609_4 	ReceivedBroadcasts 	0
scalar IntersectionExampleScenario.node[460].nic.mac1609_4 	SentPackets 	0
scalar IntersectionExampleScenario.node[460].nic.mac1609_4 	SNIRLostPackets 	0
scalar IntersectionExampleScenario.node[460].nic.mac1609_4 	RXTXLostPackets 	0
scalar IntersectionExampleScenario.node[460].nic.mac1609_4 	TotalLostPackets 	0
scalar IntersectionExampleScenario.node[460].nic.mac1609_4 	DroppedPacketsInMac 	0
scalar IntersectionExampleScenario.node[460].nic.mac1609_4 	TooLittleTime 	0
scalar IntersectionExampleScenario.node[460].nic.mac1609_4 	TimesIntoBackoff 	0
scalar IntersectionExampleScenario.node[460].nic.mac1609_4 	SlotsBackoff 	0
scalar IntersectionExampleScenario.node[460].nic.mac1609_4 	NumInternalContention 	0
scalar IntersectionExampleScenario.node[460].nic.mac1609_4 	totalBusyTime 	0
scalar IntersectionExampleScenario.node[460].veinsmobility 	startTime 	1783
scalar IntersectionExampleScenario.node[460].veinsmobility 	totalTime 	17
scalar IntersectionExampleScenario.node[460].veinsmobility 	stopTime 	1800
scalar IntersectionExampleScenario.node[460].veinsmobility 	minSpeed 	5.6500000953674
scalar IntersectionExampleScenario.node[460].veinsmobility 	maxSpeed 	15.64999961853
scalar IntersectionExampleScenario.node[460].veinsmobility 	totalDistance 	227.37033081055
scalar IntersectionExampleScenario.node[460].veinsmobility 	totalCO2Emission 	56.090233097384
scalar IntersectionExampleScenario.node[461].appl 	VehicleRemoved 	0
scalar IntersectionExampleScenario.node[461].appl 	ArrivedAtDest 	0
scalar IntersectionExampleScenario.node[461].appl 	IntersectionEnterTime 	1785.25
scalar IntersectionExampleScenario.node[461].appl 	IntersectionExitTime 	-1
scalar IntersectionExampleScenario.node[461].appl 	NumberOfCollisions 	0
scalar IntersectionExampleScenario.node[461].nic.phy80211p 	busyTime 	0
scalar IntersectionExampleScenario.node[461].nic.mac1609_4 	ReceivedUnicastPackets 	0
scalar IntersectionExampleScenario.node[461].nic.mac1609_4 	ReceivedBroadcasts 	0
scalar IntersectionExampleScenario.node[461].nic.mac1609_4 	SentPackets 	0
scalar IntersectionExampleScenario.node[461].nic.mac1609_4 	SNIRLostPackets 	0
scalar IntersectionExampleScenario.node[461].nic.mac1609_4 	RXTXLostPackets 	0
scalar IntersectionExampleScenario.node[461].nic.mac1609_4 	TotalLostPackets 	0
scalar IntersectionExampleScenario.node[461].nic.mac1609_4 	DroppedPacketsInMac 	0
scalar IntersectionExampleScenario.node[461].nic.mac1609_4 	TooLittleTime 	0
scalar IntersectionExampleScenario.node[461].nic.mac1609_4 	TimesIntoBackoff 	0
scalar IntersectionExampleScenario.node[461].nic.mac1609_4 	SlotsBackoff 	0
scalar IntersectionExampleScenario.node[461].nic.mac1609_4 	NumInternalContention 	0
scalar IntersectionExampleScenario.node[461].nic.mac1609_4 	totalBusyTime 	0
scalar IntersectionExampleScenario.node[461].veinsmobility 	startTime 	1785.25
scalar IntersectionExampleScenario.node[461].veinsmobility 	totalTime 	14.75
scalar IntersectionExampleScenario.node[461].veinsmobility 	stopTime 	1800
scalar IntersectionExampleScenario.node[461].veinsmobility 	minSpeed 	5.6500000953674
scalar IntersectionExampleScenario.node[461].veinsmobility 	maxSpeed 	15.935581207275
scalar IntersectionExampleScenario.node[461].veinsmobility 	totalDistance 	204.67584991455
scalar IntersectionExampleScenario.node[461].veinsmobility 	totalCO2Emission 	54.908019422617
scalar IntersectionExampleScenario.node[462].appl 	VehicleRemoved 	0
scalar IntersectionExampleScenario.node[462].appl 	ArrivedAtDest 	0
scalar IntersectionExampleScenario.node[462].appl 	IntersectionEnterTime 	1787.5
scalar IntersectionExampleScenario.node[462].appl 	IntersectionExitTime 	-1
scalar IntersectionExampleScenario.node[462].appl 	NumberOfCollisions 	0
scalar IntersectionExampleScenario.node[462].nic.phy80211p 	busyTime 	0
scalar IntersectionExampleScenario.node[462].nic.mac1609_4 	ReceivedUnicastPackets 	0
scalar IntersectionExampleScenario.node[462].nic.mac1609_4 	ReceivedBroadcasts 	0
scalar IntersectionExampleScenario.node[462].nic.mac1609_4 	SentPackets 	0
scalar IntersectionExampleScenario.node[462].nic.mac1609_4 	SNIRLostPackets 	0
scalar IntersectionExampleScenario.node[462].nic.mac1609_4 	RXTXLostPackets 	0
scalar IntersectionExampleScenario.node[462].nic.mac1609_4 	TotalLostPackets 	0
scalar IntersectionExampleScenario.node[462].nic.mac1609_4 	DroppedPacketsInMac 	0
scalar IntersectionExampleScenario.node[462].nic.mac1609_4 	TooLittleTime 	0
scalar IntersectionExampleScenario.node[462].nic.mac1609_4 	TimesIntoBackoff 	0
scalar IntersectionExampleScenario.node[462].nic.mac1609_4 	SlotsBackoff 	0
scalar IntersectionExampleScenario.node[462].nic.mac1609_4 	NumInternalContention 	0
scalar IntersectionExampleScenario.node[462].nic.mac1609_4 	totalBusyTime 	0
scalar IntersectionExampleScenario.node[462].veinsmobility 	startTime 	1787.5
scalar IntersectionExampleScenario.node[462].veinsmobility 	totalTime 	12.5
scalar IntersectionExampleScenario.node[462].veinsmobility 	stopTime 	1800
scalar IntersectionExampleScenario.node[462].veinsmobility 	minSpeed 	5.6500000953674
scalar IntersectionExampleScenario.node[462].veinsmobility 	maxSpeed 	14.39999961853
scalar IntersectionExampleScenario.node[462].veinsmobility 	totalDistance 	162.31549835205
scalar IntersectionExampleScenario.node[462].veinsmobility 	totalCO2Emission 	45.996861070646
scalar IntersectionExampleScenario.node[463].appl 	VehicleRemoved 	0
scalar IntersectionExampleScenario.node[463].appl 	ArrivedAtDest 	0
scalar IntersectionExampleScenario.node[463].appl 	IntersectionEnterTime 	1790.25
scalar IntersectionExampleScenario.node[463].appl 	IntersectionExitTime 	-1
scalar IntersectionExampleScenario.node[463].appl 	NumberOfCollisions 	0
scalar IntersectionExampleScenario.node[463].nic.phy80211p 	busyTime 	0
scalar IntersectionExampleScenario.node[463].nic.mac1609_4 	ReceivedUnicastPackets 	0
scalar IntersectionExampleScenario.node[463].nic.mac1609_4 	ReceivedBroadcasts 	0
scalar IntersectionExampleScenario.node[463].nic.mac1609_4 	SentPackets 	0
scalar IntersectionExampleScenario.node[463].nic.mac1609_4 	SNIRLostPackets 	0
scalar IntersectionExampleScenario.node[463].nic.mac1609_4 	RXTXLostPackets 	0
scalar IntersectionExampleScenario.node[463].nic.mac1609_4 	TotalLostPackets 	0
scalar IntersectionExampleScenario.node[463].nic.mac1609_4 	DroppedPacketsInMac 	0
scalar IntersectionExampleScenario.node[463].nic.mac1609_4 	TooLittleTime 	0
scalar IntersectionExampleScenario.node[463].nic.mac1609_4 	TimesIntoBackoff 	0
scalar IntersectionExampleScenario.node[463].nic.mac1609_4 	SlotsBackoff 	0
scalar IntersectionExampleScenario.node[463].nic.mac1609_4 	NumInternalContention 	0
scalar IntersectionExampleScenario.node[463].nic.mac1609_4 	totalBusyTime 	0
scalar IntersectionExampleScenario.node[463].veinsmobility 	startTime 	1790.25
scalar IntersectionExampleScenario.node[463].veinsmobility 	totalTime 	9.75
scalar IntersectionExampleScenario.node[463].veinsmobility 	stopTime 	1800
scalar IntersectionExampleScenario.node[463].veinsmobility 	minSpeed 	5.6500000953674
scalar IntersectionExampleScenario.node[463].veinsmobility 	maxSpeed 	15.64999961853
scalar IntersectionExampleScenario.node[463].veinsmobility 	totalDistance 	129.84899902344
scalar IntersectionExampleScenario.node[463].veinsmobility 	totalCO2Emission 	45.498714120035
scalar IntersectionExampleScenario.node[464].appl 	VehicleRemoved 	0
scalar IntersectionExampleScenario.node[464].appl 	ArrivedAtDest 	0
scalar IntersectionExampleScenario.node[464].appl 	IntersectionEnterTime 	1792.25
scalar IntersectionExampleScenario.node[464].appl 	IntersectionExitTime 	-1
scalar IntersectionExampleScenario.node[464].appl 	NumberOfCollisions 	0
scalar IntersectionExampleScenario.node[464].nic.phy80211p 	busyTime 	0
scalar IntersectionExampleScenario.node[464].nic.mac1609_4 	ReceivedUnicastPackets 	0
scalar IntersectionExampleScenario.node[464].nic.mac1609_4 	ReceivedBroadcasts 	0
scalar IntersectionExampleScenario.node[464].nic.mac1609_4 	SentPackets 	0
scalar IntersectionExampleScenario.node[464].nic.mac1609_4 	SNIRLostPackets 	0
scalar IntersectionExampleScenario.node[464].nic.mac1609_4 	RXTXLostPackets 	0
scalar IntersectionExampleScenario.node[464].nic.mac1609_4 	TotalLostPackets 	0
scalar IntersectionExampleScenario.node[464].nic.mac1609_4 	DroppedPacketsInMac 	0
scalar IntersectionExampleScenario.node[464].nic.mac1609_4 	TooLittleTime 	0
scalar IntersectionExampleScenario.node[464].nic.mac1609_4 	TimesIntoBackoff 	0
scalar IntersectionExampleScenario.node[464].nic.mac1609_4 	SlotsBackoff 	0
scalar IntersectionExampleScenario.node[464].nic.mac1609_4 	NumInternalContention 	0
scalar IntersectionExampleScenario.node[464].nic.mac1609_4 	totalBusyTime 	0
scalar IntersectionExampleScenario.node[464].veinsmobility 	startTime 	1792.25
scalar IntersectionExampleScenario.node[464].veinsmobility 	totalTime 	7.75
scalar IntersectionExampleScenario.node[464].veinsmobility 	stopTime 	1800
scalar IntersectionExampleScenario.node[464].veinsmobility 	minSpeed 	5.6500000953674
scalar IntersectionExampleScenario.node[464].veinsmobility 	maxSpeed 	15.260183334351
scalar IntersectionExampleScenario.node[464].veinsmobility 	totalDistance 	96.198554992676
scalar IntersectionExampleScenario.node[464].veinsmobility 	totalCO2Emission 	39.436471100774
scalar IntersectionExampleScenario.node[465].appl 	VehicleRemoved 	0
scalar IntersectionExampleScenario.node[465].appl 	ArrivedAtDest 	0
scalar IntersectionExampleScenario.node[465].appl 	IntersectionEnterTime 	1792.75
scalar IntersectionExampleScenario.node[465].appl 	IntersectionExitTime 	-1
scalar IntersectionExampleScenario.node[465].appl 	NumberOfCollisions 	0
scalar IntersectionExampleScenario.node[465].nic.phy80211p 	busyTime 	0
scalar IntersectionExampleScenario.node[465].nic.mac1609_4 	ReceivedUnicastPackets 	0
scalar IntersectionExampleScenario.node[465].nic.mac1609_4 	ReceivedBroadcasts 	0
scalar IntersectionExampleScenario.node[465].nic.mac1609_4 	SentPackets 	0
scalar IntersectionExampleScenario.node[465].nic.mac1609_4 	SNIRLostPackets 	0
scalar IntersectionExampleScenario.node[465].nic.mac1609_4 	RXTXLostPackets 	0
scalar IntersectionExampleScenario.node[465].nic.mac1609_4 	TotalLostPackets 	0
scalar IntersectionExampleScenario.node[465].nic.mac1609_4 	DroppedPacketsInMac 	0
scalar IntersectionExampleScenario.node[465].nic.mac1609_4 	TooLittleTime 	0
scalar IntersectionExampleScenario.node[465].nic.mac1609_4 	TimesIntoBackoff 	0
scalar IntersectionExampleScenario.node[465].nic.mac1609_4 	SlotsBackoff 	0
scalar IntersectionExampleScenario.node[465].nic.mac1609_4 	NumInternalContention 	0
scalar IntersectionExampleScenario.node[465].nic.mac1609_4 	totalBusyTime 	0
scalar IntersectionExampleScenario.node[465].veinsmobility 	startTime 	1792.75
scalar IntersectionExampleScenario.node[465].veinsmobility 	totalTime 	7.25
scalar IntersectionExampleScenario.node[465].veinsmobility 	stopTime 	1800
scalar IntersectionExampleScenario.node[465].veinsmobility 	minSpeed 	5.6500000953674
scalar IntersectionExampleScenario.node[465].veinsmobility 	maxSpeed 	14.973529815674
scalar IntersectionExampleScenario.node[465].veinsmobility 	totalDistance 	85.627639770508
scalar IntersectionExampleScenario.node[465].veinsmobility 	totalCO2Emission 	36.959040015694
scalar IntersectionExampleScenario.node[466].appl 	VehicleRemoved 	0
scalar IntersectionExampleScenario.node[466].appl 	ArrivedAtDest 	0
scalar IntersectionExampleScenario.node[466].appl 	IntersectionEnterTime 	1795.25
scalar IntersectionExampleScenario.node[466].appl 	IntersectionExitTime 	-1
scalar IntersectionExampleScenario.node[466].appl 	NumberOfCollisions 	0
scalar IntersectionExampleScenario.node[466].nic.phy80211p 	busyTime 	0
scalar IntersectionExampleScenario.node[466].nic.mac1609_4 	ReceivedUnicastPackets 	0
scalar IntersectionExampleScenario.node[466].nic.mac1609_4 	ReceivedBroadcasts 	0
scalar IntersectionExampleScenario.node[466].nic.mac1609_4 	SentPackets 	0
scalar IntersectionExampleScenario.node[466].nic.mac1609_4 	SNIRLostPackets 	0
scalar IntersectionExampleScenario.node[466].nic.mac1609_4 	RXTXLostPackets 	0
scalar IntersectionExampleScenario.node[466].nic.mac1609_4 	TotalLostPackets 	0
scalar IntersectionExampleScenario.node[466].nic.mac1609_4 	DroppedPacketsInMac 	0
scalar IntersectionExampleScenario.node[466].nic.mac1609_4 	TooLittleTime 	0
scalar IntersectionExampleScenario.node[466].nic.mac1609_4 	TimesIntoBackoff 	0
scalar IntersectionExampleScenario.node[466].nic.mac1609_4 	SlotsBackoff 	0
scalar IntersectionExampleScenario.node[466].nic.mac1609_4 	NumInternalContention 	0
scalar IntersectionExampleScenario.node[466].nic.mac1609_4 	totalBusyTime 	0
scalar IntersectionExampleScenario.node[466].veinsmobility 	startTime 	1795.25
scalar IntersectionExampleScenario.node[466].veinsmobility 	totalTime 	4.75
scalar IntersectionExampleScenario.node[466].veinsmobility 	stopTime 	1800
scalar IntersectionExampleScenario.node[466].veinsmobility 	minSpeed 	5.6500000953674
scalar IntersectionExampleScenario.node[466].veinsmobility 	maxSpeed 	15.64999961853
scalar IntersectionExampleScenario.node[466].veinsmobility 	totalDistance 	51.688087463379
scalar IntersectionExampleScenario.node[466].veinsmobility 	totalCO2Emission 	34.065571712931
scalar IntersectionExampleScenario.node[467].appl 	VehicleRemoved 	0
scalar IntersectionExampleScenario.node[467].appl 	ArrivedAtDest 	0
scalar IntersectionExampleScenario.node[467].appl 	IntersectionEnterTime 	1796.75
scalar IntersectionExampleScenario.node[467].appl 	IntersectionExitTime 	-1
scalar IntersectionExampleScenario.node[467].appl 	NumberOfCollisions 	0
scalar IntersectionExampleScenario.node[467].nic.phy80211p 	busyTime 	0
scalar IntersectionExampleScenario.node[467].nic.mac1609_4 	ReceivedUnicastPackets 	0
scalar IntersectionExampleScenario.node[467].nic.mac1609_4 	ReceivedBroadcasts 	0
scalar IntersectionExampleScenario.node[467].nic.mac1609_4 	SentPackets 	0
scalar IntersectionExampleScenario.node[467].nic.mac1609_4 	SNIRLostPackets 	0
scalar IntersectionExampleScenario.node[467].nic.mac1609_4 	RXTXLostPackets 	0
scalar IntersectionExampleScenario.node[467].nic.mac1609_4 	TotalLostPackets 	0
scalar IntersectionExampleScenario.node[467].nic.mac1609_4 	DroppedPacketsInMac 	0
scalar IntersectionExampleScenario.node[467].nic.mac1609_4 	TooLittleTime 	0
scalar IntersectionExampleScenario.node[467].nic.mac1609_4 	TimesIntoBackoff 	0
scalar IntersectionExampleScenario.node[467].nic.mac1609_4 	SlotsBackoff 	0
scalar IntersectionExampleScenario.node[467].nic.mac1609_4 	NumInternalContention 	0
scalar IntersectionExampleScenario.node[467].nic.mac1609_4 	totalBusyTime 	0
scalar IntersectionExampleScenario.node[467].veinsmobility 	startTime 	1796.75
scalar IntersectionExampleScenario.node[467].veinsmobility 	totalTime 	3.25
scalar IntersectionExampleScenario.node[467].veinsmobility 	stopTime 	1800
scalar IntersectionExampleScenario.node[467].veinsmobility 	minSpeed 	5.6500000953674
scalar IntersectionExampleScenario.node[467].veinsmobility 	maxSpeed 	13.14999961853
scalar IntersectionExampleScenario.node[467].veinsmobility 	totalDistance 	29.534355163574
scalar IntersectionExampleScenario.node[467].veinsmobility 	totalCO2Emission 	22.582438530969
