file 21115887 1591488315                                        
version 2
run nodebug-14-20200606-20:01:21-18208
attr configname nodebug
attr datetime 20200606-20:01:21
attr experiment nodebug
attr inifile omnetpp.ini
attr iterationvars ""
attr iterationvars2 $repetition=14
attr measurement ""
attr network "\"org.car2x.veins.modules.application.ExtTraCIScenarioManagerLaunchd.IntersectionExampleScenario\""
attr processid 18208
attr repetition 14
attr replication #14
attr resultdir results
attr runnumber 14
attr seedset 14
param **.coreDebug false
param **.debug false
param *.**.nic.mac1609_4.bitrate 18Mbps
param *.**.nic.mac1609_4.txPower 20mW
param *.**.nic.mac1609_4.useServiceChannel false
param *.**.nic.phy80211p.analogueModels "xmldoc(\"config.xml\")"
param *.**.nic.phy80211p.decider "xmldoc(\"config.xml\")"
param *.**.nic.phy80211p.sensitivity -89dBm
param *.**.nic.phy80211p.thermalNoise -110dBm
param *.**.nic.phy80211p.usePropagationDelay true
param *.**.nic.phy80211p.useThermalNoise true
param *.annotations.draw false
param *.connectionManager.alpha 2.0
param *.connectionManager.carrierFrequency "5.890e9 Hz"
param *.connectionManager.pMax 20mW
param *.connectionManager.sat -89dBm
param *.connectionManager.sendDirect true
param *.manager.autoShutdown true
param *.manager.host "\"localhost\""
param *.manager.launchConfig "xmldoc(\"paramics.launchd.xml\")"
param *.manager.margin 25
param *.manager.moduleDisplayString "\"\""
param *.manager.moduleName "\"node\""
param *.manager.moduleType "\"org.car2x.veins.nodes.Car\""
param *.manager.port 9999
param *.manager.updateInterval 250ms
param *.node[*0].veinsmobility.accidentCount 0
param *.node[*0].veinsmobility.accidentDuration 30s
param *.node[*0].veinsmobility.accidentStart 75s
param *.node[*].appl.LiderSelectZoneRadio 55.0
param *.node[*].appl.ShareDataZoneRadio 110.0
param *.node[*].appl.TiempoSemaforo 30.0
param *.node[*].appl.beaconInterval 1s
param *.node[*].appl.beaconPriority 3
param *.node[*].appl.dataOnSch false
param *.node[*].appl.dataPriority 2
param *.node[*].appl.debug false
param *.node[*].appl.headerLength "256 bit"
param *.node[*].appl.maxOffset 0.005s
param *.node[*].appl.sendBeacons false
param *.node[*].appl.sendData true
param *.node[*].applType "\"Dummy\""
param *.node[*].mobilityType "\"TraCIMobility\""
param *.node[*].mobilityType.debug true
param *.node[*].veinsmobility.x 0
param *.node[*].veinsmobility.y 0
param *.node[*].veinsmobility.z 1.895
param *.node[*].veinsmobilityType "\"org.car2x.veins.modules.mobility.traci.TraCIMobility\""
param *.node[*].veinsmobilityType.debug true
param *.playgroundSizeX 8500m
param *.playgroundSizeY 8500m
param *.playgroundSizeZ 50m
param *.world.use2D false
param *.world.useTorus false

vector 9982  IntersectionExampleScenario.manager  vehiclesinsim  ETV
attr type  int
vector 9983  IntersectionExampleScenario.manager  realtime  ETV
attr type  int
attr unit  s
vector 9986  IntersectionExampleScenario.node[0].veinsmobility  posx  ETV
vector 9987  IntersectionExampleScenario.node[0].veinsmobility  posy  ETV
vector 9988  IntersectionExampleScenario.node[0].veinsmobility  speed  ETV
vector 9989  IntersectionExampleScenario.node[0].veinsmobility  acceleration  ETV
vector 9990  IntersectionExampleScenario.node[0].veinsmobility  co2emission  ETV
vector 9993  IntersectionExampleScenario.node[1].veinsmobility  posx  ETV
vector 9994  IntersectionExampleScenario.node[1].veinsmobility  posy  ETV
vector 9995  IntersectionExampleScenario.node[1].veinsmobility  speed  ETV
vector 10000  IntersectionExampleScenario.node[2].veinsmobility  posx  ETV
vector 10001  IntersectionExampleScenario.node[2].veinsmobility  posy  ETV
vector 9996  IntersectionExampleScenario.node[1].veinsmobility  acceleration  ETV
vector 9997  IntersectionExampleScenario.node[1].veinsmobility  co2emission  ETV
vector 10002  IntersectionExampleScenario.node[2].veinsmobility  speed  ETV
vector 10003  IntersectionExampleScenario.node[2].veinsmobility  acceleration  ETV
vector 10004  IntersectionExampleScenario.node[2].veinsmobility  co2emission  ETV
vector 10007  IntersectionExampleScenario.node[3].veinsmobility  posx  ETV
vector 10008  IntersectionExampleScenario.node[3].veinsmobility  posy  ETV
vector 10009  IntersectionExampleScenario.node[3].veinsmobility  speed  ETV
vector 10010  IntersectionExampleScenario.node[3].veinsmobility  acceleration  ETV
vector 10011  IntersectionExampleScenario.node[3].veinsmobility  co2emission  ETV
vector 10014  IntersectionExampleScenario.node[4].veinsmobility  posx  ETV
vector 10015  IntersectionExampleScenario.node[4].veinsmobility  posy  ETV
vector 10021  IntersectionExampleScenario.node[5].veinsmobility  posx  ETV
vector 10022  IntersectionExampleScenario.node[5].veinsmobility  posy  ETV
vector 10016  IntersectionExampleScenario.node[4].veinsmobility  speed  ETV
vector 10017  IntersectionExampleScenario.node[4].veinsmobility  acceleration  ETV
vector 10018  IntersectionExampleScenario.node[4].veinsmobility  co2emission  ETV
vector 10023  IntersectionExampleScenario.node[5].veinsmobility  speed  ETV
vector 10024  IntersectionExampleScenario.node[5].veinsmobility  acceleration  ETV
vector 10025  IntersectionExampleScenario.node[5].veinsmobility  co2emission  ETV
vector 10028  IntersectionExampleScenario.node[6].veinsmobility  posx  ETV
vector 10029  IntersectionExampleScenario.node[6].veinsmobility  posy  ETV
vector 10030  IntersectionExampleScenario.node[6].veinsmobility  speed  ETV
vector 10031  IntersectionExampleScenario.node[6].veinsmobility  acceleration  ETV
vector 10032  IntersectionExampleScenario.node[6].veinsmobility  co2emission  ETV
vector 10035  IntersectionExampleScenario.node[7].veinsmobility  posx  ETV
vector 10036  IntersectionExampleScenario.node[7].veinsmobility  posy  ETV
vector 10042  IntersectionExampleScenario.node[8].veinsmobility  posx  ETV
vector 10043  IntersectionExampleScenario.node[8].veinsmobility  posy  ETV
vector 10037  IntersectionExampleScenario.node[7].veinsmobility  speed  ETV
vector 10044  IntersectionExampleScenario.node[8].veinsmobility  speed  ETV
vector 10038  IntersectionExampleScenario.node[7].veinsmobility  acceleration  ETV
vector 10039  IntersectionExampleScenario.node[7].veinsmobility  co2emission  ETV
vector 10045  IntersectionExampleScenario.node[8].veinsmobility  acceleration  ETV
vector 10046  IntersectionExampleScenario.node[8].veinsmobility  co2emission  ETV
vector 10049  IntersectionExampleScenario.node[9].veinsmobility  posx  ETV
vector 10050  IntersectionExampleScenario.node[9].veinsmobility  posy  ETV
vector 10051  IntersectionExampleScenario.node[9].veinsmobility  speed  ETV
vector 10052  IntersectionExampleScenario.node[9].veinsmobility  acceleration  ETV
vector 10053  IntersectionExampleScenario.node[9].veinsmobility  co2emission  ETV
vector 10056  IntersectionExampleScenario.node[10].veinsmobility  posx  ETV
vector 10057  IntersectionExampleScenario.node[10].veinsmobility  posy  ETV
vector 10058  IntersectionExampleScenario.node[10].veinsmobility  speed  ETV
vector 10059  IntersectionExampleScenario.node[10].veinsmobility  acceleration  ETV
vector 10060  IntersectionExampleScenario.node[10].veinsmobility  co2emission  ETV
vector 10063  IntersectionExampleScenario.node[11].veinsmobility  posx  ETV
vector 10064  IntersectionExampleScenario.node[11].veinsmobility  posy  ETV
vector 10065  IntersectionExampleScenario.node[11].veinsmobility  speed  ETV
vector 10066  IntersectionExampleScenario.node[11].veinsmobility  acceleration  ETV
vector 10067  IntersectionExampleScenario.node[11].veinsmobility  co2emission  ETV
10046	7686 4862 802 3673 27.75 66 154 0.973 12.26218747632 523.57545090993 3144.7925962108
10045	12548 4662 802 3673 27.75 66 154 -3.4394798278809 2.5 41.227170944214 302.80224814944
10044	17210 4766 783 3673 27.5 66 155 5.6500000953674 16.5 2175.8512306213 32142.649363025
10043	21976 5131 764 3673 27.25 66 156 238.94183349609 483.14999389648 67670.491485596 30222946.555156
10042	27107 5108 764 3673 27.25 66 156 184.17810058594 483.14999389648 61924.894622803 26282376.759348
vector 10070  IntersectionExampleScenario.node[12].veinsmobility  posx  ETV
vector 10071  IntersectionExampleScenario.node[12].veinsmobility  posy  ETV
vector 10072  IntersectionExampleScenario.node[12].veinsmobility  speed  ETV
vector 10073  IntersectionExampleScenario.node[12].veinsmobility  acceleration  ETV
vector 10074  IntersectionExampleScenario.node[12].veinsmobility  co2emission  ETV
10011	32616 6023 212 3816 16.75 67.75 205 0.93438186594183 12.26218747632 597.04716288905 3326.6894582903
10010	38639 5733 212 3816 16.75 67.75 205 -7.2880325317383 4 41.057416915894 496.17494209542
10009	44372 5806 203 3816 16.5 67.75 206 0 16.5 2183.7521471977 31817.285757586
10008	50178 6767 194 3816 16.25 67.75 207 486.63604736328 785.82187652588 114861.27626801 65648231.106171
10007	56945 6690 194 3816 16.25 67.75 207 235.44110107422 483.14999389648 92073.125701904 41955304.857662
vector 10077  IntersectionExampleScenario.node[13].veinsmobility  posx  ETV
vector 10078  IntersectionExampleScenario.node[13].veinsmobility  posy  ETV
vector 10079  IntersectionExampleScenario.node[13].veinsmobility  speed  ETV
vector 10080  IntersectionExampleScenario.node[13].veinsmobility  acceleration  ETV
vector 10081  IntersectionExampleScenario.node[13].veinsmobility  co2emission  ETV
10039	64036 5252 802 4021 27.75 70.25 171 0.973 12.099024792222 553.44669978034 3245.8317074673
10038	69288 5173 802 4021 27.75 70.25 171 -2.404598236084 2.5 40.548154830933 317.03919711604
10037	74461 5360 783 4021 27.5 70.25 172 4.831063747406 16.27499961853 2216.796892643 30825.672076893
10036	79821 5687 764 4021 27.25 70.25 173 483.11959838867 785.82187652588 98347.698448181 57679796.612944
10035	85508 5682 764 4021 27.25 70.25 173 483.14999389648 734.99388122559 91832.524398804 49736304.848494
9990	91190 8067 44 4952 9.75 85 302 0.973 11.200708441096 650.33984470344 2780.5061149868
9989	99257 7154 44 4952 9.75 85 302 -6.8640689849854 4 35.625318527222 451.18975026733
9988	106411 7539 41 4952 9.5 85 303 0 15.02499961853 2216.7832789421 30264.160606425
9987	113950 9625 38 4952 9.25 85 304 486.85000610352 486.85000610352 148002.40185547 72054970.24667
9986	123575 9609 38 4952 9.25 85 304 235.25030517578 785.82187652588 154981.42017365 83355679.565156
10004	133184 8696 89 5010 12.5 86.25 296 0.973 11.200708441096 673.57785408652 2862.019740586
10003	141880 8493 89 5010 12.5 86.25 296 -4.5 2.5 38.928602218628 420.67229785952
10002	150373 8668 82 5010 12.25 86.25 297 0 15.525178909302 2268.1191274459 31813.846084006
10001	159041 9755 75 5010 12 86.25 298 486.85000610352 486.85000610352 145081.30181885 70632832.676012
10000	168796 9742 75 5010 12 86.25 298 237.75836181641 800.04531860352 154383.51436615 84455103.685732
10018	178538 8532 245 5108 17.5 88.5 285 0.973 11.90022389248 666.08170907979 3159.4339573854
10017	187070 8955 245 5108 17.5 88.5 285 -3.8475949764252 2.5000004768372 39.869146347046 366.02553491443
10016	196025 8895 232 5108 17.25 88.5 286 0 16 2234.1127787232 30235.879692788
10015	204920 9410 221 5108 17 88.5 287 236.10510253906 486.85000610352 131465.93841553 61361820.785141
10014	214330 9370 221 5108 17 88.5 287 483.14999389648 791.62037658691 157294.09485626 88310205.336878
vector 10084  IntersectionExampleScenario.node[14].veinsmobility  posx  ETV
vector 10085  IntersectionExampleScenario.node[14].veinsmobility  posy  ETV
vector 10091  IntersectionExampleScenario.node[15].veinsmobility  posx  ETV
vector 10092  IntersectionExampleScenario.node[15].veinsmobility  posy  ETV
vector 10086  IntersectionExampleScenario.node[14].veinsmobility  speed  ETV
vector 10093  IntersectionExampleScenario.node[15].veinsmobility  speed  ETV
vector 10087  IntersectionExampleScenario.node[14].veinsmobility  acceleration  ETV
vector 10088  IntersectionExampleScenario.node[14].veinsmobility  co2emission  ETV
vector 10094  IntersectionExampleScenario.node[15].veinsmobility  acceleration  ETV
vector 10095  IntersectionExampleScenario.node[15].veinsmobility  co2emission  ETV
vector 10098  IntersectionExampleScenario.node[16].veinsmobility  posx  ETV
vector 10099  IntersectionExampleScenario.node[16].veinsmobility  posy  ETV
vector 10105  IntersectionExampleScenario.node[17].veinsmobility  posx  ETV
vector 10106  IntersectionExampleScenario.node[17].veinsmobility  posy  ETV
vector 10100  IntersectionExampleScenario.node[16].veinsmobility  speed  ETV
vector 10101  IntersectionExampleScenario.node[16].veinsmobility  acceleration  ETV
vector 10102  IntersectionExampleScenario.node[16].veinsmobility  co2emission  ETV
vector 10107  IntersectionExampleScenario.node[17].veinsmobility  speed  ETV
vector 10108  IntersectionExampleScenario.node[17].veinsmobility  acceleration  ETV
vector 10109  IntersectionExampleScenario.node[17].veinsmobility  co2emission  ETV
vector 10112  IntersectionExampleScenario.node[18].veinsmobility  posx  ETV
vector 10113  IntersectionExampleScenario.node[18].veinsmobility  posy  ETV
10032	225458 7797 704 5251 26.25 91 260 0.973 11.648172402475 616.14000982687 2924.1346420523
10031	233255 8092 704 5251 26.25 91 260 -3.7487781047821 2.5000009536743 38.511121749878 323.26677728741
10030	241347 8288 689 5251 26 91 261 0 15.64999961853 2205.834623294 28595.086477521
10029	249635 8616 674 5251 25.75 91 262 237.51416015625 486.85000610352 119211.71783447 55362010.418066
10028	258251 8610 674 5251 25.75 91 262 483.13543701172 785.82187652588 145104.49304962 82297866.0397
vector 10114  IntersectionExampleScenario.node[18].veinsmobility  speed  ETV
vector 10115  IntersectionExampleScenario.node[18].veinsmobility  acceleration  ETV
vector 10116  IntersectionExampleScenario.node[18].veinsmobility  co2emission  ETV
vector 10119  IntersectionExampleScenario.node[19].veinsmobility  posx  ETV
vector 10120  IntersectionExampleScenario.node[19].veinsmobility  posy  ETV
vector 10126  IntersectionExampleScenario.node[20].veinsmobility  posx  ETV
vector 10127  IntersectionExampleScenario.node[20].veinsmobility  posy  ETV
vector 10121  IntersectionExampleScenario.node[19].veinsmobility  speed  ETV
vector 10122  IntersectionExampleScenario.node[19].veinsmobility  acceleration  ETV
vector 10123  IntersectionExampleScenario.node[19].veinsmobility  co2emission  ETV
vector 10128  IntersectionExampleScenario.node[20].veinsmobility  speed  ETV
vector 10129  IntersectionExampleScenario.node[20].veinsmobility  acceleration  ETV
vector 10130  IntersectionExampleScenario.node[20].veinsmobility  co2emission  ETV
vector 10133  IntersectionExampleScenario.node[21].veinsmobility  posx  ETV
vector 10134  IntersectionExampleScenario.node[21].veinsmobility  posy  ETV
vector 10135  IntersectionExampleScenario.node[21].veinsmobility  speed  ETV
vector 10136  IntersectionExampleScenario.node[21].veinsmobility  acceleration  ETV
vector 10137  IntersectionExampleScenario.node[21].veinsmobility  co2emission  ETV
9997	268311 9240 75 6050 12 100.5 355 0.973 11.36141391502 711.95411845682 2930.1980915168
9996	277551 7925 75 6050 12 100.5 355 -24.242809295654 4 37.15309715271 957.62016118726
9995	285476 8340 70 6050 11.75 100.5 356 0 15.25 2179.3927679062 30400.333052654
9994	293816 11326 65 6050 11.5 100.5 357 184.17810058594 483.36395263672 156244.07522583 70628111.518119
9993	305142 11283 65 6050 11.5 100.5 357 486.85000610352 733.15849304199 182142.79064941 94100986.581799
10025	316425 9688 258 6176 17.75 102 338 0.973 11.200708441096 677.40162426534 2766.4335940648
10024	326113 9987 258 6176 17.75 102 338 -3.8038024902344 2.5 35.285810470581 332.58461282061
10023	336100 9822 245 6176 17.5 102 339 0 15.02499961853 2212.053834579 28639.289913635
10022	345922 11135 232 6176 17.25 102 340 184.17810058594 732.74992370605 155108.2076416 75070040.714865
10021	357057 11176 232 6176 17.25 102 340 486.85000610352 486.85000610352 165529.0020752 80587795.670618
vector 10140  IntersectionExampleScenario.node[22].veinsmobility  posx  ETV
vector 10141  IntersectionExampleScenario.node[22].veinsmobility  posy  ETV
vector 10142  IntersectionExampleScenario.node[22].veinsmobility  speed  ETV
vector 10143  IntersectionExampleScenario.node[22].veinsmobility  acceleration  ETV
vector 10144  IntersectionExampleScenario.node[22].veinsmobility  co2emission  ETV
vector 10147  IntersectionExampleScenario.node[23].veinsmobility  posx  ETV
vector 10148  IntersectionExampleScenario.node[23].veinsmobility  posy  ETV
vector 10149  IntersectionExampleScenario.node[23].veinsmobility  speed  ETV
vector 10150  IntersectionExampleScenario.node[23].veinsmobility  acceleration  ETV
vector 10151  IntersectionExampleScenario.node[23].veinsmobility  co2emission  ETV
10053	369035 7417 2022 6439 43.75 105 246 0.973 11.450879080643 594.44854930902 2794.080067281
10052	376452 7806 2022 6439 43.75 105 246 -3.9198174476624 2.5000009536743 36.643835067749 332.03845089291
10051	384258 7819 2001 6439 43.5 105 247 0 15.375 2215.3903501965 28622.555556044
10050	392077 8176 1980 6439 43.25 105 248 184.17810058594 486.85000610352 103332.27255249 45032499.098891
10049	400253 8190 1980 6439 43.25 105 248 235.16668701172 486.85000610352 111992.32852173 51733220.908895
10060	408443 6177 2837 6554 54 106.25 210 0.973 12.553400930962 612.53089122809 3394.8813066895
10059	414620 6460 2837 6554 54 106.25 210 -3.9878692626953 2.5 42.585195541382 403.79511125377
10058	421080 6648 2818 6554 53.75 106.25 211 0 16.89999961853 2187.7419816405 29266.447067708
10057	427728 6993 2799 6554 53.5 106.25 212 184.17810058594 483.14999389648 86452.732543945 37038104.873202
10056	434721 7019 2799 6554 53.5 106.25 212 486.85000610352 733.61618041992 110966.6517334 59064300.893118
vector 10154  IntersectionExampleScenario.node[24].veinsmobility  posx  ETV
vector 10155  IntersectionExampleScenario.node[24].veinsmobility  posy  ETV
vector 10161  IntersectionExampleScenario.node[25].veinsmobility  posx  ETV
vector 10162  IntersectionExampleScenario.node[25].veinsmobility  posy  ETV
vector 10156  IntersectionExampleScenario.node[24].veinsmobility  speed  ETV
vector 10163  IntersectionExampleScenario.node[25].veinsmobility  speed  ETV
vector 10157  IntersectionExampleScenario.node[24].veinsmobility  acceleration  ETV
vector 10158  IntersectionExampleScenario.node[24].veinsmobility  co2emission  ETV
vector 10164  IntersectionExampleScenario.node[25].veinsmobility  acceleration  ETV
vector 10165  IntersectionExampleScenario.node[25].veinsmobility  co2emission  ETV
vector 10168  IntersectionExampleScenario.node[26].veinsmobility  posx  ETV
vector 10169  IntersectionExampleScenario.node[26].veinsmobility  posy  ETV
vector 10170  IntersectionExampleScenario.node[26].veinsmobility  speed  ETV
vector 10171  IntersectionExampleScenario.node[26].veinsmobility  acceleration  ETV
vector 10172  IntersectionExampleScenario.node[26].veinsmobility  co2emission  ETV
vector 10175  IntersectionExampleScenario.node[27].veinsmobility  posx  ETV
vector 10176  IntersectionExampleScenario.node[27].veinsmobility  posy  ETV
vector 10177  IntersectionExampleScenario.node[27].veinsmobility  speed  ETV
vector 10178  IntersectionExampleScenario.node[27].veinsmobility  acceleration  ETV
vector 10179  IntersectionExampleScenario.node[27].veinsmobility  co2emission  ETV
10067	443344 6263 3559 7638 64.5 116.25 208 0.973 11.810082123732 579.18699323427 3032.1270690052
10066	449607 5897 3559 7638 64.5 116.25 208 -7.7750906944275 4 38.511121749878 481.76530427803
10065	455504 6047 3540 7638 64.25 116.25 209 0 15.875 2181.7102345228 30752.642122378
10064	461551 6917 3521 7638 64 116.25 210 235.74822998047 483.14999389648 93233.304870605 42423806.253565
10063	468468 6974 3521 7638 64 116.25 210 184.17810058594 483.36395263672 87061.368988037 38036084.771918
vector 10182  IntersectionExampleScenario.node[28].veinsmobility  posx  ETV
vector 10183  IntersectionExampleScenario.node[28].veinsmobility  posy  ETV
vector 10184  IntersectionExampleScenario.node[28].veinsmobility  speed  ETV
vector 10185  IntersectionExampleScenario.node[28].veinsmobility  acceleration  ETV
vector 10186  IntersectionExampleScenario.node[28].veinsmobility  co2emission  ETV
10074	475843 6587 3753 7919 67 118.75 208 0.973 11.810082123732 590.4491860355 3060.7123119543
10073	482430 6424 3753 7919 67 118.75 208 -4.5 2.5 39.529638290405 445.66829668182
10072	488854 6663 3732 7919 66.75 118.75 209 0 15.875 2247.2547151428 31636.756725182
10071	495517 7001 3711 7919 66.5 118.75 210 236.77648925781 483.14999389648 93423.61920166 42570114.758729
10070	502518 6976 3711 7919 66.5 118.75 210 168.58435058594 483.14999389648 85487.607818604 36952724.282985
vector 10189  IntersectionExampleScenario.node[29].veinsmobility  posx  ETV
vector 10190  IntersectionExampleScenario.node[29].veinsmobility  posy  ETV
vector 10191  IntersectionExampleScenario.node[29].veinsmobility  speed  ETV
vector 10192  IntersectionExampleScenario.node[29].veinsmobility  acceleration  ETV
vector 10193  IntersectionExampleScenario.node[29].veinsmobility  co2emission  ETV
10102	509895 5135 5188 9049 90 129.25 158 0.973 11.810082123732 514.71921353728 2928.6544506131
10101	515030 5009 5188 9049 90 129.25 158 -3.3864288330078 2.5 39.529638290405 288.68974616891
10100	520039 5035 5171 9049 89.75 129.25 159 5.6500000953674 15.875 2189.4678602219 31618.27286625
10099	525074 5391 5156 9049 89.5 129.25 160 235.51129150391 483.14999389648 69175.12789917 30830927.452032
10098	530465 5380 5156 9049 89.5 129.25 160 184.17810058594 483.15255737305 63633.797210693 27040516.503553
vector 10196  IntersectionExampleScenario.node[30].veinsmobility  posx  ETV
vector 10197  IntersectionExampleScenario.node[30].veinsmobility  posy  ETV
vector 10198  IntersectionExampleScenario.node[30].veinsmobility  speed  ETV
vector 10199  IntersectionExampleScenario.node[30].veinsmobility  acceleration  ETV
vector 10200  IntersectionExampleScenario.node[30].veinsmobility  co2emission  ETV
10095	536246 5522 5143 9356 89.25 132 172 0.973 11.810082123732 554.1659259185 3036.1706390552
10094	541768 5054 5143 9356 89.25 132 172 -6.9388580322266 4 39.869146347046 481.49561185204
10093	546822 5409 5130 9356 89 132 173 0 15.875 2183.3810286522 31318.381264493
10092	552231 5861 5117 9356 88.75 132 174 486.63604736328 785.82187652588 98553.666069031 57617641.863219
10091	558092 5801 5117 9356 88.75 132 174 235.62799072266 483.14999389648 75993.338775635 34142274.085523
10109	563893 5906 5205 9693 90.25 135.25 181 0.973 11.36141391502 543.55123463627 2748.8316746396
10108	569799 5360 5205 9693 90.25 135.25 181 -4.5 2.5 37.15309715271 393.68266110386
10107	575159 5887 5188 9693 90 135.25 182 2.2976088523865 15.25 2276.170065403 31095.151698591
10106	581046 6170 5171 9693 89.75 135.25 183 486.85000610352 807.99687957764 105408.3754425 62891250.229712
10105	587216 6169 5171 9693 89.75 135.25 183 235.90209960938 483.14999389648 80011.293884277 35977966.929905
10130	593385 5497 5448 9790 93.75 136.25 171 0.973 11.90022389248 563.59693261521 3169.7517595829
10129	598882 5191 5448 9790 93.75 136.25 171 -3.5038261413574 2.5 40.038900375366 330.92255017185
10128	604073 5521 5427 9790 93.5 136.25 172 5.6500000953674 16 2294.715613842 32277.224111683
10127	609594 5845 5406 9790 93.25 136.25 173 483.14999389648 806.55350494385 99993.033699036 59893831.368893
10126	615439 5846 5406 9790 93.25 136.25 173 483.14999389648 734.14016723633 91839.500656128 49739846.155728
vector 10203  IntersectionExampleScenario.node[31].veinsmobility  posx  ETV
vector 10204  IntersectionExampleScenario.node[31].veinsmobility  posy  ETV
vector 10205  IntersectionExampleScenario.node[31].veinsmobility  speed  ETV
vector 10206  IntersectionExampleScenario.node[31].veinsmobility  acceleration  ETV
vector 10207  IntersectionExampleScenario.node[31].veinsmobility  co2emission  ETV
10081	621686 9003 3958 10921 69.5 148.5 317 0.973 11.450879080643 676.04364826173 2932.6746806787
10080	630689 8003 3958 10921 69.5 148.5 317 -8.4870567321777 4 37.15309715271 481.82449572734
10079	638692 8398 3937 10921 69.25 148.5 318 0 15.375 2210.4979660511 30840.215052249
10078	647090 10762 3916 10921 69 148.5 319 486.85000610352 486.85000610352 155305.15194702 75610314.173315
10077	657852 10746 3916 10921 69 148.5 319 236.75714111328 785.82187652588 162615.71572113 87138115.819896
vector 10210  IntersectionExampleScenario.node[32].veinsmobility  posx  ETV
vector 10211  IntersectionExampleScenario.node[32].veinsmobility  posy  ETV
vector 10212  IntersectionExampleScenario.node[32].veinsmobility  speed  ETV
vector 10213  IntersectionExampleScenario.node[32].veinsmobility  acceleration  ETV
vector 10214  IntersectionExampleScenario.node[32].veinsmobility  co2emission  ETV
10088	668999 7631 5143 11050 89.25 150 244 0.973 11.36141391502 593.20718486998 2781.6209815092
10087	676630 7924 5143 11050 89.25 150 244 -3.8088512420654 2.5000000074506 37.15309715271 332.69805622564
10086	684554 8035 5130 11050 89 150 245 0 15.25 2183.5799870696 28351.72913332
10085	692589 8360 5117 11050 88.75 150 246 486.85000610352 733.02449035645 128090.71929932 67777805.891296
10084	700949 8350 5117 11050 88.75 150 246 486.85000610352 785.82187652588 135910.79494476 77060517.671789
10116	709299 7552 5285 11197 91.5 151.75 242 0.973 11.54047740176 610.1776865761 2875.1928364223
10115	716851 7877 5285 11197 91.5 151.75 242 -4.5 2.5 38.171613693237 396.15207940163
10114	724728 8066 5268 11197 91.25 151.75 243 0 15.5 2278.9155326262 29979.140747148
10113	732794 8314 5251 11197 91 151.75 244 486.85000610352 486.85000610352 118791.40148926 57833594.54009
10112	741108 8282 5251 11197 91 151.75 244 237.83752441406 802.70781707764 128928.78547668 72660202.148961
vector 10217  IntersectionExampleScenario.node[33].veinsmobility  posx  ETV
vector 10218  IntersectionExampleScenario.node[33].veinsmobility  posy  ETV
vector 10219  IntersectionExampleScenario.node[33].veinsmobility  speed  ETV
vector 10220  IntersectionExampleScenario.node[33].veinsmobility  acceleration  ETV
vector 10221  IntersectionExampleScenario.node[33].veinsmobility  co2emission  ETV
vector 10224  IntersectionExampleScenario.node[34].veinsmobility  posx  ETV
vector 10225  IntersectionExampleScenario.node[34].veinsmobility  posy  ETV
vector 10226  IntersectionExampleScenario.node[34].veinsmobility  speed  ETV
10123	750023 7801 5427 11435 93.5 154.75 246 0.973 11.648172402475 641.552205903 3131.6172689774
10122	757824 7989 5427 11435 93.5 154.75 246 -4.5 2.5 39.699392318726 467.25516140598
10121	765813 8095 5406 11435 93.25 154.75 247 0 15.64999961853 2292.9878265951 30151.982679112
10120	773908 8453 5387 11435 93 154.75 248 486.85000610352 733.28741455078 128767.73901367 67913444.876581
10119	782361 8442 5387 11435 93 154.75 248 486.85000610352 812.36485290527 140277.92459869 81666606.867882
vector 10227  IntersectionExampleScenario.node[34].veinsmobility  acceleration  ETV
vector 10228  IntersectionExampleScenario.node[34].veinsmobility  co2emission  ETV
vector 10231  IntersectionExampleScenario.node[35].veinsmobility  posx  ETV
vector 10232  IntersectionExampleScenario.node[35].veinsmobility  posy  ETV
vector 10233  IntersectionExampleScenario.node[35].veinsmobility  speed  ETV
vector 10238  IntersectionExampleScenario.node[36].veinsmobility  posx  ETV
vector 10239  IntersectionExampleScenario.node[36].veinsmobility  posy  ETV
vector 10234  IntersectionExampleScenario.node[35].veinsmobility  acceleration  ETV
vector 10235  IntersectionExampleScenario.node[35].veinsmobility  co2emission  ETV
vector 10240  IntersectionExampleScenario.node[36].veinsmobility  speed  ETV
vector 10241  IntersectionExampleScenario.node[36].veinsmobility  acceleration  ETV
vector 10242  IntersectionExampleScenario.node[36].veinsmobility  co2emission  ETV
10137	791774 8422 5620 12506 95.75 165.75 281 0.973 10.756497587458 610.14552505142 2508.7885731768
10136	800196 7487 5620 12506 95.75 165.75 281 -9.1816139221191 4 32.909269332886 463.83541578822
10135	807683 8018 5597 12506 95.5 165.75 282 0 14.39999961853 2217.1538124084 29061.04104403
10134	815701 9683 5574 12506 95.25 165.75 283 184.17810058594 734.88121032715 130046.04632568 64256874.485083
10133	825384 9715 5574 12506 95.25 165.75 283 486.85000610352 486.85000610352 137778.55172729 67077488.749367
10144	835099 8148 6240 12549 102.75 166.25 255 0.973 11.00486315618 593.51682215751 2583.6131309142
10143	843247 8350 6240 12549 102.75 166.25 255 -3.7182965278625 2.5000002384186 35.455564498901 323.98961894641
10142	851597 8578 6219 12549 102.5 166.25 256 0 14.75 2204.7447179239 28485.200314197
10141	860175 8808 6197 12549 102.25 166.25 257 184.17810058594 486.86672973633 108076.20251465 47507167.8617
10140	868983 8841 6197 12549 102.25 166.25 257 237.13732910156 486.85000610352 116339.89254761 53828049.007771
10165	877824 7483 6838 12716 109.25 168.25 237 0.973 11.200708441096 584.84555025992 2636.4228240551
10164	885307 7742 6838 12716 109.25 168.25 237 -3.8714802265167 2.5 36.98334312439 320.94404199697
10163	893049 7997 6811 12716 109 168.25 238 0 15.02499961853 2222.8049469888 28425.158362735
10162	901046 8193 6784 12716 108.75 168.25 239 184.17810058594 735.19590759277 107254.8053894 52423297.302505
10161	909239 8246 6784 12716 108.75 168.25 239 486.85000610352 486.85000610352 116357.15145874 56648479.897875
10172	917485 7719 6950 12868 110.25 170.25 241 0.973 11.200708441096 617.41869720221 2849.2540418498
10171	925204 7652 6950 12868 110.25 170.25 241 -4.5 2.5 38.680875778198 461.52213434609
10170	932856 8044 6921 12868 110 170.25 242 0 15.373927116394 2293.0653642118 29794.319244342
10169	940900 8357 6892 12868 109.75 170.25 243 162.00311279297 486.88021850586 98137.425750732 41890348.445481
10168	949257 8386 6892 12868 109.75 170.25 243 237.74371337891 486.85003662109 109991.37207031 50880497.657631
vector 10245  IntersectionExampleScenario.node[37].veinsmobility  posx  ETV
vector 10246  IntersectionExampleScenario.node[37].veinsmobility  posy  ETV
vector 10252  IntersectionExampleScenario.node[38].veinsmobility  posx  ETV
vector 10253  IntersectionExampleScenario.node[38].veinsmobility  posy  ETV
vector 10247  IntersectionExampleScenario.node[37].veinsmobility  speed  ETV
vector 10248  IntersectionExampleScenario.node[37].veinsmobility  acceleration  ETV
vector 10249  IntersectionExampleScenario.node[37].veinsmobility  co2emission  ETV
vector 10254  IntersectionExampleScenario.node[38].veinsmobility  speed  ETV
vector 10255  IntersectionExampleScenario.node[38].veinsmobility  acceleration  ETV
vector 10256  IntersectionExampleScenario.node[38].veinsmobility  co2emission  ETV
vector 10259  IntersectionExampleScenario.node[39].veinsmobility  posx  ETV
vector 10260  IntersectionExampleScenario.node[39].veinsmobility  posy  ETV
vector 10261  IntersectionExampleScenario.node[39].veinsmobility  speed  ETV
vector 10262  IntersectionExampleScenario.node[39].veinsmobility  acceleration  ETV
vector 10263  IntersectionExampleScenario.node[39].veinsmobility  co2emission  ETV
10151	958846 8902 6370 13586 104.25 180.25 305 0.973 11.810082123732 673.56799323427 3123.9597820052
10150	967748 8148 6370 13586 104.25 180.25 305 -7.7750906944275 4 38.511121749878 481.76530427803
10149	975896 8296 6347 13586 104 180.25 306 0 15.875 2181.7102345228 30752.642122378
10148	984192 10528 6324 13586 103.75 180.25 307 235.74822998047 483.14999389648 140098.85427856 65066896.163976
10147	994720 10585 6324 13586 103.75 180.25 307 184.17810058594 483.36395263672 132806.56958008 59609521.650331
10179	1005305 8705 7353 13731 113.75 182.25 275 0.973 11.648172402475 640.72055901263 3048.6821598196
10178	1014010 9363 7353 13731 113.75 182.25 275 -3.7085783481598 2.5 39.020376205444 333.3679518752
10177	1023373 9146 7324 13731 113.5 182.25 276 0 15.861433982849 2181.3622483537 28949.396983388
10176	1032519 9584 7295 13731 113.25 182.25 277 237.54565429688 483.14999389648 125777.70635986 58192060.470661
10175	1042103 9552 7295 13731 113.25 182.25 277 184.17810058594 483.20993041992 117314.10876465 51697339.199892
10200	1051655 6655 9269 13799 131.25 183.25 209 0.973 12.099024792222 589.3983507123 3202.2513253422
10199	1058310 6876 9269 13799 131.25 183.25 209 -3.9209263324738 2.5000019073486 41.227170944214 348.85842248098
10198	1065186 7132 9240 13799 131 183.25 210 0 16.27499961853 2213.3875019029 30403.606648381
10197	1072318 7354 9211 13799 130.75 183.25 211 483.14999389648 483.14999389648 101944.64871216 49254556.403058
10196	1079672 7314 9211 13799 130.75 183.25 211 184.17810058594 732.17926025391 94315.513397217 46163572.218743
10207	1086986 6205 9978 13982 138.25 186.25 193 0.973 11.648172402475 552.70726156253 2919.0199413555
10206	1093191 6206 9978 13982 138.25 186.25 193 -4.5 2.5 38.171613693237 346.77183103383
10205	1099397 6578 9953 13982 138 186.25 194 3.2178897857666 15.64999961853 2219.5669567585 28856.445000241
10204	1105975 6822 9928 13982 137.75 186.25 195 483.14999389648 483.14999389648 94214.248809814 45519613.737424
10203	1112797 6778 9928 13982 137.75 186.25 195 184.17810058594 733.9441986084 86771.521240234 42814407.359236
vector 10266  IntersectionExampleScenario.node[40].veinsmobility  posx  ETV
vector 10267  IntersectionExampleScenario.node[40].veinsmobility  posy  ETV
vector 10268  IntersectionExampleScenario.node[40].veinsmobility  speed  ETV
vector 10269  IntersectionExampleScenario.node[40].veinsmobility  acceleration  ETV
vector 10270  IntersectionExampleScenario.node[40].veinsmobility  co2emission  ETV
vector 10273  IntersectionExampleScenario.node[41].veinsmobility  posx  ETV
vector 10274  IntersectionExampleScenario.node[41].veinsmobility  posy  ETV
vector 10275  IntersectionExampleScenario.node[41].veinsmobility  speed  ETV
vector 10280  IntersectionExampleScenario.node[42].veinsmobility  posx  ETV
vector 10281  IntersectionExampleScenario.node[42].veinsmobility  posy  ETV
vector 10276  IntersectionExampleScenario.node[41].veinsmobility  acceleration  ETV
vector 10277  IntersectionExampleScenario.node[41].veinsmobility  co2emission  ETV
vector 10282  IntersectionExampleScenario.node[42].veinsmobility  speed  ETV
vector 10283  IntersectionExampleScenario.node[42].veinsmobility  acceleration  ETV
vector 10284  IntersectionExampleScenario.node[42].veinsmobility  co2emission  ETV
vector 10287  IntersectionExampleScenario.node[43].veinsmobility  posx  ETV
vector 10288  IntersectionExampleScenario.node[43].veinsmobility  posy  ETV
vector 10294  IntersectionExampleScenario.node[44].veinsmobility  posx  ETV
vector 10295  IntersectionExampleScenario.node[44].veinsmobility  posy  ETV
vector 10301  IntersectionExampleScenario.node[45].veinsmobility  posx  ETV
vector 10302  IntersectionExampleScenario.node[45].veinsmobility  posy  ETV
vector 10289  IntersectionExampleScenario.node[43].veinsmobility  speed  ETV
vector 10296  IntersectionExampleScenario.node[44].veinsmobility  speed  ETV
vector 10290  IntersectionExampleScenario.node[43].veinsmobility  acceleration  ETV
vector 10291  IntersectionExampleScenario.node[43].veinsmobility  co2emission  ETV
vector 10297  IntersectionExampleScenario.node[44].veinsmobility  acceleration  ETV
vector 10298  IntersectionExampleScenario.node[44].veinsmobility  co2emission  ETV
vector 10303  IntersectionExampleScenario.node[45].veinsmobility  speed  ETV
vector 10308  IntersectionExampleScenario.node[46].veinsmobility  posx  ETV
vector 10309  IntersectionExampleScenario.node[46].veinsmobility  posy  ETV
vector 10304  IntersectionExampleScenario.node[45].veinsmobility  acceleration  ETV
vector 10305  IntersectionExampleScenario.node[45].veinsmobility  co2emission  ETV
vector 10310  IntersectionExampleScenario.node[46].veinsmobility  speed  ETV
vector 10311  IntersectionExampleScenario.node[46].veinsmobility  acceleration  ETV
vector 10312  IntersectionExampleScenario.node[46].veinsmobility  co2emission  ETV
10242	1122382 5103 11573 14568 156.25 193.25 149 0.973 12.099024792222 489.0549849157 2759.7990548981
10241	1127485 4720 11573 14568 156.25 193.25 149 -3.3615646362305 2.5 41.227170944214 211.90550692683
10240	1132205 4995 11548 14568 156 193.25 150 5.6500000953674 16.27499961853 2215.6485786438 33537.560062301
10239	1137200 5285 11523 14568 155.75 193.25 151 483.14999389648 483.14999389648 72955.649078369 35248521.406928
10238	1142485 5254 11523 14568 155.75 193.25 151 184.17810058594 732.68087768555 67552.651992798 34216843.951348
vector 10315  IntersectionExampleScenario.node[47].veinsmobility  posx  ETV
vector 10316  IntersectionExampleScenario.node[47].veinsmobility  posy  ETV
vector 10317  IntersectionExampleScenario.node[47].veinsmobility  speed  ETV
vector 10318  IntersectionExampleScenario.node[47].veinsmobility  acceleration  ETV
vector 10319  IntersectionExampleScenario.node[47].veinsmobility  co2emission  ETV
10186	1148140 9664 7777 14987 117.5 196.75 318 0.96333723109819 12.099024792222 689.58804448636 3278.3433194628
10185	1157804 9991 7777 14987 117.5 196.75 318 -3.7254316806793 2.5 40.208654403687 357.35502739493
10184	1167795 9891 7748 14987 117.25 196.75 319 0 16.27499961853 2207.6050566006 30261.632511317
10183	1177686 11079 7719 14987 117 196.75 320 238.82745361328 785.82187652588 164973.87071991 89092681.369212
10182	1188765 11114 7719 14987 117 196.75 320 483.14999389648 483.14999389648 154607.99804688 74698853.312695
10158	1199879 10214 6838 15016 109.25 197 352 0.973 11.200708441096 698.43946332719 2793.8429574309
10157	1210093 8966 6838 15016 109.25 197 352 -8.3493623733521 4 35.625318527222 505.86885208459
10156	1219059 9391 6811 15016 109 197 353 0 15.02499961853 2184.0061991215 29708.505634389
10155	1228450 12265 6784 15016 108.75 197 354 486.63604736328 785.82187652588 188731.43271637 102881806.90379
10154	1240715 12199 6784 15016 108.75 197 354 234.9931640625 483.14999389648 162360.78546143 75685907.098087
10193	1252914 9952 8212 15314 121.5 199.75 314 0.973 12.099024792222 701.84137635355 3162.3701243451
10192	1262866 10607 8212 15314 121.5 199.75 314 -4.5 2.5000004768372 41.227178573608 402.38037084005
10191	1273473 10352 8185 15314 121.25 199.75 315 0 16.27499961853 2208.2250029892 29432.107367261
10190	1283825 10974 8158 15314 121 199.75 316 486.83471679688 792.02188110352 172663.85778046 96432683.040631
10189	1294799 10973 8158 15314 121 199.75 316 237.31451416016 483.14999389648 144804.27593994 67437385.251806
vector 10322  IntersectionExampleScenario.node[48].veinsmobility  posx  ETV
vector 10323  IntersectionExampleScenario.node[48].veinsmobility  posy  ETV
vector 10324  IntersectionExampleScenario.node[48].veinsmobility  speed  ETV
vector 10325  IntersectionExampleScenario.node[48].veinsmobility  acceleration  ETV
vector 10326  IntersectionExampleScenario.node[48].veinsmobility  co2emission  ETV
vector 10329  IntersectionExampleScenario.node[49].veinsmobility  posx  ETV
vector 10330  IntersectionExampleScenario.node[49].veinsmobility  posy  ETV
vector 10331  IntersectionExampleScenario.node[49].veinsmobility  speed  ETV
vector 10332  IntersectionExampleScenario.node[49].veinsmobility  acceleration  ETV
vector 10333  IntersectionExampleScenario.node[49].veinsmobility  co2emission  ETV
10228	1306574 7206 11456 16681 155 212.25 230 0.973 11.648172402475 598.45296353784 2943.5229520903
10227	1313780 6492 11456 16681 155 212.25 230 -7.03919506073 4 38.341367721558 476.33694168539
10226	1320272 6884 11435 16681 154.75 212.25 231 0 15.64999961853 2177.4668385983 30628.127941716
10225	1327156 8050 11414 16681 154.5 212.25 232 486.85000610352 733.04777526855 121130.94921875 64294277.881981
10224	1335206 8116 11414 16681 154.5 212.25 232 486.63604736328 785.82187652588 127612.7576828 72202943.67235
vector 10336  IntersectionExampleScenario.node[50].veinsmobility  posx  ETV
vector 10337  IntersectionExampleScenario.node[50].veinsmobility  posy  ETV
vector 10338  IntersectionExampleScenario.node[50].veinsmobility  speed  ETV
10235	1343554 7262 11523 16765 155.75 213 230 0.973 11.90022389248 618.38720062029 3127.2829996555
10234	1350816 6492 11523 16765 155.75 213 230 -4.5 2.5 39.869146347046 490.83104068329
10233	1357308 6962 11500 16765 155.5 213 231 -0.056922376155853 16 2298.8962544799 32979.87679273
10232	1364270 8110 11477 16765 155.25 213 232 236.71307373047 486.85000610352 104727.50979614 48352938.920146
10231	1372380 8035 11477 16765 155.25 213 232 482.87451171875 808.82032012939 129441.99330902 74631996.320027
vector 10339  IntersectionExampleScenario.node[50].veinsmobility  acceleration  ETV
vector 10340  IntersectionExampleScenario.node[50].veinsmobility  co2emission  ETV
10256	1380584 5000 13389 16982 177.75 215 150 0.973 12.553400930962 561.81667636607 3872.9594605342
10255	1385584 4732 13389 16982 177.75 215 150 -3.2850341796875 2.5 42.754949569702 318.68687769585
10254	1390316 5032 13368 16982 177.5 215 151 5.6500000953674 16.89999961853 2215.5843429565 33463.422922701
10253	1395348 5320 13347 16982 177.25 215 152 486.85000610352 486.85000610352 74001.200927734 36027485.123335
10252	1400668 5272 13347 16982 177.25 215 152 237.32952880859 785.82187652588 79713.390724182 45741511.557951
vector 10343  IntersectionExampleScenario.node[51].veinsmobility  posx  ETV
vector 10344  IntersectionExampleScenario.node[51].veinsmobility  posy  ETV
vector 10345  IntersectionExampleScenario.node[51].veinsmobility  speed  ETV
vector 10346  IntersectionExampleScenario.node[51].veinsmobility  acceleration  ETV
vector 10347  IntersectionExampleScenario.node[51].veinsmobility  co2emission  ETV
vector 10350  IntersectionExampleScenario.node[52].veinsmobility  posx  ETV
vector 10351  IntersectionExampleScenario.node[52].veinsmobility  posy  ETV
vector 10352  IntersectionExampleScenario.node[52].veinsmobility  speed  ETV
vector 10353  IntersectionExampleScenario.node[52].veinsmobility  acceleration  ETV
vector 10354  IntersectionExampleScenario.node[52].veinsmobility  co2emission  ETV
vector 10357  IntersectionExampleScenario.node[53].veinsmobility  posx  ETV
vector 10358  IntersectionExampleScenario.node[53].veinsmobility  posy  ETV
vector 10359  IntersectionExampleScenario.node[53].veinsmobility  speed  ETV
vector 10360  IntersectionExampleScenario.node[53].veinsmobility  acceleration  ETV
vector 10361  IntersectionExampleScenario.node[53].veinsmobility  co2emission  ETV
10214	1407143 9395 11008 18366 149.5 228.5 317 0.973 11.450879080643 674.89303746452 2909.4037164928
10213	1416538 8394 11008 18366 149.5 228.5 317 -8.487024307251 4 37.15309715271 478.32413438468
10212	1424932 8773 10986 18366 149.25 228.5 318 0 15.375 2198.7463283539 30558.206619436
10211	1433705 11144 10963 18366 149 228.5 319 184.17810058594 486.85000610352 138540.41497803 62388849.655578
10210	1444849 11158 10963 18366 149 228.5 319 237.33026123047 486.85000610352 146778.70916748 68726777.503759
10221	1456007 9684 11354 18583 153.75 230.5 308 0.973 11.200708441096 650.4967868427 2723.2441827827
10220	1465691 9570 11354 18583 153.75 230.5 308 -3.9957911968231 2.5 35.455564498901 364.31452724544
10219	1475261 9597 11333 18583 153.5 230.5 309 0 15.02499961853 2205.7577728918 29011.283161107
10218	1484858 10813 11312 18583 153.25 230.5 310 179.81719970703 483.14999389648 132405.83297729 58760102.003863
10217	1495671 10844 11312 18583 153.25 230.5 310 486.85000610352 734.44834899902 159580.74961853 83333407.959829
vector 10364  IntersectionExampleScenario.node[54].veinsmobility  posx  ETV
vector 10365  IntersectionExampleScenario.node[54].veinsmobility  posy  ETV
10263	1506669 6845 13547 18831 179.75 233 214 0.973 11.200708441096 549.34764037586 2601.5163412991
10262	1513514 6964 13547 18831 179.75 233 214 -3.7708175182343 2.5 35.795072555542 310.44688836863
10261	1520478 7206 13527 18831 179.5 233 215 0 15.02499961853 2180.4974966235 27644.054835223
10260	1527684 7531 13506 18831 179.25 233 216 184.17810058594 483.14999389648 88344.303710938 38015703.703233
10259	1535215 7555 13506 18831 179.25 233 216 486.85000610352 732.04527282715 113607.64530945 60801008.036084
vector 10366  IntersectionExampleScenario.node[54].veinsmobility  speed  ETV
vector 10367  IntersectionExampleScenario.node[54].veinsmobility  acceleration  ETV
vector 10368  IntersectionExampleScenario.node[54].veinsmobility  co2emission  ETV
vector 10371  IntersectionExampleScenario.node[55].veinsmobility  posx  ETV
vector 10372  IntersectionExampleScenario.node[55].veinsmobility  posy  ETV
vector 10373  IntersectionExampleScenario.node[55].veinsmobility  speed  ETV
vector 10374  IntersectionExampleScenario.node[55].veinsmobility  acceleration  ETV
vector 10375  IntersectionExampleScenario.node[55].veinsmobility  co2emission  ETV
vector 10378  IntersectionExampleScenario.node[56].veinsmobility  posx  ETV
vector 10379  IntersectionExampleScenario.node[56].veinsmobility  posy  ETV
vector 10380  IntersectionExampleScenario.node[56].veinsmobility  speed  ETV
vector 10381  IntersectionExampleScenario.node[56].veinsmobility  acceleration  ETV
vector 10382  IntersectionExampleScenario.node[56].veinsmobility  co2emission  ETV
10326	1543819 5256 15696 19827 203.5 242.25 156 0.973 12.099024792222 518.02926778906 3068.4235223443
10325	1549075 5087 15696 19827 203.5 242.25 156 -3.6713790893555 2.5 40.038900375366 308.69934590054
10324	1554162 5163 15669 19827 203.25 242.25 157 5.6500000953674 16.27499961853 2179.1406936646 31754.691263935
10323	1559325 5509 15642 19827 203 242.25 158 184.17810058594 483.14999389648 62782.602081299 26663745.380586
10322	1564834 5504 15642 19827 203 242.25 158 486.85000610352 731.95555114746 84830.513977051 46435999.742494
vector 10385  IntersectionExampleScenario.node[57].veinsmobility  posx  ETV
vector 10386  IntersectionExampleScenario.node[57].veinsmobility  posy  ETV
vector 10387  IntersectionExampleScenario.node[57].veinsmobility  speed  ETV
10249	1570570 8189 13368 20089 177.5 244.5 269 0.973 11.648172402475 642.86999838432 3000.6745062362
10248	1578759 7687 13368 20089 177.5 244.5 269 -6.8118047714233 4 38.850629806519 465.12701317802
10247	1586446 7901 13347 20089 177.25 244.5 270 0 15.742227554321 2217.4580647945 31523.487255588
10246	1594347 9484 13328 20089 177 244.5 271 483.14999389648 483.14999389648 130933.64834595 63260591.399189
10245	1603831 9445 13328 20089 177 244.5 271 184.17810058594 734.38723754883 124278.55865479 61169303.861887
vector 10388  IntersectionExampleScenario.node[57].veinsmobility  acceleration  ETV
vector 10389  IntersectionExampleScenario.node[57].veinsmobility  co2emission  ETV
10298	1613445 7033 14425 20316 192 246.5 219 0.973 11.648172402475 579.00486136655 2845.5787507743
10297	1620478 7520 14425 20316 192 246.5 219 -3.9498529434204 2.5000009536743 38.511121749878 324.67492601758
10296	1627998 7642 14398 20316 191.75 246.5 220 0 15.64999961853 2219.8088754117 29679.483844419
10295	1635640 7735 14373 20316 191.5 246.5 221 483.14999389648 483.14999389648 106776.14865112 51588895.56908
10294	1643375 7695 14373 20316 191.5 246.5 221 184.17810058594 734.23983764648 99618.84413147 49076356.148303
10305	1651070 7367 14452 20554 192.25 248.75 227 0.973 10.925685528314 594.54925933052 2661.9433142168
10304	1658437 7812 14452 20554 192.25 248.75 227 -4.5 2.5 37.32285118103 382.67379219773
10303	1666249 7862 14425 20554 192 248.75 228 0.71456545591354 15.233199119568 2312.7393981814 29878.232444293
10302	1674111 8016 14398 20554 191.75 248.75 229 483.14999389648 483.14999389648 110641.34860229 53456366.901897
10301	1682127 7991 14398 20554 191.75 248.75 229 159.76721191406 733.07327270508 100040.020401 48549905.531807
vector 10392  IntersectionExampleScenario.node[58].veinsmobility  posx  ETV
vector 10393  IntersectionExampleScenario.node[58].veinsmobility  posy  ETV
vector 10394  IntersectionExampleScenario.node[58].veinsmobility  speed  ETV
vector 10395  IntersectionExampleScenario.node[58].veinsmobility  acceleration  ETV
vector 10396  IntersectionExampleScenario.node[58].veinsmobility  co2emission  ETV
10277	1690519 8611 14163 21657 189 260.25 286 0.973 11.648172402475 654.83616147086 3016.2972109088
10276	1699130 7782 14163 21657 189 260.25 286 -7.03919506073 4 38.341367721558 478.13103295482
10275	1706912 8091 14144 21657 188.75 260.25 287 0 15.64999961853 2200.0624997616 31109.684844129
10274	1715003 10075 14125 21657 188.5 260.25 288 483.14999389648 785.82187652588 155274.03551483 85871831.405452
10273	1725078 10076 14125 21657 188.5 260.25 288 483.14999389648 732.70495605469 147522.14703369 76714261.123424
10284	1735154 8796 14205 21773 189.5 261.5 289 0.973 11.648172402475 680.15302508436 3062.7499326881
10283	1743950 8028 14205 21773 189.5 261.5 289 -4.5 2.5 40.378400802612 470.31173328011
10282	1751978 8477 14184 21773 189.25 261.5 290 0 15.787870407104 2295.5141741671 32999.985704358
10281	1760455 10172 14163 21773 189 261.5 291 483.14999389648 809.56562805176 159182.79789734 89632979.096283
10280	1770627 10178 14163 21773 189 261.5 291 483.14999389648 731.72653198242 148653.43759155 77047903.204093
10291	1780805 9341 14425 22036 192 264.5 291 0.973 11.810082123732 676.37673437461 3158.5261671065
10290	1790146 9323 14425 22036 192 264.5 291 -4.5 2.5000000596046 39.359884262085 426.21803059108
10289	1799469 9316 14398 22036 191.75 264.5 292 0 15.875 2296.6502513727 31871.932741379
10288	1808785 10232 14373 22036 191.5 264.5 293 486.85000610352 813.28751373291 161770.67806244 91862172.549762
10287	1819017 10246 14373 22036 191.5 264.5 293 236.06884765625 483.14999389648 133450.24884033 61887798.846811
vector 10399  IntersectionExampleScenario.node[59].veinsmobility  posx  ETV
vector 10400  IntersectionExampleScenario.node[59].veinsmobility  posy  ETV
vector 10406  IntersectionExampleScenario.node[60].veinsmobility  posx  ETV
vector 10407  IntersectionExampleScenario.node[60].veinsmobility  posy  ETV
vector 10401  IntersectionExampleScenario.node[59].veinsmobility  speed  ETV
vector 10402  IntersectionExampleScenario.node[59].veinsmobility  acceleration  ETV
vector 10403  IntersectionExampleScenario.node[59].veinsmobility  co2emission  ETV
vector 10408  IntersectionExampleScenario.node[60].veinsmobility  speed  ETV
vector 10409  IntersectionExampleScenario.node[60].veinsmobility  acceleration  ETV
vector 10410  IntersectionExampleScenario.node[60].veinsmobility  co2emission  ETV
10354	1830065 5137 18281 22188 227.75 266.25 155 0.973 12.099024792222 551.64653854529 3612.4932849127
10353	1835202 4886 18281 22188 227.75 266.25 155 -3.3584480285645 2.5 40.038900375366 311.01730072531
10352	1840088 5203 18254 22188 227.5 266.25 156 5.6500000953674 16.27499961853 2217.4240198135 32323.900942346
10351	1845291 5477 18227 22188 227.25 266.25 157 236.95843505859 785.82187652588 82157.418434143 47055938.334858
10350	1850768 5496 18227 22188 227.25 266.25 157 483.14999389648 483.14999389648 75854.549041748 36649124.906541
vector 10413  IntersectionExampleScenario.node[61].veinsmobility  posx  ETV
vector 10414  IntersectionExampleScenario.node[61].veinsmobility  posy  ETV
vector 10415  IntersectionExampleScenario.node[61].veinsmobility  speed  ETV
vector 10416  IntersectionExampleScenario.node[61].veinsmobility  acceleration  ETV
vector 10417  IntersectionExampleScenario.node[61].veinsmobility  co2emission  ETV
vector 10420  IntersectionExampleScenario.node[62].veinsmobility  posx  ETV
vector 10421  IntersectionExampleScenario.node[62].veinsmobility  posy  ETV
vector 10422  IntersectionExampleScenario.node[62].veinsmobility  speed  ETV
vector 10423  IntersectionExampleScenario.node[62].veinsmobility  acceleration  ETV
vector 10424  IntersectionExampleScenario.node[62].veinsmobility  co2emission  ETV
vector 10427  IntersectionExampleScenario.node[63].veinsmobility  posx  ETV
vector 10428  IntersectionExampleScenario.node[63].veinsmobility  posy  ETV
vector 10429  IntersectionExampleScenario.node[63].veinsmobility  speed  ETV
vector 10430  IntersectionExampleScenario.node[63].veinsmobility  acceleration  ETV
vector 10431  IntersectionExampleScenario.node[63].veinsmobility  co2emission  ETV
vector 10434  IntersectionExampleScenario.node[64].veinsmobility  posx  ETV
vector 10435  IntersectionExampleScenario.node[64].veinsmobility  posy  ETV
vector 10436  IntersectionExampleScenario.node[64].veinsmobility  speed  ETV
vector 10437  IntersectionExampleScenario.node[64].veinsmobility  acceleration  ETV
vector 10438  IntersectionExampleScenario.node[64].veinsmobility  co2emission  ETV
10270	1857868 10455 14091 23151 188 276.75 356 0.973 11.200708441096 708.83294696584 2850.7676131508
10269	1868323 9060 14091 23151 188 276.75 356 -41.794536590576 4 35.795072555542 2054.2701867597
10268	1877383 9571 14074 23151 187.75 276.75 357 0 15.02499961853 2205.9647474289 30707.667236791
10267	1886954 12531 14057 23151 187.5 276.75 358 486.85000610352 486.85000610352 174292.30218506 84854208.382592
10266	1899485 12521 14057 23151 187.5 276.75 358 238.29931640625 785.82187652588 182070.09253693 96876930.978891
10312	1912006 10673 14510 23363 192.75 279 346 0.973 11.200708441096 719.02356742808 2919.8143284848
10311	1922679 10065 14510 23363 192.75 279 346 -4.5 2.5000009536743 38.001859664917 405.41170975723
10310	1932744 10586 14481 23363 192.5 279 347 0 15.16871547699 2220.827292908 30631.553633876
10309	1943330 12180 14452 23363 192.25 279 348 486.85000610352 486.85000610352 169423.80212402 82483979.098162
10308	1955510 12141 14452 23363 192.25 279 348 235.14270019531 785.82187652588 178338.05895233 95609625.718937
10319	1967651 10946 14717 23578 194.5 281.5 349 0.973 11.450879080643 713.42684572808 2950.718461415
10318	1978597 11018 14717 23578 194.5 281.5 349 -4.5 2.5000004768372 37.32285118103 374.08156256451
10317	1989615 11146 14686 23578 194.25 281.5 350 0 15.375 2284.0655436479 29653.182500325
10316	2000761 12277 14655 23578 194 281.5 351 236.86450195312 486.85000610352 162343.83499146 76302166.554303
10315	2013038 12260 14655 23578 194 281.5 351 483.14999389648 805.05782318115 191609.53622437 107076584.40223
vector 10441  IntersectionExampleScenario.node[65].veinsmobility  posx  ETV
vector 10442  IntersectionExampleScenario.node[65].veinsmobility  posy  ETV
vector 10443  IntersectionExampleScenario.node[65].veinsmobility  speed  ETV
vector 10444  IntersectionExampleScenario.node[65].veinsmobility  acceleration  ETV
vector 10445  IntersectionExampleScenario.node[65].veinsmobility  co2emission  ETV
10340	2025699 9215 16793 23848 213.25 284.5 286 0.973 11.36141391502 648.11945760509 2929.0260534741
10339	2034914 9685 16793 23848 213.25 284.5 286 -3.7908248901367 2.5 36.98334312439 363.53530009916
10338	2044599 9653 16765 23848 213 284.5 287 0 15.25 2186.3726115758 27845.005451706
10337	2054252 10068 16736 23848 212.75 284.5 288 486.85000610352 733.49607849121 148599.44271851 77803897.076719
10336	2064320 10062 16736 23848 212.75 284.5 288 486.85000610352 785.82187652588 158733.51026154 89442484.256438
10375	2074382 6717 18985 24032 234.5 286.5 209 0.973 11.200708441096 555.82440501828 2681.5612194394
10374	2081099 6778 18985 24032 234.5 286.5 209 -4.3331432342529 2.5 36.643835067749 349.81481250125
10373	2087877 7101 18958 24032 234.25 286.5 210 0 15.02499961853 2223.1160999089 28767.424409104
10372	2094978 7384 18931 24032 234 286.5 211 486.85000610352 486.85000610352 102725.35128784 50011837.901471
10371	2102362 7368 18931 24032 234 286.5 211 235.40533447266 785.82187652588 110546.9454422 62198260.502399
vector 10448  IntersectionExampleScenario.node[66].veinsmobility  posx  ETV
vector 10449  IntersectionExampleScenario.node[66].veinsmobility  posy  ETV
vector 10450  IntersectionExampleScenario.node[66].veinsmobility  speed  ETV
vector 10451  IntersectionExampleScenario.node[66].veinsmobility  acceleration  ETV
vector 10452  IntersectionExampleScenario.node[66].veinsmobility  co2emission  ETV
vector 10455  IntersectionExampleScenario.node[67].veinsmobility  posx  ETV
vector 10456  IntersectionExampleScenario.node[67].veinsmobility  posy  ETV
vector 10462  IntersectionExampleScenario.node[68].veinsmobility  posx  ETV
vector 10463  IntersectionExampleScenario.node[68].veinsmobility  posy  ETV
vector 10457  IntersectionExampleScenario.node[67].veinsmobility  speed  ETV
vector 10458  IntersectionExampleScenario.node[67].veinsmobility  acceleration  ETV
vector 10459  IntersectionExampleScenario.node[67].veinsmobility  co2emission  ETV
vector 10464  IntersectionExampleScenario.node[68].veinsmobility  speed  ETV
vector 10465  IntersectionExampleScenario.node[68].veinsmobility  acceleration  ETV
vector 10466  IntersectionExampleScenario.node[68].veinsmobility  co2emission  ETV
10333	2110933 9856 16159 24586 207.75 292 338 0.973 11.810082123732 726.54586056481 3370.4114436989
10332	2120789 8913 16159 24586 207.75 292 338 -7.6779537200928 4 39.869146347046 502.24035505614
10331	2129702 9130 16130 24586 207.5 292 339 0 16.205087661743 2200.4197585583 31555.303108557
10330	2138832 11876 16101 24586 207.25 292 340 179.81719970703 483.36395263672 148147.82003784 66828025.39388
10329	2150708 11830 16101 24586 207.25 292 340 486.85000610352 734.37205505371 173603.7624054 89777603.212645
vector 10469  IntersectionExampleScenario.node[69].veinsmobility  posx  ETV
vector 10470  IntersectionExampleScenario.node[69].veinsmobility  posy  ETV
vector 10471  IntersectionExampleScenario.node[69].veinsmobility  speed  ETV
vector 10476  IntersectionExampleScenario.node[70].veinsmobility  posx  ETV
vector 10477  IntersectionExampleScenario.node[70].veinsmobility  posy  ETV
vector 10472  IntersectionExampleScenario.node[69].veinsmobility  acceleration  ETV
vector 10473  IntersectionExampleScenario.node[69].veinsmobility  co2emission  ETV
vector 10478  IntersectionExampleScenario.node[70].veinsmobility  speed  ETV
10347	2163171 8914 17993 24831 225 294.25 278 0.973 11.200708441096 621.05404563498 2707.7068963257
10346	2172085 9316 17993 24831 225 294.25 278 -3.877375125885 2.5 35.795072555542 326.37580147681
10345	2181401 9267 17966 24831 224.75 294.25 279 0 15.02499961853 2209.1660832511 28361.583104147
10344	2190668 9764 17939 24831 224.5 294.25 280 184.17810058594 486.86560058594 118667.01065063 52378536.711154
10343	2200432 9788 17939 24831 224.5 294.25 280 236.03857421875 486.85000610352 127509.09091187 59262885.04947
vector 10479  IntersectionExampleScenario.node[70].veinsmobility  acceleration  ETV
vector 10480  IntersectionExampleScenario.node[70].veinsmobility  co2emission  ETV
10361	2210389 8729 18366 25005 228.5 295.75 270 0.973 11.200708441096 639.14889805553 2801.0243541713
10360	2219118 9201 18366 25005 228.5 295.75 270 -4.5 2.5 38.680875778198 373.30237378771
10359	2228319 9220 18337 25005 228.25 295.75 271 0 15.378986358643 2241.4879504871 29171.476972949
10358	2237539 9479 18308 25005 228 295.75 272 174.53436279297 486.87518310547 113179.60159302 49234283.411432
10357	2247018 9513 18308 25005 228 295.75 272 237.75524902344 486.85000610352 124111.07998657 57754974.62413
vector 10483  IntersectionExampleScenario.node[71].veinsmobility  posx  ETV
vector 10484  IntersectionExampleScenario.node[71].veinsmobility  posy  ETV
vector 10485  IntersectionExampleScenario.node[71].veinsmobility  speed  ETV
vector 10486  IntersectionExampleScenario.node[71].veinsmobility  acceleration  ETV
vector 10487  IntersectionExampleScenario.node[71].veinsmobility  co2emission  ETV
vector 10490  IntersectionExampleScenario.node[72].veinsmobility  posx  ETV
vector 10491  IntersectionExampleScenario.node[72].veinsmobility  posy  ETV
vector 10497  IntersectionExampleScenario.node[73].veinsmobility  posx  ETV
vector 10498  IntersectionExampleScenario.node[73].veinsmobility  posy  ETV
vector 10492  IntersectionExampleScenario.node[72].veinsmobility  speed  ETV
vector 10499  IntersectionExampleScenario.node[73].veinsmobility  speed  ETV
vector 10493  IntersectionExampleScenario.node[72].veinsmobility  acceleration  ETV
vector 10494  IntersectionExampleScenario.node[72].veinsmobility  co2emission  ETV
vector 10500  IntersectionExampleScenario.node[73].veinsmobility  acceleration  ETV
vector 10501  IntersectionExampleScenario.node[73].veinsmobility  co2emission  ETV
vector 10504  IntersectionExampleScenario.node[74].veinsmobility  posx  ETV
vector 10505  IntersectionExampleScenario.node[74].veinsmobility  posy  ETV
vector 10506  IntersectionExampleScenario.node[74].veinsmobility  speed  ETV
vector 10507  IntersectionExampleScenario.node[74].veinsmobility  acceleration  ETV
vector 10508  IntersectionExampleScenario.node[74].veinsmobility  co2emission  ETV
vector 10511  IntersectionExampleScenario.node[75].veinsmobility  posx  ETV
vector 10512  IntersectionExampleScenario.node[75].veinsmobility  posy  ETV
vector 10513  IntersectionExampleScenario.node[75].veinsmobility  speed  ETV
vector 10514  IntersectionExampleScenario.node[75].veinsmobility  acceleration  ETV
vector 10515  IntersectionExampleScenario.node[75].veinsmobility  co2emission  ETV
10368	2258536 8968 18881 26386 233.5 308.25 300 0.973 11.648172402475 669.67491236005 3053.1074585118
10367	2267504 8089 18881 26386 233.5 308.25 300 -7.0929417610168 4 38.341367721558 482.03536989279
10366	2275593 8414 18856 26386 233.25 308.25 301 0 15.64999961853 2212.6930657625 31413.159395651
10365	2284007 10569 18831 26386 233 308.25 302 483.14999389648 483.14999389648 145911.29815674 70497042.813856
10364	2294576 10536 18831 26386 233 308.25 302 184.17810058594 733.41819763184 138820.0521698 67993626.982034
10382	2305112 8650 19827 26531 242.25 309.5 270 0.973 11.810082123732 634.1787859825 3061.3237254057
10381	2313762 9161 19827 26531 242.25 309.5 270 -3.8907828330994 2.5 38.850629806519 348.04690207038
10380	2322923 8992 19798 26531 242 309.5 271 0 15.875 2177.7715795971 28864.970672763
10379	2331915 9510 19769 26531 241.75 309.5 272 238.59515380859 483.14999389648 123415.05990601 57062869.9591
10378	2341425 9482 19769 26531 241.75 309.5 272 184.17810058594 483.14999389648 114952.04748535 50584148.688402
vector 10518  IntersectionExampleScenario.node[76].veinsmobility  posx  ETV
vector 10519  IntersectionExampleScenario.node[76].veinsmobility  posy  ETV
vector 10520  IntersectionExampleScenario.node[76].veinsmobility  speed  ETV
vector 10521  IntersectionExampleScenario.node[76].veinsmobility  acceleration  ETV
vector 10522  IntersectionExampleScenario.node[76].veinsmobility  co2emission  ETV
10389	2351308 8729 20118 26831 244.75 312.25 271 0.973 11.648172402475 641.08436217026 2990.3982511495
10388	2360037 9038 20118 26831 244.75 312.25 271 -4.5 2.5000019073486 38.171613693237 395.80138287829
10387	2369075 9180 20089 26831 244.5 312.25 272 0 15.64999961853 2265.8090950735 29355.452680043
10386	2378255 9537 20059 26831 244.25 312.25 273 483.14999389648 732.0044708252 140255.9778595 73186991.804054
10385	2387792 9506 20059 26831 244.25 312.25 273 168.58435058594 486.85000610352 113100.63259888 49109528.969803
10417	2397298 6038 22371 27094 268.25 314.75 187 0.973 11.810082123732 560.22865089234 3101.9394588443
10416	2403336 6106 22371 27094 268.25 314.75 187 -2.8937721252441 2.5000019073486 38.511121749878 347.75343594331
10415	2409442 6228 22348 27094 268 314.75 188 3.5640866756439 15.875 2191.5022130013 28767.696006663
10414	2415670 6613 22325 27094 267.75 314.75 189 235.22424316406 483.14999389648 83049.867156982 37494310.680424
10413	2422283 6589 22325 27094 267.75 314.75 189 184.17810058594 483.14999389648 76066.925384521 32393906.763512
vector 10525  IntersectionExampleScenario.node[77].veinsmobility  posx  ETV
vector 10526  IntersectionExampleScenario.node[77].veinsmobility  posy  ETV
vector 10532  IntersectionExampleScenario.node[78].veinsmobility  posx  ETV
vector 10533  IntersectionExampleScenario.node[78].veinsmobility  posy  ETV
vector 10527  IntersectionExampleScenario.node[77].veinsmobility  speed  ETV
10424	2429258 5573 22789 27146 273 315.25 170 0.973 11.648172402475 531.15367091473 2940.2739746703
10423	2434831 5454 22789 27146 273 315.25 170 -4.5 2.5 39.699392318726 318.17436304622
10422	2440285 5755 22766 27146 272.75 315.25 171 5.6500000953674 15.64999961853 2216.2846531868 30575.032653585
10421	2446040 6020 22743 27146 272.5 315.25 172 483.14999389648 483.14999389648 83101.798950195 40150633.655574
10420	2452060 5896 22743 27146 272.5 315.25 172 184.17810058594 732.90238952637 76611.927337646 38212778.408162
vector 10539  IntersectionExampleScenario.node[79].veinsmobility  posx  ETV
vector 10540  IntersectionExampleScenario.node[79].veinsmobility  posy  ETV
vector 10528  IntersectionExampleScenario.node[77].veinsmobility  acceleration  ETV
vector 10529  IntersectionExampleScenario.node[77].veinsmobility  co2emission  ETV
vector 10534  IntersectionExampleScenario.node[78].veinsmobility  speed  ETV
vector 10535  IntersectionExampleScenario.node[78].veinsmobility  acceleration  ETV
vector 10536  IntersectionExampleScenario.node[78].veinsmobility  co2emission  ETV
vector 10541  IntersectionExampleScenario.node[79].veinsmobility  speed  ETV
vector 10542  IntersectionExampleScenario.node[79].veinsmobility  acceleration  ETV
vector 10543  IntersectionExampleScenario.node[79].veinsmobility  co2emission  ETV
10431	2458773 5619 22954 27392 274.75 317.25 171 0.973 11.648172402475 540.79408397749 2963.3389767347
10430	2464392 5609 22954 27392 274.75 317.25 171 -3.1645698547363 2.5 41.057416915894 263.75825418672
10429	2470001 5730 22929 27392 274.5 317.25 172 5.6500000953674 15.954209327698 2285.7871699333 31968.95171605
10428	2475731 6048 22904 27392 274.25 317.25 173 483.14999389648 732.97920227051 91654.320098877 49521642.065653
10427	2481779 6023 22904 27392 274.25 317.25 173 164.94219970703 486.85000610352 67900.817199707 28710826.522161
vector 10546  IntersectionExampleScenario.node[80].veinsmobility  posx  ETV
vector 10547  IntersectionExampleScenario.node[80].veinsmobility  posy  ETV
vector 10548  IntersectionExampleScenario.node[80].veinsmobility  speed  ETV
vector 10549  IntersectionExampleScenario.node[80].veinsmobility  acceleration  ETV
vector 10550  IntersectionExampleScenario.node[80].veinsmobility  co2emission  ETV
10403	2488203 7385 22142 28255 265.75 324.5 236 0.973 11.450879080643 598.79542240935 2861.9276800658
10402	2495588 6665 22142 28255 265.75 324.5 236 -7.3439340591431 4 37.32285118103 471.71975753043
10401	2502253 7097 22119 28255 265.5 324.5 237 0 15.375 2212.9979789257 30954.471572816
10400	2509350 8316 22098 28255 265.25 324.5 238 236.18798828125 785.82187652588 122206.03517914 66981082.284824
10399	2517666 8331 22098 28255 265.25 324.5 238 483.14999389648 483.14999389648 114989.69854736 55557272.151317
10410	2525997 7563 22165 28399 266 325.75 240 0.973 11.450879080643 615.01817163786 2907.1577871744
10409	2533560 6840 22165 28399 266 325.75 240 -4.5 2.5 38.341367721558 469.3095146938
10408	2540400 7267 22142 28399 265.75 325.75 241 0 15.401762008667 2314.3839025497 32170.165710574
10407	2547667 8458 22119 28399 265.5 325.75 242 483.13302612305 810.23281097412 135395.2162323 78294740.373011
10406	2556125 8463 22119 28399 265.5 325.75 242 483.14999389648 735.41323852539 125478.94715881 66197603.622762
10438	2564588 6467 23126 28561 276.5 327.25 204 0.973 12.099024792222 580.91255252193 3084.8710622191
10437	2571055 6714 23126 28561 276.5 327.25 204 -3.7000138759613 2.5 41.227170944214 342.70088091112
10436	2577769 6889 23101 28561 276.25 327.25 205 0 16.27499961853 2211.9019722044 30060.791389939
10435	2584658 7197 23076 28561 276 327.25 206 483.14999389648 785.82187652588 115438.70883942 66531328.075295
10434	2591855 7193 23076 28561 276 327.25 206 483.14999389648 733.64987182617 107623.85067749 57257115.832521
vector 10553  IntersectionExampleScenario.node[81].veinsmobility  posx  ETV
vector 10554  IntersectionExampleScenario.node[81].veinsmobility  posy  ETV
vector 10555  IntersectionExampleScenario.node[81].veinsmobility  speed  ETV
vector 10556  IntersectionExampleScenario.node[81].veinsmobility  acceleration  ETV
vector 10557  IntersectionExampleScenario.node[81].veinsmobility  co2emission  ETV
10445	2599449 6156 23687 28851 282.75 330 190 0.973 11.648172402475 542.3218758168 2854.2163954197
10444	2605605 6126 23687 28851 282.75 330 190 -3.4045791625977 2.5 38.341367721558 298.84426769161
10443	2611731 6395 23664 28851 282.5 330 191 4.1722431182861 15.64999961853 2208.4784069061 28518.821880147
10442	2618126 6709 23641 28851 282.25 330 192 483.14999389648 785.82187652588 108960.61695099 63651700.301066
10441	2624835 6697 23641 28851 282.25 330 192 483.14999389648 732.9900970459 101166.24972534 54335430.376811
10480	2631532 5328 24860 29337 294.5 334.5 161 0.973 11.450879080643 489.9123521105 2703.3288905417
10479	2636860 5316 24860 29337 294.5 334.5 161 -3.1277618408203 2.5 36.98334312439 233.19457558275
10478	2642176 5385 24831 29337 294.25 334.5 162 5.6500000953674 15.375 2213.8627967834 31060.940493685
10477	2647561 5690 24802 29337 294 334.5 163 483.11990356445 785.82187652588 93174.132240295 55059599.109335
10476	2653251 5696 24802 29337 294 334.5 163 483.14999389648 734.81204223633 87449.145843506 47911820.809074
vector 10560  IntersectionExampleScenario.node[82].veinsmobility  posx  ETV
vector 10561  IntersectionExampleScenario.node[82].veinsmobility  posy  ETV
vector 10562  IntersectionExampleScenario.node[82].veinsmobility  speed  ETV
vector 10563  IntersectionExampleScenario.node[82].veinsmobility  acceleration  ETV
vector 10564  IntersectionExampleScenario.node[82].veinsmobility  co2emission  ETV
10396	2659348 9678 21357 29900 257.25 339.75 331 0.96333723109819 12.099024792222 711.60421379855 3319.652120233
10395	2669026 8850 21357 29900 257.25 339.75 331 -8.4486837387085 4 40.208654403687 506.65285678913
10394	2677876 8937 21332 29900 257 339.75 332 0 16.27499961853 2170.7447574139 31305.481403378
10393	2686813 11583 21307 29900 256.75 339.75 333 486.85000610352 731.43809509277 169971.10301208 87846818.768409
10392	2698396 11640 21307 29900 256.75 339.75 333 486.63604736328 785.82187652588 177729.06563568 97027457.86564
10459	2710036 6453 24470 30050 291 341.25 202 0.97223939240464 11.648172402475 561.32782003322 2905.9634793117
10458	2716489 6682 24470 30050 291 341.25 202 -3.8517127037048 2.5 38.680875778198 341.05323776345
10457	2723171 6935 24441 30050 290.75 341.25 203 0 15.64999961853 2208.5489622653 29642.903636219
10456	2730106 7140 24414 30050 290.5 341.25 204 486.85000610352 486.85000610352 99317.401245117 48352677.40237
10455	2737246 7123 24414 30050 290.5 341.25 204 238.54064941406 785.82187652588 106362.92960358 59557773.838038
vector 10567  IntersectionExampleScenario.node[83].veinsmobility  posx  ETV
vector 10568  IntersectionExampleScenario.node[83].veinsmobility  posy  ETV
vector 10574  IntersectionExampleScenario.node[84].veinsmobility  posx  ETV
vector 10575  IntersectionExampleScenario.node[84].veinsmobility  posy  ETV
vector 10569  IntersectionExampleScenario.node[83].veinsmobility  speed  ETV
vector 10576  IntersectionExampleScenario.node[84].veinsmobility  speed  ETV
vector 10581  IntersectionExampleScenario.node[85].veinsmobility  posx  ETV
vector 10582  IntersectionExampleScenario.node[85].veinsmobility  posy  ETV
vector 10570  IntersectionExampleScenario.node[83].veinsmobility  acceleration  ETV
vector 10571  IntersectionExampleScenario.node[83].veinsmobility  co2emission  ETV
vector 10577  IntersectionExampleScenario.node[84].veinsmobility  acceleration  ETV
vector 10578  IntersectionExampleScenario.node[84].veinsmobility  co2emission  ETV
vector 10583  IntersectionExampleScenario.node[85].veinsmobility  speed  ETV
vector 10584  IntersectionExampleScenario.node[85].veinsmobility  acceleration  ETV
vector 10585  IntersectionExampleScenario.node[85].veinsmobility  co2emission  ETV
10494	2745572 5487 25792 30386 303.25 344.25 165 0.97223939240464 11.648172402475 557.5935542359 3378.465399899
10493	2751059 5118 25792 30386 303.25 344.25 165 -3.4473037719727 2.5 38.680875778198 338.50937818163
10492	2756177 5523 25765 30386 303 344.25 166 5.6500000953674 15.64999961853 2210.3416757584 30606.718122098
10491	2761700 5838 25738 30386 302.75 344.25 167 236.17340087891 486.85000610352 72890.931762695 32795286.261684
10490	2767538 5837 25738 30386 302.75 344.25 167 483.14999389648 785.82187652588 95381.810462952 56254681.288133
vector 10588  IntersectionExampleScenario.node[86].veinsmobility  posx  ETV
vector 10589  IntersectionExampleScenario.node[86].veinsmobility  posy  ETV
vector 10590  IntersectionExampleScenario.node[86].veinsmobility  speed  ETV
vector 10591  IntersectionExampleScenario.node[86].veinsmobility  acceleration  ETV
vector 10592  IntersectionExampleScenario.node[86].veinsmobility  co2emission  ETV
vector 10595  IntersectionExampleScenario.node[87].veinsmobility  posx  ETV
vector 10596  IntersectionExampleScenario.node[87].veinsmobility  posy  ETV
vector 10597  IntersectionExampleScenario.node[87].veinsmobility  speed  ETV
10536	2774008 5356 27206 31523 315.75 354.75 157 0.973 11.648172402475 489.93848290835 2630.9394071346
10535	2779364 4923 27206 31523 315.75 354.75 157 -3.2447280883789 2.5 38.341367721558 231.96890981277
10534	2784287 5248 27175 31523 315.5 354.75 158 5.6500000953674 15.64999961853 2204.4889039993 31683.154117764
10533	2789535 5553 27146 31523 315.25 354.75 159 237.70812988281 486.85000610352 69056.387145996 30939670.996897
10532	2795088 5558 27146 31523 315.25 354.75 159 483.14999389648 785.82187652588 90941.229881287 53788234.538224
vector 10598  IntersectionExampleScenario.node[87].veinsmobility  acceleration  ETV
vector 10599  IntersectionExampleScenario.node[87].veinsmobility  co2emission  ETV
10466	2800815 7891 24499 31667 291.25 356 260 0.973 12.099024792222 643.44169094499 3239.660121067
10465	2808706 7285 24499 31667 291.25 356 260 -7.8777389526367 4 40.038900375366 507.63096320897
10464	2815991 7462 24470 31667 291 356 261 0 16.27499961853 2184.4825298786 31478.340064468
10463	2823453 9147 24441 31667 290.75 356 262 184.17810058594 483.36395263672 111790.03405762 49758924.721878
10462	2832600 9097 24441 31667 290.75 356 262 486.85000610352 734.86784362793 135641.36338806 71305866.380228
10487	2841697 7747 25228 31828 297.75 357.5 240 0.973 11.648172402475 601.33548479585 2936.9011987374
10486	2849444 7925 25228 31828 297.75 357.5 240 -3.9354224205017 2.5 38.850629806519 345.51825859389
10485	2857369 8199 25199 31828 297.5 357.5 241 0 15.64999961853 2206.8443383258 29669.555324619
10484	2865568 8430 25170 31828 297.25 357.5 242 184.17810058594 487.06069946289 101372.09371948 44444975.981073
10483	2873998 8469 25170 31828 297.25 357.5 242 237.00512695312 486.85000610352 109486.0569458 50633547.886303
vector 10602  IntersectionExampleScenario.node[88].veinsmobility  posx  ETV
vector 10603  IntersectionExampleScenario.node[88].veinsmobility  posy  ETV
vector 10604  IntersectionExampleScenario.node[88].veinsmobility  speed  ETV
vector 10605  IntersectionExampleScenario.node[88].veinsmobility  acceleration  ETV
vector 10606  IntersectionExampleScenario.node[88].veinsmobility  co2emission  ETV
10529	2882868 5916 27175 32117 315.5 360.25 180 0.973 11.450879080643 524.00863505021 2690.2554289883
10528	2888784 5892 27175 32117 315.5 360.25 180 -2.0403442382812 2.5 37.15309715271 263.10014495869
10527	2894676 6044 27146 32117 315.25 360.25 181 4.5417461395264 15.375 2207.3155260086 29076.301383386
10526	2900720 6343 27119 32117 315 360.25 182 184.17810058594 486.85000610352 73182.670532227 31251242.858054
10525	2907063 6364 27119 32117 315 360.25 182 237.34399414062 486.85000610352 80075.9559021 36250572.771613
10550	2913427 5354 27952 32356 322 362.75 164 0.973 11.810082123732 545.95848645708 3243.1106336506
10549	2918781 5296 27952 32356 322 362.75 164 -3.1717510223389 2.5 39.869146347046 327.30240764425
10548	2924077 5464 27921 32356 321.75 362.75 165 5.6500000953674 15.875 2188.9885382652 30480.183451088
10547	2929541 5791 27890 32356 321.5 362.75 166 184.17810058594 483.14999389648 65983.430908203 27962053.381532
10546	2935332 5805 27890 32356 321.5 362.75 166 486.85000610352 734.24996948242 88881.310440063 48523379.367708
vector 10609  IntersectionExampleScenario.node[89].veinsmobility  posx  ETV
vector 10610  IntersectionExampleScenario.node[89].veinsmobility  posy  ETV
vector 10611  IntersectionExampleScenario.node[89].veinsmobility  speed  ETV
vector 10612  IntersectionExampleScenario.node[89].veinsmobility  acceleration  ETV
vector 10613  IntersectionExampleScenario.node[89].veinsmobility  co2emission  ETV
vector 10616  IntersectionExampleScenario.node[90].veinsmobility  posx  ETV
vector 10617  IntersectionExampleScenario.node[90].veinsmobility  posy  ETV
vector 10618  IntersectionExampleScenario.node[90].veinsmobility  speed  ETV
vector 10619  IntersectionExampleScenario.node[90].veinsmobility  acceleration  ETV
vector 10620  IntersectionExampleScenario.node[90].veinsmobility  co2emission  ETV
vector 10623  IntersectionExampleScenario.node[91].veinsmobility  posx  ETV
vector 10624  IntersectionExampleScenario.node[91].veinsmobility  posy  ETV
vector 10625  IntersectionExampleScenario.node[91].veinsmobility  speed  ETV
vector 10626  IntersectionExampleScenario.node[91].veinsmobility  acceleration  ETV
vector 10627  IntersectionExampleScenario.node[91].veinsmobility  co2emission  ETV
vector 10630  IntersectionExampleScenario.node[92].veinsmobility  posx  ETV
vector 10631  IntersectionExampleScenario.node[92].veinsmobility  posy  ETV
vector 10632  IntersectionExampleScenario.node[92].veinsmobility  speed  ETV
vector 10633  IntersectionExampleScenario.node[92].veinsmobility  acceleration  ETV
vector 10634  IntersectionExampleScenario.node[92].veinsmobility  co2emission  ETV
vector 10637  IntersectionExampleScenario.node[93].veinsmobility  posx  ETV
vector 10638  IntersectionExampleScenario.node[93].veinsmobility  posy  ETV
vector 10639  IntersectionExampleScenario.node[93].veinsmobility  speed  ETV
vector 10640  IntersectionExampleScenario.node[93].veinsmobility  acceleration  ETV
vector 10641  IntersectionExampleScenario.node[93].veinsmobility  co2emission  ETV
10452	2943142 9700 24289 33368 289.25 371.75 331 0.973 11.90022389248 709.82474187531 3206.8767679248
10451	2952842 8629 24289 33368 289.25 371.75 331 -6.9388580322266 4 39.869146347046 483.42859174969
10450	2961471 8975 24264 33368 289 371.75 332 0 16 2191.2483115196 31583.956053731
10449	2970446 11651 24239 33368 288.75 371.75 333 483.14999389648 735.15585327148 169222.38641357 87185777.827185
10448	2982097 11633 24239 33368 288.75 371.75 333 184.17810058594 486.85000610352 145440.90719604 65726209.620726
10473	2993730 9746 24802 33528 294 373 317 0.973 11.990504229548 695.98409606863 3195.7963166223
10472	3003476 9807 24802 33528 294 373 317 -3.6745290756226 2.5 40.038900375366 390.00009883772
10471	3013283 9701 24775 33528 293.75 373 318 0 16.125 2221.3359685419 31411.273647238
10470	3022984 11164 24748 33528 293.5 373 319 483.14999389648 483.14999389648 154124.84805298 74465419.396093
10469	3034148 11106 24748 33528 293.5 373 319 184.17810058594 734.57038879395 145611.77217102 70580135.390893
10515	3045254 8934 26076 33790 305.75 375.25 279 0.97223939240464 11.648172402475 643.25258433951 2974.5430997902
10514	3054188 9352 26076 33790 305.75 375.25 279 -3.7971229553223 2.5 38.680875778198 334.67745899008
10513	3063540 9424 26045 33790 305.5 375.25 280 0 15.64999961853 2210.9772130242 29447.922436289
10512	3072964 9836 26014 33790 305.25 375.25 281 483.14999389648 483.14999389648 135765.14828491 65594930.56521
10511	3082800 9774 26014 33790 305.25 375.25 281 184.17810058594 731.80250549316 126530.65592957 61091848.06583
vector 10644  IntersectionExampleScenario.node[94].veinsmobility  posx  ETV
vector 10645  IntersectionExampleScenario.node[94].veinsmobility  posy  ETV
vector 10646  IntersectionExampleScenario.node[94].veinsmobility  speed  ETV
10557	3092806 6099 28797 33957 329.5 376.75 190 0.973 12.099024792222 571.9059286579 3100.4249353604
10556	3098905 6252 28797 33957 329.5 376.75 190 -3.5968265533447 2.5000009536743 41.057416915894 339.83572172206
[...]
vector 13416  IntersectionExampleScenario.node[490].veinsmobility  posx  ETV
vector 13417  IntersectionExampleScenario.node[490].veinsmobility  posy  ETV
vector 13418  IntersectionExampleScenario.node[490].veinsmobility  speed  ETV
vector 13419  IntersectionExampleScenario.node[490].veinsmobility  acceleration  ETV
vector 13420  IntersectionExampleScenario.node[490].veinsmobility  co2emission  ETV
vector 13423  IntersectionExampleScenario.node[491].veinsmobility  posx  ETV
vector 13424  IntersectionExampleScenario.node[491].veinsmobility  posy  ETV
13266	20197058 7663 183050 188773 1706 1763.75 232 0.973 12.099024792222 615.67775074768 3212.9904614468
13265	20204721 7213 183050 188773 1706 1763.75 232 -8.4014987945557 4 40.378400802612 503.96524814855
13264	20211934 7329 183029 188773 1705.75 1763.75 233 0 16.27499961853 2172.8087074757 31379.634352141
13263	20219263 8634 183007 188773 1705.5 1763.75 234 184.17810058594 483.36395263672 98598.853424072 43539432.078964
13262	20227897 8588 183007 188773 1705.5 1763.75 234 486.85000610352 731.9232635498 121784.35739136 64396885.948857
vector 13430  IntersectionExampleScenario.node[492].veinsmobility  posx  ETV
vector 13431  IntersectionExampleScenario.node[492].veinsmobility  posy  ETV
vector 13425  IntersectionExampleScenario.node[491].veinsmobility  speed  ETV
vector 13426  IntersectionExampleScenario.node[491].veinsmobility  acceleration  ETV
vector 13427  IntersectionExampleScenario.node[491].veinsmobility  co2emission  ETV
vector 13432  IntersectionExampleScenario.node[492].veinsmobility  speed  ETV
vector 13433  IntersectionExampleScenario.node[492].veinsmobility  acceleration  ETV
vector 13434  IntersectionExampleScenario.node[492].veinsmobility  co2emission  ETV
13294	20237141 6408 184220 189184 1720.25 1766.75 187 0.973 11.810082123732 542.80295814464 2939.2218849911
13293	20243549 6611 184220 189184 1720.25 1766.75 187 -2.0975685119629 2.5 38.511121749878 293.46815719728
13292	20250160 6649 184200 189184 1720 1766.75 188 2.7218186855316 15.875 2191.3770005703 29110.778371874
13291	20256809 6972 184179 189184 1719.75 1766.75 189 184.17810058594 483.15219116211 76399.54776001 32682574.930544
13290	20263781 6939 184179 189184 1719.75 1766.75 189 486.85000610352 734.91188049316 100290.07069397 54219597.489924
13308	20270720 6524 184329 189283 1721.5 1767.5 185 0.973 11.648172402475 552.81555873969 2911.998502672
13307	20277244 6359 184329 189283 1721.5 1767.5 185 -4.5 2.5 38.511121749878 361.34263779097
13306	20283603 6643 184306 189283 1721.25 1767.5 186 3.6212725639343 15.64999961853 2300.916015625 31328.077618384
13305	20290246 6889 184283 189283 1721 1767.5 187 162.90466308594 732.97236633301 81655.337188721 40271816.373376
13304	20297135 6918 184283 189283 1721 1767.5 187 486.84997558594 486.85000610352 91040.95111084 44323287.589125
13315	20304053 6917 184447 189877 1722.75 1772 198 0.973 10.47384764672 541.40433194894 2497.1536269087
13314	20310970 6973 184447 189877 1722.75 1772 198 -4.0084457397461 2.5 34.877635955811 291.20733487951
13313	20317943 7063 184423 189877 1722.5 1772 199 5.2003469467163 14.121994018555 2310.4512939453 28688.513075988
13312	20325006 7373 184398 189877 1722.25 1772 200 152.23583984375 483.17504882812 77553.197174072 32519304.561736
13311	20332379 7382 184398 189877 1722.25 1772 200 486.85000610352 733.25231933594 106295.86975098 57560475.614697
vector 13437  IntersectionExampleScenario.node[493].veinsmobility  posx  ETV
vector 13438  IntersectionExampleScenario.node[493].veinsmobility  posy  ETV
vector 13439  IntersectionExampleScenario.node[493].veinsmobility  speed  ETV
vector 13440  IntersectionExampleScenario.node[493].veinsmobility  acceleration  ETV
vector 13441  IntersectionExampleScenario.node[493].veinsmobility  co2emission  ETV
13336	20340167 5508 185420 190188 1734.25 1774.25 161 0.96333723109819 12.099024792222 544.90178873859 3351.1221411823
13335	20345675 5647 185420 190188 1734.25 1774.25 161 -3.258918762207 2.5 40.208654403687 308.34363868134
13334	20351322 5690 185397 190188 1734 1774.25 162 5.6500000953674 16.27499961853 2191.015004158 31010.965503831
13333	20357012 6004 185374 190188 1733.75 1774.25 163 184.17810058594 483.16555786133 64853.721038818 27541425.412553
13332	20363016 6022 185374 190188 1733.75 1774.25 163 486.85000610352 734.88275146484 87523.741394043 47923651.312769
vector 13444  IntersectionExampleScenario.node[494].veinsmobility  posx  ETV
vector 13445  IntersectionExampleScenario.node[494].veinsmobility  posy  ETV
vector 13446  IntersectionExampleScenario.node[494].veinsmobility  speed  ETV
vector 13447  IntersectionExampleScenario.node[494].veinsmobility  acceleration  ETV
vector 13448  IntersectionExampleScenario.node[494].veinsmobility  co2emission  ETV
13350	20369444 5683 185815 190759 1738.75 1778.5 160 0.973 11.648172402475 505.9779688162 2805.7302241634
13349	20375127 5395 185815 190759 1738.75 1778.5 160 -3.6441268920898 2.5 38.341367721558 273.52438437628
13348	20380522 5634 185790 190759 1738.5 1778.5 161 5.6500000953674 15.64999961853 2184.9169788361 30990.900080157
13347	20386156 5957 185765 190759 1738.25 1778.5 162 184.17810058594 483.14999389648 64433.295227051 27371784.953861
13346	20392113 5989 185765 190759 1738.25 1778.5 162 486.85000610352 733.5650177002 87088.256210327 47747000.284721
13329	20398102 6676 185227 190990 1732 1780.25 194 0.97223939240464 11.810082123732 566.86975159457 3023.5648343661
13328	20404778 6307 185227 190990 1732 1780.25 194 -7.1630792617798 4 38.680875778198 476.878071193
13327	20411085 6499 185206 190990 1731.75 1780.25 195 0 15.875 2184.2048661709 30861.617094532
13326	20417584 7182 185184 190990 1731.5 1780.25 196 235.25335693359 483.14999389648 86457.348144531 39148751.776437
13325	20424766 7225 185184 190990 1731.5 1780.25 196 184.17810058594 483.36395263672 80479.968292236 34939150.388378
13343	20431991 6208 185765 191259 1738.25 1782.5 178 0.973 11.200708441096 509.37471681978 2582.4264482039
13342	20438199 6144 185765 191259 1738.25 1782.5 178 -2.292064666748 2.5 35.625318527222 259.36829143096
13341	20444343 6397 185742 191259 1738 1782.5 179 4.0711555480957 15.02499961853 2223.5676550865 29489.107325403
13340	20450740 6660 185719 191259 1737.75 1782.5 180 483.14999389648 483.14999389648 86966.998901367 42018104.988391
13339	20457400 6618 185719 191259 1737.75 1782.5 180 184.17810058594 734.97973632812 80908.713378906 40688719.199471
vector 13451  IntersectionExampleScenario.node[495].veinsmobility  posx  ETV
vector 13452  IntersectionExampleScenario.node[495].veinsmobility  posy  ETV
vector 13453  IntersectionExampleScenario.node[495].veinsmobility  speed  ETV
vector 13454  IntersectionExampleScenario.node[495].veinsmobility  acceleration  ETV
vector 13455  IntersectionExampleScenario.node[495].veinsmobility  co2emission  ETV
vector 13458  IntersectionExampleScenario.node[496].veinsmobility  posx  ETV
vector 13459  IntersectionExampleScenario.node[496].veinsmobility  posy  ETV
vector 13460  IntersectionExampleScenario.node[496].veinsmobility  speed  ETV
vector 13461  IntersectionExampleScenario.node[496].veinsmobility  acceleration  ETV
vector 13462  IntersectionExampleScenario.node[496].veinsmobility  co2emission  ETV
13385	20464830 5773 187260 192240 1752 1791.75 160 0.973 11.450879080643 482.04855883014 2493.3576507118
13384	20470603 5307 187260 192240 1752 1791.75 160 -3.7617034912109 2.5 36.813589096069 225.15797082146
13383	20475910 5668 187231 192240 1751.75 1791.75 161 5.6500000953674 15.375 2209.2115955353 31127.064112162
13382	20481578 5979 187201 192240 1751.5 1791.75 162 483.14999389648 734.35130310059 86955.542663574 47664312.365878
13381	20487557 5966 187201 192240 1751.5 1791.75 162 184.17810058594 487.03598022461 64506.743499756 27484212.556457
13392	20493523 5945 187409 192448 1753.25 1794 164 0.973 11.345965866673 506.7281219532 2648.8587460089
13391	20499468 5181 187409 192448 1753.25 1794 164 -4.5 2.5 36.813589096069 238.60000562793
13390	20504649 5897 187378 192448 1753 1794 165 5.6500000953674 15.228397369385 2308.6989088058 32863.184242913
13389	20510546 6141 187347 192448 1752.75 1794 166 483.14999389648 483.14999389648 80202.898986816 38750030.155961
13388	20516687 6113 187347 192448 1752.75 1794 166 162.90466308594 734.80651855469 72923.863006592 36786436.35189
13273	20522800 10990 183278 192658 1708.75 1796.5 352 0.973 11.450879080643 712.64077338733 2971.4664332731
13272	20533790 10043 183278 192658 1708.75 1796.5 352 -29.242084503174 4 36.98334312439 1229.4526617666
13271	20543833 10137 183255 192658 1708.5 1796.5 353 0 15.375 2198.3645944595 30883.537959212
13270	20553970 13087 183234 192658 1708.25 1796.5 354 483.14999389648 785.82187652588 188310.07956696 102441098.78295
13269	20567057 13091 183234 192658 1708.25 1796.5 354 483.14999389648 732.12057495117 179546.98684692 92273903.350269
13287	20580148 10412 184065 192715 1718.25 1797.25 317 0.973 12.099024792222 690.46251929772 3252.4821504055
13286	20590560 10619 184065 192715 1718.25 1797.25 317 -3.7487018108368 2.5 40.038900375366 358.4419111132
13285	20601179 10560 184046 192715 1718 1797.25 318 0 16.27499961853 2176.302227783 29264.701561232
13284	20611739 11769 184027 192715 1717.75 1797.25 319 486.85000610352 785.82187652588 172477.04434967 95314415.260579
13283	20623508 11792 184027 192715 1717.75 1797.25 319 239.04382324219 483.14999389648 146288.03994751 68163134.523241
vector 13465  IntersectionExampleScenario.node[497].veinsmobility  posx  ETV
vector 13466  IntersectionExampleScenario.node[497].veinsmobility  posy  ETV
vector 13467  IntersectionExampleScenario.node[497].veinsmobility  speed  ETV
vector 13468  IntersectionExampleScenario.node[497].veinsmobility  acceleration  ETV
vector 13469  IntersectionExampleScenario.node[497].veinsmobility  co2emission  ETV
vector 13472  IntersectionExampleScenario.node[498].veinsmobility  posx  ETV
vector 13473  IntersectionExampleScenario.node[498].veinsmobility  posy  ETV
vector 13474  IntersectionExampleScenario.node[498].veinsmobility  speed  ETV
vector 13475  IntersectionExampleScenario.node[498].veinsmobility  acceleration  ETV
vector 13476  IntersectionExampleScenario.node[498].veinsmobility  co2emission  ETV
13301	20636112 10818 184262 192931 1720.75 1800 318 0.973 11.810082123732 688.88918773234 3114.914512923
13300	20646930 11481 184262 192931 1720.75 1800 318 -4.5 2.5 38.511121749878 391.6980810069
13299	20658411 11232 184241 192931 1720.5 1800 319 0 15.875 2235.9337728415 28932.307218667
13298	20669643 11818 184220 192931 1720.25 1800 320 486.85000610352 801.41563415527 175912.67513275 99000473.22667
13297	20681461 11835 184220 192931 1720.25 1800 320 239.43023681641 483.14999389648 146619.61474609 68274258.636974
13322	20693296 8603 185016 192931 1729.5 1800 283 0.973 12.099024792222 616.71623355823 3060.5218244969
13321	20701899 7737 185016 192931 1729.5 1800 283 -9.2126445770264 4 41.185434341431 519.72506022584
13320	20709636 7909 184995 192931 1729.25 1800 284 0 16.27499961853 1470.4270665646 20730.064874355
13319	20717545 10543 184974 192931 1729 1800 285 486.85000610352 486.85000610352 138752.2517395 67551534.606253
13318	20728088 10537 184974 192931 1729 1800 285 422.61111450195 785.82187652588 153642.0970993 84957112.943355
13357	20738625 7475 186347 192931 1744 1800 225 0.973 11.450879080643 520.40156535424 2608.1982359308
13356	20746100 7914 186347 192931 1744 1800 225 -3.8792238235474 2.5 38.89999961853 335.44091002119
13355	20754014 7782 186318 192931 1743.75 1800 226 0 15.375 1377.3231588881 16394.92204412
13354	20761796 8397 186291 192931 1743.5 1800 227 444.19650268555 486.85000610352 110176.99264526 53484364.683306
13353	20770193 8347 186291 192931 1743.5 1800 227 483.13439941406 785.82187652588 127285.52017975 73180923.707409
13364	20778540 7627 186376 192931 1744.25 1800 224 0.973 11.36141391502 559.80463566661 2709.4229694547
13363	20786167 8109 186376 192931 1744.25 1800 224 -3.9527871608734 2.5 37.32285118103 317.16654500281
13362	20794276 8004 186347 192931 1744 1800 225 0 15.25 2009.6468671765 25300.511295103
13361	20802280 8336 186318 192931 1743.75 1800 226 486.84521484375 785.82187652588 126966.53401947 73151314.393392
13360	20810616 8354 186318 192931 1743.75 1800 226 280.59881591797 483.14999389648 103516.11685181 48033507.038762
13371	20818970 6677 187056 192931 1750.25 1800 200 0.96580516461648 11.200708441096 448.83714706268 2011.2236591134
13370	20825647 7201 187056 192931 1750.25 1800 200 -3.8817710876465 2.5000009536743 24.39999961853 314.47126514224
13369	20832848 7294 187026 192931 1750 1800 201 0 15.964787483215 1283.2961823661 14971.160074406
13368	20840142 7473 186997 192931 1749.75 1800 202 486.85000610352 486.85000610352 98343.70123291 47878631.545484
13367	20847615 7451 186997 192931 1749.75 1800 202 468.32467651367 785.82187652588 115571.85590363 67709903.670733
13378	20855066 6075 187085 192931 1750.5 1800 199 0.973 11.200708441096 361.51934746043 1409.3328750448
13377	20861141 5613 187085 192931 1750.5 1800 199 -8.6544380187988 2.5 -22.60000038147 324.79789032777
13376	20866754 5844 187056 192931 1750.25 1800 200 0 15.02499961853 1145.9928603172 15545.993776574
13375	20872598 7416 187026 192931 1750 1800 201 184.17810058594 471.60000610352 81620.439300537 34956540.288648
13374	20880014 7435 187026 192931 1750 1800 201 486.85000610352 486.85000610352 97856.851226807 47641608.617041
13399	20887449 6187 187475 192931 1753.75 1800 186 0.973 11.200708441096 350.56792202162 1394.6916635947
13398	20893636 6487 187475 192931 1753.75 1800 186 -4.5 2.5 -22.60000038147 260.34679555096
13397	20900123 6468 187442 192931 1753.5 1800 187 0 15.02499961853 1167.149891492 15555.200572431
13396	20906591 6921 187409 192931 1753.25 1800 188 172.9296875 465.20193481445 73800.81829834 30781509.639971
13395	20913512 6956 187409 192931 1753.25 1800 188 486.85000610352 486.85000610352 91527.801147461 44560310.547283
13406	20920468 5916 187854 192931 1756.75 1800 174 0.973 11.648172402475 525.87067634268 2939.1907382405
13405	20926384 6088 187854 192931 1756.75 1800 174 -4.5 2.5000009536743 38.511121749878 341.73963456448
13404	20932472 6184 187821 192931 1756.5 1800 175 3.0620567798615 15.64999961853 1950.7141244411 24902.744449113
13403	20938656 6497 187788 192931 1756.25 1800 176 483.14999389648 785.82187652588 101169.22899628 59837631.326668
13402	20945153 6495 187788 192931 1756.25 1800 176 483.14999389648 668.35774230957 89700.339080811 46166420.937613
13413	20951648 5796 188051 192931 1758.25 1800 168 0.973 11.36141391502 508.29588630569 2796.4183396234
13412	20957444 5872 188051 192931 1758.25 1800 168 -4.5 2.5 37.153791427612 381.98424386324
13411	20963316 5928 188018 192931 1758 1800 169 3.2384057044983 15.25 1848.4402883053 23028.444115463
13410	20969244 6275 187985 192931 1757.75 1800 170 486.85000610352 806.11563110352 100234.24140167 60972092.141851
13409	20975519 6284 187985 192931 1757.75 1800 170 341.38482666016 483.14999389648 79284.044311523 37194346.869244
13420	20981803 5101 188642 192931 1762.75 1800 150 0.973 11.00486315618 442.4669387119 2357.904902466
13419	20986904 5177 188642 192931 1762.75 1800 150 -4.5 2.5 35.972570419312 278.41972619503
13418	20992081 5321 188609 192931 1762.5 1800 151 4.9084858894348 15.05357837677 1617.2681918144 18881.507463649
13417	20997402 5616 188576 192931 1762.25 1800 152 483.12326049805 798.45293426514 91975.165740967 57361056.12657
13416	21003018 5617 188576 192931 1762.25 1800 152 483.14999389648 573.42065429688 74664.381134033 36738504.908793
13427	21008635 4908 188841 192931 1764.25 1800 144 0.973 11.450879080643 476.92036193578 2751.1820548674
13426	21013543 4884 188841 192931 1764.25 1800 144 -3.1615257263184 2.5 41.57236289978 301.94357178783
13425	21018427 5077 188806 192931 1764 1800 145 5.3338742256165 16.08655166626 1634.0593724251 20445.353222105
13424	21023504 5379 188773 192931 1763.75 1800 146 483.12115478516 762.43115997314 84372.99004364 49983462.122068
13423	21028883 5396 188773 192931 1763.75 1800 146 483.14999389648 613.07284545898 72812.506988525 36470709.029264
13434	21034279 4533 188876 192931 1764.5 1800 143 0.973 11.648172402475 321.93716075703 1512.9399850674
13433	21038812 4192 188876 192931 1764.5 1800 143 -6.9388580322266 2.5 -22.60000038147 320.5938017566
13432	21043004 4513 188841 192931 1764.25 1800 144 0 15.64999961853 1147.376349926 16386.767929833
13431	21047517 5363 188806 192931 1764 1800 145 483.14999389648 483.14999389648 70056.74911499 33847917.907315
13430	21052880 5341 188806 192931 1764 1800 145 184.17810058594 471.60000610352 55719.471679688 22897682.343717
13441	21058221 3474 190013 192931 1773 1800 109 0.973 11.648172402475 265.81500889189 1403.2142685747
13440	21061695 4049 190013 192931 1773 1800 109 -2.0935401916504 2.5 -16.972126483917 172.30170099251
13439	21065744 4044 189978 192931 1772.75 1800 110 1.4069684743881 15.64999961853 1111.1989080906 14048.947052566
13438	21069788 4106 189943 192931 1772.5 1800 111 483.14999389648 483.14999389648 53629.64932251 25911164.742841
13437	21073894 4082 189943 192931 1772.5 1800 111 184.17810058594 461.64224243164 38744.915374756 14505066.956611
13448	21077976 3050 190660 192931 1777.75 1800 90 0.973 11.200708441096 235.37343673103 1239.7881194855
13447	21081026 3321 190660 192931 1777.75 1800 90 -3.1412582397461 2.5 -3.6819915771484 169.12743677862
13446	21084347 3348 190626 192931 1777.5 1800 91 4.7295022010803 15.02499961853 1008.6413946152 12516.40793225
13445	21087695 3404 190591 192931 1777.25 1800 92 483.14999389648 483.14999389648 44449.799438477 21475920.3274
13444	21091099 3383 190591 192931 1777.25 1800 92 184.17810058594 435.11666870117 29507.954925537 10099313.417635
13455	21094482 1969 191726 192931 1786.75 1800 54 0.973 11.648172402475 209.99101567248 1343.906464832
13454	21096451 1966 191726 192931 1786.75 1800 54 -0.49953460693359 2.5 38.001893997192 100.57035722254
13453	21098417 2019 191699 192931 1786.5 1800 55 5.6500000953674 15.64999961853 758.2662191391 10855.676196923
13452	21100436 2069 191672 192931 1786.25 1800 56 601.3447265625 785.82187652588 39372.545082092 27868937.22686
13451	21102505 2072 191672 192931 1786.25 1800 56 483.14999389648 483.14999389648 27056.399658203 13072299.329722
13462	21104577 1466 192090 192931 1790.25 1800 40 0.973 11.648172402475 181.237955809 1283.5008763393
13461	21106043 1378 192090 192931 1790.25 1800 40 -0.37222290039062 2.5 38.512609481812 100.31667351441
13460	21107421 1503 192064 192931 1790 1800 41 5.6500000953674 15.64999961853 548.83222484589 7723.6740132305
13459	21108924 1549 192037 192931 1789.75 1800 42 663.3766784668 795.46562957764 31007.08013916 22964655.317386
13458	21110473 1553 192037 192931 1789.75 1800 42 483.14999389648 483.14999389648 20292.299743652 9804224.4972913
13469	21112026 294 192788 192931 1798.25 1800 8 5.2162187258585 8.1519697732254 53.421447184847 364.11653726105
13468	21112320 212 192788 192931 1798.25 1800 8 2.4999980926514 2.5 19.999998092651 49.99999046326
13467	21112532 329 192769 192931 1798 1800 9 5.6500000953674 10.64999961853 73.349998474121 621.23996916771
13466	21112861 369 192750 192931 1797.75 1800 10 486.85000610352 486.85000610352 4868.5000610352 2370229.2844299
13465	21113230 369 192750 192931 1797.75 1800 10 770.77188873291 785.82187652588 7797.0563201904 6079664.5165952
13476	21113599 183 192849 192931 1799 1800 5 5.2162187258585 6.8826618500064 30.239051553249 184.61558649684
13475	21113782 135 192849 192931 1799 1800 5 2.4999980926514 2.5 12.499998092651 31.24999046326
13474	21113917 221 192828 192931 1798.75 1800 6 5.6500000953674 8.7749996185303 43.27499961853 318.95686711311
13473	21114138 258 192807 192931 1798.5 1800 7 486.85000610352 486.85000610352 3407.9500427246 1659160.499101
13472	21114396 258 192807 192931 1798.5 1800 7 800.58595275879 808.82032012939 5638.6016387939 4542035.9325032
9982	21114654 608 0 192930 0 1800 31 0 25 534 9890
9983	21115262 625 0 192930 0 1800 31 0 234 3599 577691
