file 18729707 1591487774                                        
version 2
run nodebug-8-20200606-19:52:42-18208
attr configname nodebug
attr datetime 20200606-19:52:42
attr experiment nodebug
attr inifile omnetpp.ini
attr iterationvars ""
attr iterationvars2 $repetition=8
attr measurement ""
attr network "\"org.car2x.veins.modules.application.ExtTraCIScenarioManagerLaunchd.IntersectionExampleScenario\""
attr processid 18208
attr repetition 8
attr replication #8
attr resultdir results
attr runnumber 8
attr seedset 8
param **.coreDebug false
param **.debug false
param *.**.nic.mac1609_4.bitrate 18Mbps
param *.**.nic.mac1609_4.txPower 20mW
param *.**.nic.mac1609_4.useServiceChannel false
param *.**.nic.phy80211p.analogueModels "xmldoc(\"config.xml\")"
param *.**.nic.phy80211p.decider "xmldoc(\"config.xml\")"
param *.**.nic.phy80211p.sensitivity -89dBm
param *.**.nic.phy80211p.thermalNoise -110dBm
param *.**.nic.phy80211p.usePropagationDelay true
param *.**.nic.phy80211p.useThermalNoise true
param *.annotations.draw false
param *.connectionManager.alpha 2.0
param *.connectionManager.carrierFrequency "5.890e9 Hz"
param *.connectionManager.pMax 20mW
param *.connectionManager.sat -89dBm
param *.connectionManager.sendDirect true
param *.manager.autoShutdown true
param *.manager.host "\"localhost\""
param *.manager.launchConfig "xmldoc(\"paramics.launchd.xml\")"
param *.manager.margin 25
param *.manager.moduleDisplayString "\"\""
param *.manager.moduleName "\"node\""
param *.manager.moduleType "\"org.car2x.veins.nodes.Car\""
param *.manager.port 9999
param *.manager.updateInterval 250ms
param *.node[*0].veinsmobility.accidentCount 0
param *.node[*0].veinsmobility.accidentDuration 30s
param *.node[*0].veinsmobility.accidentStart 75s
param *.node[*].appl.LiderSelectZoneRadio 55.0
param *.node[*].appl.ShareDataZoneRadio 110.0
param *.node[*].appl.TiempoSemaforo 30.0
param *.node[*].appl.beaconInterval 1s
param *.node[*].appl.beaconPriority 3
param *.node[*].appl.dataOnSch false
param *.node[*].appl.dataPriority 2
param *.node[*].appl.debug false
param *.node[*].appl.headerLength "256 bit"
param *.node[*].appl.maxOffset 0.005s
param *.node[*].appl.sendBeacons false
param *.node[*].appl.sendData true
param *.node[*].applType "\"Dummy\""
param *.node[*].mobilityType "\"TraCIMobility\""
param *.node[*].mobilityType.debug true
param *.node[*].veinsmobility.x 0
param *.node[*].veinsmobility.y 0
param *.node[*].veinsmobility.z 1.895
param *.node[*].veinsmobilityType "\"org.car2x.veins.modules.mobility.traci.TraCIMobility\""
param *.node[*].veinsmobilityType.debug true
param *.playgroundSizeX 8500m
param *.playgroundSizeY 8500m
param *.playgroundSizeZ 50m
param *.world.use2D false
param *.world.useTorus false

vector 3516  IntersectionExampleScenario.manager  vehiclesinsim  ETV
attr type  int
vector 3517  IntersectionExampleScenario.manager  realtime  ETV
attr type  int
attr unit  s
vector 3520  IntersectionExampleScenario.node[0].veinsmobility  posx  ETV
vector 3521  IntersectionExampleScenario.node[0].veinsmobility  posy  ETV
vector 3522  IntersectionExampleScenario.node[0].veinsmobility  speed  ETV
vector 3523  IntersectionExampleScenario.node[0].veinsmobility  acceleration  ETV
vector 3524  IntersectionExampleScenario.node[0].veinsmobility  co2emission  ETV
vector 3527  IntersectionExampleScenario.node[1].veinsmobility  posx  ETV
vector 3528  IntersectionExampleScenario.node[1].veinsmobility  posy  ETV
vector 3529  IntersectionExampleScenario.node[1].veinsmobility  speed  ETV
vector 3530  IntersectionExampleScenario.node[1].veinsmobility  acceleration  ETV
vector 3531  IntersectionExampleScenario.node[1].veinsmobility  co2emission  ETV
vector 3534  IntersectionExampleScenario.node[2].veinsmobility  posx  ETV
vector 3535  IntersectionExampleScenario.node[2].veinsmobility  posy  ETV
vector 3536  IntersectionExampleScenario.node[2].veinsmobility  speed  ETV
vector 3537  IntersectionExampleScenario.node[2].veinsmobility  acceleration  ETV
vector 3538  IntersectionExampleScenario.node[2].veinsmobility  co2emission  ETV
vector 3541  IntersectionExampleScenario.node[3].veinsmobility  posx  ETV
vector 3542  IntersectionExampleScenario.node[3].veinsmobility  posy  ETV
vector 3543  IntersectionExampleScenario.node[3].veinsmobility  speed  ETV
vector 3544  IntersectionExampleScenario.node[3].veinsmobility  acceleration  ETV
vector 3545  IntersectionExampleScenario.node[3].veinsmobility  co2emission  ETV
vector 3548  IntersectionExampleScenario.node[4].veinsmobility  posx  ETV
vector 3549  IntersectionExampleScenario.node[4].veinsmobility  posy  ETV
vector 3550  IntersectionExampleScenario.node[4].veinsmobility  speed  ETV
vector 3551  IntersectionExampleScenario.node[4].veinsmobility  acceleration  ETV
vector 3552  IntersectionExampleScenario.node[4].veinsmobility  co2emission  ETV
vector 3555  IntersectionExampleScenario.node[5].veinsmobility  posx  ETV
vector 3556  IntersectionExampleScenario.node[5].veinsmobility  posy  ETV
vector 3557  IntersectionExampleScenario.node[5].veinsmobility  speed  ETV
vector 3558  IntersectionExampleScenario.node[5].veinsmobility  acceleration  ETV
vector 3559  IntersectionExampleScenario.node[5].veinsmobility  co2emission  ETV
vector 3562  IntersectionExampleScenario.node[6].veinsmobility  posx  ETV
vector 3563  IntersectionExampleScenario.node[6].veinsmobility  posy  ETV
vector 3564  IntersectionExampleScenario.node[6].veinsmobility  speed  ETV
vector 3565  IntersectionExampleScenario.node[6].veinsmobility  acceleration  ETV
vector 3566  IntersectionExampleScenario.node[6].veinsmobility  co2emission  ETV
vector 3569  IntersectionExampleScenario.node[7].veinsmobility  posx  ETV
vector 3570  IntersectionExampleScenario.node[7].veinsmobility  posy  ETV
vector 3571  IntersectionExampleScenario.node[7].veinsmobility  speed  ETV
vector 3572  IntersectionExampleScenario.node[7].veinsmobility  acceleration  ETV
vector 3573  IntersectionExampleScenario.node[7].veinsmobility  co2emission  ETV
vector 3576  IntersectionExampleScenario.node[8].veinsmobility  posx  ETV
vector 3577  IntersectionExampleScenario.node[8].veinsmobility  posy  ETV
vector 3578  IntersectionExampleScenario.node[8].veinsmobility  speed  ETV
vector 3579  IntersectionExampleScenario.node[8].veinsmobility  acceleration  ETV
vector 3580  IntersectionExampleScenario.node[8].veinsmobility  co2emission  ETV
vector 3583  IntersectionExampleScenario.node[9].veinsmobility  posx  ETV
vector 3584  IntersectionExampleScenario.node[9].veinsmobility  posy  ETV
vector 3585  IntersectionExampleScenario.node[9].veinsmobility  speed  ETV
vector 3586  IntersectionExampleScenario.node[9].veinsmobility  acceleration  ETV
vector 3587  IntersectionExampleScenario.node[9].veinsmobility  co2emission  ETV
vector 3590  IntersectionExampleScenario.node[10].veinsmobility  posx  ETV
vector 3591  IntersectionExampleScenario.node[10].veinsmobility  posy  ETV
vector 3592  IntersectionExampleScenario.node[10].veinsmobility  speed  ETV
vector 3593  IntersectionExampleScenario.node[10].veinsmobility  acceleration  ETV
vector 3594  IntersectionExampleScenario.node[10].veinsmobility  co2emission  ETV
vector 3597  IntersectionExampleScenario.node[11].veinsmobility  posx  ETV
vector 3598  IntersectionExampleScenario.node[11].veinsmobility  posy  ETV
vector 3599  IntersectionExampleScenario.node[11].veinsmobility  speed  ETV
vector 3600  IntersectionExampleScenario.node[11].veinsmobility  acceleration  ETV
vector 3601  IntersectionExampleScenario.node[11].veinsmobility  co2emission  ETV
vector 3604  IntersectionExampleScenario.node[12].veinsmobility  posx  ETV
vector 3605  IntersectionExampleScenario.node[12].veinsmobility  posy  ETV
3538	7782 4746 241 2571 12.5 51.5 157 0.973 12.099024792222 518.3957207907 2994.7957226405
3537	12528 4502 241 2571 12.5 51.5 157 -3.2577114105225 2.5 40.038900375366 290.33256701064
3536	17030 4701 234 2571 12.25 51.5 158 5.6500000953674 16.27499961853 2208.602991581 32155.202529623
3535	21731 5007 227 2571 12 51.5 159 483.14999389648 733.50421142578 85033.226821899 46420619.439586
3534	26738 4991 227 2571 12 51.5 159 184.17810058594 486.87954711914 63455.98614502 27084695.095655
vector 3611  IntersectionExampleScenario.node[13].veinsmobility  posx  ETV
vector 3612  IntersectionExampleScenario.node[13].veinsmobility  posy  ETV
vector 3606  IntersectionExampleScenario.node[12].veinsmobility  speed  ETV
vector 3607  IntersectionExampleScenario.node[12].veinsmobility  acceleration  ETV
vector 3608  IntersectionExampleScenario.node[12].veinsmobility  co2emission  ETV
vector 3613  IntersectionExampleScenario.node[13].veinsmobility  speed  ETV
vector 3614  IntersectionExampleScenario.node[13].veinsmobility  acceleration  ETV
vector 3615  IntersectionExampleScenario.node[13].veinsmobility  co2emission  ETV
vector 3618  IntersectionExampleScenario.node[14].veinsmobility  posx  ETV
vector 3619  IntersectionExampleScenario.node[14].veinsmobility  posy  ETV
vector 3620  IntersectionExampleScenario.node[14].veinsmobility  speed  ETV
vector 3621  IntersectionExampleScenario.node[14].veinsmobility  acceleration  ETV
vector 3622  IntersectionExampleScenario.node[14].veinsmobility  co2emission  ETV
vector 3625  IntersectionExampleScenario.node[15].veinsmobility  posx  ETV
vector 3626  IntersectionExampleScenario.node[15].veinsmobility  posy  ETV
vector 3627  IntersectionExampleScenario.node[15].veinsmobility  speed  ETV
vector 3628  IntersectionExampleScenario.node[15].veinsmobility  acceleration  ETV
vector 3629  IntersectionExampleScenario.node[15].veinsmobility  co2emission  ETV
vector 3632  IntersectionExampleScenario.node[16].veinsmobility  posx  ETV
vector 3633  IntersectionExampleScenario.node[16].veinsmobility  posy  ETV
vector 3639  IntersectionExampleScenario.node[17].veinsmobility  posx  ETV
vector 3640  IntersectionExampleScenario.node[17].veinsmobility  posy  ETV
vector 3634  IntersectionExampleScenario.node[16].veinsmobility  speed  ETV
vector 3635  IntersectionExampleScenario.node[16].veinsmobility  acceleration  ETV
vector 3636  IntersectionExampleScenario.node[16].veinsmobility  co2emission  ETV
vector 3641  IntersectionExampleScenario.node[17].veinsmobility  speed  ETV
vector 3642  IntersectionExampleScenario.node[17].veinsmobility  acceleration  ETV
vector 3643  IntersectionExampleScenario.node[17].veinsmobility  co2emission  ETV
3552	33953 4827 562 3471 21.75 60.75 157 0.973 11.810082123732 515.43055861261 2886.8724378541
3551	38780 4328 562 3471 21.75 60.75 157 -3.4797992706299 2.5 39.869146347046 288.3537892539
3550	43108 4709 551 3471 21.5 60.75 158 5.6500000953674 15.875 2188.3650727272 31769.767524
3549	47817 5016 540 3471 21.25 60.75 159 235.78228759766 483.14999389648 68758.902191162 30650667.211468
3548	52833 5030 540 3471 21.25 60.75 159 184.17810058594 483.14999389648 63186.488616943 26835570.35997
vector 3646  IntersectionExampleScenario.node[18].veinsmobility  posx  ETV
vector 3647  IntersectionExampleScenario.node[18].veinsmobility  posy  ETV
vector 3648  IntersectionExampleScenario.node[18].veinsmobility  speed  ETV
vector 3649  IntersectionExampleScenario.node[18].veinsmobility  acceleration  ETV
vector 3650  IntersectionExampleScenario.node[18].veinsmobility  co2emission  ETV
vector 3653  IntersectionExampleScenario.node[19].veinsmobility  posx  ETV
vector 3654  IntersectionExampleScenario.node[19].veinsmobility  posy  ETV
vector 3655  IntersectionExampleScenario.node[19].veinsmobility  speed  ETV
vector 3656  IntersectionExampleScenario.node[19].veinsmobility  acceleration  ETV
vector 3657  IntersectionExampleScenario.node[19].veinsmobility  co2emission  ETV
3531	58655 7270 27 4352 2 69 269 0.973 11.200708441096 617.16312800754 2726.344207421
3530	65925 6491 27 4352 2 69 269 -6.8640689849854 4 35.625318527222 447.68975026733
3529	72416 6852 22 4352 1.75 69 270 0 15.02499961853 2205.7956194878 30004.684011173
3528	79268 8497 17 4352 1.5 69 271 483.14999389648 785.82187652588 147124.31821442 82032613.761312
3527	87765 8501 17 4352 1.5 69 271 483.14999389648 734.37588500977 139794.87489319 73308114.959321
vector 3660  IntersectionExampleScenario.node[20].veinsmobility  posx  ETV
vector 3661  IntersectionExampleScenario.node[20].veinsmobility  posy  ETV
vector 3662  IntersectionExampleScenario.node[20].veinsmobility  speed  ETV
vector 3663  IntersectionExampleScenario.node[20].veinsmobility  acceleration  ETV
vector 3664  IntersectionExampleScenario.node[20].veinsmobility  co2emission  ETV
3566	96662 5226 857 4545 28 71 173 0.973 11.093806525473 513.63623881171 2669.8736540017
3565	101888 4999 857 4545 28 71 173 -4.5 2.5000019073486 34.77654838562 278.80176308956
3564	106887 5328 842 4545 27.75 71 174 5.6500000953674 14.875 2212.5718035698 29244.638771832
3563	112215 5568 827 4545 27.5 71 175 237.91528320312 785.82187652588 91364.898635864 52008337.372863
3562	117783 5587 827 4545 27.5 71 175 483.14999389648 483.14999389648 84551.248931885 40850935.40538
vector 3667  IntersectionExampleScenario.node[21].veinsmobility  posx  ETV
vector 3668  IntersectionExampleScenario.node[21].veinsmobility  posy  ETV
vector 3669  IntersectionExampleScenario.node[21].veinsmobility  speed  ETV
vector 3670  IntersectionExampleScenario.node[21].veinsmobility  acceleration  ETV
vector 3671  IntersectionExampleScenario.node[21].veinsmobility  co2emission  ETV
3573	123766 5176 1056 4798 31.25 73.5 170 0.973 11.810082123732 594.20240556822 3408.4781199949
3572	128942 4917 1056 4798 31.25 73.5 170 -4.5 2.5 40.038900375366 454.45146079812
3571	133859 5145 1039 4798 31 73.5 171 5.6500000953674 15.875 2225.6727757454 30812.731870238
3570	139004 5484 1022 4798 30.75 73.5 172 486.79312133789 797.07032012939 99174.72315979 59096489.85184
3569	144488 5492 1022 4798 30.75 73.5 172 237.88525390625 483.14999389648 75182.384338379 33786766.569295
vector 3674  IntersectionExampleScenario.node[22].veinsmobility  posx  ETV
vector 3675  IntersectionExampleScenario.node[22].veinsmobility  posy  ETV
vector 3676  IntersectionExampleScenario.node[22].veinsmobility  speed  ETV
vector 3677  IntersectionExampleScenario.node[22].veinsmobility  acceleration  ETV
vector 3678  IntersectionExampleScenario.node[22].veinsmobility  co2emission  ETV
3580	150376 4794 1380 4977 36 75.25 158 0.973 11.648172402475 519.15499143785 2976.3244051572
3579	155170 4651 1380 4977 36 75.25 158 -4.5 2.5 39.359884262085 254.10555441541
3578	159821 4846 1363 4977 35.75 75.25 159 5.6500000953674 15.672581672668 2245.1824960709 32389.064934207
3577	164667 5107 1345 4977 35.5 75.25 160 236.22418212891 792.20552062988 84043.5105896 48398574.53954
3576	169774 5120 1345 4977 35.5 75.25 160 483.14999389648 483.14999389648 77303.999023438 37349426.656348
vector 3681  IntersectionExampleScenario.node[23].veinsmobility  posx  ETV
vector 3682  IntersectionExampleScenario.node[23].veinsmobility  posy  ETV
vector 3683  IntersectionExampleScenario.node[23].veinsmobility  speed  ETV
vector 3684  IntersectionExampleScenario.node[23].veinsmobility  acceleration  ETV
vector 3685  IntersectionExampleScenario.node[23].veinsmobility  co2emission  ETV
vector 3688  IntersectionExampleScenario.node[24].veinsmobility  posx  ETV
vector 3689  IntersectionExampleScenario.node[24].veinsmobility  posy  ETV
3587	175442 5049 1741 5641 41.25 81.5 162 0.973 11.200708441096 476.54471651346 2373.5099500366
3586	180491 4822 1741 5641 41.25 81.5 162 -3.1558570861816 2.5 35.964826583862 213.8205145651
3585	185313 4938 1722 5641 41 81.5 163 5.6500000953674 15.02499961853 2211.9389057159 30775.659960742
3584	190251 5239 1703 5641 40.75 81.5 164 483.12005615234 785.82187652588 93717.541404724 55368139.847787
3583	195490 5231 1703 5641 40.75 81.5 164 483.14999389648 734.5565032959 88063.674346924 48292751.125409
vector 3690  IntersectionExampleScenario.node[24].veinsmobility  speed  ETV
vector 3691  IntersectionExampleScenario.node[24].veinsmobility  acceleration  ETV
vector 3692  IntersectionExampleScenario.node[24].veinsmobility  co2emission  ETV
vector 3695  IntersectionExampleScenario.node[25].veinsmobility  posx  ETV
vector 3696  IntersectionExampleScenario.node[25].veinsmobility  posy  ETV
3524	201117 8567 8 5888 0.75 83.75 333 0.973 12.099024792222 721.9323166919 3353.039276795
3523	209684 7663 8 5888 0.75 83.75 333 -9.4888134002686 4 40.887662887573 531.85535781686
3522	217347 7822 5 5888 0.5 83.75 334 0 16.27499961853 2204.408318758 32227.446894396
3521	225169 10534 2 5888 0.25 83.75 335 236.69555664062 486.85000610352 154998.91143799 72867695.351605
3520	235703 10529 2 5888 0.25 83.75 335 483.14999389648 785.82187652588 178420.7339859 97217549.458487
vector 3697  IntersectionExampleScenario.node[25].veinsmobility  speed  ETV
vector 3698  IntersectionExampleScenario.node[25].veinsmobility  acceleration  ETV
vector 3699  IntersectionExampleScenario.node[25].veinsmobility  co2emission  ETV
vector 3702  IntersectionExampleScenario.node[26].veinsmobility  posx  ETV
vector 3703  IntersectionExampleScenario.node[26].veinsmobility  posy  ETV
vector 3704  IntersectionExampleScenario.node[26].veinsmobility  speed  ETV
vector 3705  IntersectionExampleScenario.node[26].veinsmobility  acceleration  ETV
vector 3706  IntersectionExampleScenario.node[26].veinsmobility  co2emission  ETV
3545	246872 8145 315 6130 15 86 285 0.973 11.36141391502 637.3386555049 2831.8779101679
3544	255017 8428 315 6130 15 86 285 -3.713475227356 2.5 37.32285118103 333.14272876244
3543	263445 8392 306 6130 14.75 86 286 0 15.25 2186.4818051653 28452.199155879
3542	271837 9108 297 6130 14.5 86 287 486.85000610352 733.68891906738 148074.87124634 77525695.583959
3541	280945 9095 297 6130 14.5 86 287 486.85000610352 785.82187652588 156580.20238495 87477391.942888
3601	290040 4862 2214 6292 47.25 87.5 162 0.973 12.099024792222 562.70137835069 3496.244615392
3600	294902 4598 2214 6292 47.25 87.5 162 -2.9699249267578 2.5 41.057416915894 334.16804886517
3599	299500 4920 2193 6292 47 87.5 163 5.6500000953674 16.27499961853 2206.7203006744 31327.347186117
3598	304420 5245 2172 6292 46.75 87.5 164 237.09588623047 486.85000610352 71787.154144287 32365902.594113
3597	309665 5232 2172 6292 46.75 87.5 164 483.13638305664 785.82187652588 93682.809623718 55258699.734251
vector 3709  IntersectionExampleScenario.node[27].veinsmobility  posx  ETV
vector 3710  IntersectionExampleScenario.node[27].veinsmobility  posy  ETV
vector 3711  IntersectionExampleScenario.node[27].veinsmobility  speed  ETV
vector 3712  IntersectionExampleScenario.node[27].veinsmobility  acceleration  ETV
vector 3713  IntersectionExampleScenario.node[27].veinsmobility  co2emission  ETV
vector 3716  IntersectionExampleScenario.node[28].veinsmobility  posx  ETV
vector 3717  IntersectionExampleScenario.node[28].veinsmobility  posy  ETV
vector 3718  IntersectionExampleScenario.node[28].veinsmobility  speed  ETV
vector 3719  IntersectionExampleScenario.node[28].veinsmobility  acceleration  ETV
vector 3720  IntersectionExampleScenario.node[28].veinsmobility  co2emission  ETV
vector 3723  IntersectionExampleScenario.node[29].veinsmobility  posx  ETV
vector 3724  IntersectionExampleScenario.node[29].veinsmobility  posy  ETV
vector 3725  IntersectionExampleScenario.node[29].veinsmobility  speed  ETV
vector 3726  IntersectionExampleScenario.node[29].veinsmobility  acceleration  ETV
vector 3727  IntersectionExampleScenario.node[29].veinsmobility  co2emission  ETV
3615	316085 4876 2644 6780 52.25 92 160 0.973 11.716470825871 519.95118658641 3014.8721703957
3614	320961 4610 2644 6780 52.25 92 160 -3.6848068237305 2.5 38.511121749878 306.93488610481
3613	325571 4832 2619 6780 52 92 161 5.6500000953674 15.744986534119 2191.2460699081 31193.564251696
3612	330403 5179 2594 6780 51.75 92 162 486.85000610352 734.88418579102 87157.491165161 47832365.791797
3611	335582 5168 2594 6780 51.75 92 162 486.71295166016 785.82187652588 92676.968925476 54765257.838582
vector 3730  IntersectionExampleScenario.node[30].veinsmobility  posx  ETV
vector 3731  IntersectionExampleScenario.node[30].veinsmobility  posy  ETV
vector 3732  IntersectionExampleScenario.node[30].veinsmobility  speed  ETV
vector 3733  IntersectionExampleScenario.node[30].veinsmobility  acceleration  ETV
vector 3734  IntersectionExampleScenario.node[30].veinsmobility  co2emission  ETV
vector 3737  IntersectionExampleScenario.node[31].veinsmobility  posx  ETV
vector 3738  IntersectionExampleScenario.node[31].veinsmobility  posy  ETV
vector 3739  IntersectionExampleScenario.node[31].veinsmobility  speed  ETV
vector 3740  IntersectionExampleScenario.node[31].veinsmobility  acceleration  ETV
vector 3741  IntersectionExampleScenario.node[31].veinsmobility  co2emission  ETV
3636	341542 4726 3396 7434 60 97.75 152 0.973 12.099024792222 509.68653571894 2941.1965476414
3635	346268 4455 3396 7434 60 97.75 152 -3.5807342529297 2.5 41.227170944214 262.38651806765
3634	350723 4593 3370 7434 59.75 97.75 153 5.6500000953674 16.27499961853 2209.0335664749 33020.498175956
3633	355316 4906 3346 7434 59.5 97.75 154 236.64294433594 486.85000610352 66909.651306152 29990704.817105
3632	360222 4923 3346 7434 59.5 97.75 154 483.13189697266 785.82187652588 88131.893928528 52172371.332092
vector 3744  IntersectionExampleScenario.node[32].veinsmobility  posx  ETV
vector 3745  IntersectionExampleScenario.node[32].veinsmobility  posy  ETV
vector 3746  IntersectionExampleScenario.node[32].veinsmobility  speed  ETV
vector 3747  IntersectionExampleScenario.node[32].veinsmobility  acceleration  ETV
vector 3748  IntersectionExampleScenario.node[32].veinsmobility  co2emission  ETV
3559	365541 8010 775 7788 26.5 100.5 297 0.973 11.36141391502 656.61195336068 2881.092517378
3558	373551 6898 775 7788 26.5 100.5 297 -6.9984560012817 4 37.492597579956 464.16787738279
3557	380449 7409 762 7788 26.25 100.5 298 0 15.25 2181.771545887 30316.950911517
3556	387858 9528 749 7788 26 100.5 299 184.17810058594 483.36395263672 128901.77087402 57732328.835091
3555	397386 9487 749 7788 26 100.5 299 486.85000610352 734.21499633789 153932.46328735 80389917.052294
vector 3751  IntersectionExampleScenario.node[33].veinsmobility  posx  ETV
vector 3752  IntersectionExampleScenario.node[33].veinsmobility  posy  ETV
vector 3753  IntersectionExampleScenario.node[33].veinsmobility  speed  ETV
vector 3754  IntersectionExampleScenario.node[33].veinsmobility  acceleration  ETV
vector 3755  IntersectionExampleScenario.node[33].veinsmobility  co2emission  ETV
3594	407269 6802 1897 7885 43.25 101.25 233 0.973 11.648172402475 592.51248596445 2932.4376807229
3593	414071 7138 1897 7885 43.25 101.25 233 -3.8020079135895 2.5000004768372 38.171613693237 344.66559681753
3592	421209 7328 1876 7885 43 101.25 234 0 15.64999961853 2209.6493954528 29495.050193437
3591	428537 7491 1855 7885 42.75 101.25 235 184.17810058594 731.72497558594 105971.89981079 51922765.345208
3590	436028 7526 1855 7885 42.75 101.25 235 486.85000610352 486.85000610352 114409.75143433 55700388.184103
3608	443554 5950 2619 8169 52 103.5 207 0.973 11.648172402475 561.84085892868 2871.9018618325
3607	449504 6147 2619 8169 52 103.5 207 -2.6726107597351 2.5 38.511121749878 326.80514390577
3606	455651 6510 2594 8169 51.75 103.5 208 0 15.64999961853 2217.5740951002 29172.287213569
3605	462161 6670 2571 8169 51.5 103.5 209 184.17810058594 733.59423828125 93430.681747437 45934153.176984
3604	468831 6703 2571 8169 51.5 103.5 209 486.85000610352 486.85000610352 101751.65127563 49537792.044585
3629	475534 6164 2938 8524 55.25 106.5 206 0.973 11.648172402475 574.45505470993 2952.2281002283
3628	481698 6057 2938 8524 55.25 106.5 206 -4.5 2.5000009536743 38.341367721558 474.60250988748
3627	487755 6339 2913 8524 55 106.5 207 0 15.64999961853 2253.0595630631 30026.639459161
3626	494094 6657 2888 8524 54.75 106.5 208 172.9296875 486.85000610352 84097.038757324 36042546.570183
3625	500751 6665 2888 8524 54.75 106.5 208 237.12310791016 486.85000610352 92871.266693115 42523881.830857
3657	507416 5193 3925 8727 65 108.25 174 0.973 11.648172402475 537.46035600919 2992.4954138923
3656	512609 5033 3925 8727 65 108.25 174 -4.5 2.5 38.171613693237 319.18259469187
3655	517642 5391 3898 8727 64.75 108.25 175 5.6500000953674 15.64999961853 2221.1055765152 29902.14753673
3654	523033 5628 3870 8727 64.5 108.25 176 184.17810058594 734.35057067871 78625.846099854 39318584.569237
3653	528661 5666 3870 8727 64.5 108.25 176 486.85000610352 486.85000610352 85685.601074219 41716035.405967
3622	534327 7223 2741 9704 53.25 117 256 0.973 11.00486315618 593.09054687053 2581.8536950443
3621	541550 6444 2741 9704 53.25 117 256 -7.8153886795044 4 34.267293930054 450.84467511232
3620	547994 6852 2716 9704 53 117 257 0 14.75 2185.9177105427 29145.171649374
3619	554846 8308 2691 9704 52.75 117 258 483.14999389648 734.54695129395 133716.23532104 70506469.844569
3618	563154 8298 2691 9704 52.75 117 258 184.17810058594 486.85000610352 109395.05169678 48535244.116697
3671	571452 5616 4648 9878 72 118.75 188 0.973 11.36141391502 538.14327899254 2776.0100198464
3670	577068 5651 4648 9878 72 118.75 188 -3.068229675293 2.5000009536743 36.98334312439 308.21048247899
3669	582719 5803 4622 9878 71.75 118.75 189 2.7085943222046 15.25 2188.1978127956 28534.334788413
3668	588522 6155 4595 9878 71.5 118.75 190 236.12677001953 483.14999389648 83384.393463135 37603441.282321
3667	594677 6124 4595 9878 71.5 118.75 190 184.17810058594 483.26599121094 76718.805450439 32795284.781053
3685	600801 5253 5182 10040 77.25 120.5 174 0.973 11.36141391502 561.42811314011 3036.0787948409
3684	606054 5317 5182 10040 77.25 120.5 174 -4.5 2.5 41.057416915894 365.33245061562
3683	611371 5366 5155 10040 77 120.5 175 4.8986668586731 15.974636077881 2185.5445370674 29999.055691359
3682	616737 5710 5128 10040 76.75 120.5 176 236.22760009766 483.14999389648 77119.09777832 34730924.143162
3681	622447 5691 5128 10040 76.75 120.5 176 184.17810058594 483.14999389648 70354.814331055 29858917.071746
vector 3758  IntersectionExampleScenario.node[34].veinsmobility  posx  ETV
vector 3759  IntersectionExampleScenario.node[34].veinsmobility  posy  ETV
vector 3765  IntersectionExampleScenario.node[35].veinsmobility  posx  ETV
vector 3766  IntersectionExampleScenario.node[35].veinsmobility  posy  ETV
vector 3760  IntersectionExampleScenario.node[34].veinsmobility  speed  ETV
vector 3761  IntersectionExampleScenario.node[34].veinsmobility  acceleration  ETV
vector 3762  IntersectionExampleScenario.node[34].veinsmobility  co2emission  ETV
vector 3767  IntersectionExampleScenario.node[35].veinsmobility  speed  ETV
vector 3768  IntersectionExampleScenario.node[35].veinsmobility  acceleration  ETV
vector 3769  IntersectionExampleScenario.node[35].veinsmobility  co2emission  ETV
vector 3772  IntersectionExampleScenario.node[36].veinsmobility  posx  ETV
vector 3773  IntersectionExampleScenario.node[36].veinsmobility  posy  ETV
vector 3774  IntersectionExampleScenario.node[36].veinsmobility  speed  ETV
vector 3775  IntersectionExampleScenario.node[36].veinsmobility  acceleration  ETV
vector 3776  IntersectionExampleScenario.node[36].veinsmobility  co2emission  ETV
3720	629326 5019 6582 10844 90.25 129 156 0.973 11.648172402475 493.90664985485 2648.9493700567
3719	634345 4402 6582 10844 90.25 129 156 -3.4680404663086 2.5 38.850629806519 242.6620583105
3718	638747 4888 6553 10844 90 129 157 5.6500000953674 15.64999961853 2207.15736866 31975.52612511
3717	643635 5195 6524 10844 89.75 129 158 483.14999389648 733.10472106934 84677.39465332 46329556.478475
3716	648830 5183 6524 10844 89.75 129 158 184.17810058594 486.87796020508 62869.884368896 26783508.367452
vector 3779  IntersectionExampleScenario.node[37].veinsmobility  posx  ETV
vector 3780  IntersectionExampleScenario.node[37].veinsmobility  posy  ETV
vector 3781  IntersectionExampleScenario.node[37].veinsmobility  speed  ETV
vector 3782  IntersectionExampleScenario.node[37].veinsmobility  acceleration  ETV
vector 3783  IntersectionExampleScenario.node[37].veinsmobility  co2emission  ETV
vector 3786  IntersectionExampleScenario.node[38].veinsmobility  posx  ETV
vector 3787  IntersectionExampleScenario.node[38].veinsmobility  posy  ETV
vector 3788  IntersectionExampleScenario.node[38].veinsmobility  speed  ETV
vector 3789  IntersectionExampleScenario.node[38].veinsmobility  acceleration  ETV
vector 3790  IntersectionExampleScenario.node[38].veinsmobility  co2emission  ETV
vector 3793  IntersectionExampleScenario.node[39].veinsmobility  posx  ETV
vector 3794  IntersectionExampleScenario.node[39].veinsmobility  posy  ETV
vector 3795  IntersectionExampleScenario.node[39].veinsmobility  speed  ETV
vector 3796  IntersectionExampleScenario.node[39].veinsmobility  acceleration  ETV
vector 3797  IntersectionExampleScenario.node[39].veinsmobility  co2emission  ETV
vector 3800  IntersectionExampleScenario.node[40].veinsmobility  posx  ETV
vector 3801  IntersectionExampleScenario.node[40].veinsmobility  posy  ETV
3643	655353 8124 3421 11279 60.25 133 292 0.973 11.200708441096 639.54212800754 2748.118974421
3642	663477 7253 3421 11279 60.25 133 292 -6.8640689849854 4 35.625318527222 447.68975026733
3641	670730 7614 3396 11279 60 133 293 0 15.02499961853 2205.7956194878 30004.684011173
3640	678344 9585 3370 11279 59.75 133 294 483.14999389648 785.82187652588 158587.51807404 87745872.50138
3639	687929 9589 3370 11279 59.75 133 294 483.14999389648 734.37588500977 150907.32475281 78677095.041171
vector 3802  IntersectionExampleScenario.node[40].veinsmobility  speed  ETV
vector 3803  IntersectionExampleScenario.node[40].veinsmobility  acceleration  ETV
vector 3804  IntersectionExampleScenario.node[40].veinsmobility  co2emission  ETV
3727	697762 5341 6722 11465 91.5 134.5 173 0.973 12.099024792222 537.92519817265 2907.8440175502
3726	703103 5292 6722 11465 91.5 134.5 173 -2.1220741271973 2.5 40.038900375366 274.0862569524
3725	708395 5512 6693 11465 91.25 134.5 174 4.6999583244324 16.27499961853 2207.4531111717 30290.57735412
3724	713907 5775 6664 11465 91 134.5 175 483.14999389648 785.82187652588 99389.420814514 58228578.754912
3723	719682 5784 6664 11465 91 134.5 175 483.14999389648 732.63896179199 92736.723770142 50117337.416535
3734	725466 5274 7165 11753 95.5 137 167 0.973 12.099024792222 538.22112144158 3080.9736420644
3733	730740 5125 7165 11753 95.5 137 167 -4.5 2.5 40.038900375366 326.71063905095
3732	735865 5304 7136 11753 95.25 137 168 5.6500000953674 16.27499961853 2235.1763272285 31281.61162201
3731	741169 5614 7107 11753 95 137 169 483.14999389648 792.02188110352 96806.326271057 57306434.444469
3730	746783 5616 7107 11753 95 137 169 483.14999389648 733.8048248291 89891.414627075 48786027.118308
3741	752399 5185 7372 11834 97.25 137.75 163 0.973 12.099024792222 536.25081952355 3110.5030322173
3740	757584 5051 7372 11834 97.25 137.75 163 -4.5 2.5 41.057416915894 277.21519908932
3739	762635 5211 7341 11834 97 137.75 164 5.6500000953674 16.27499961853 2304.3805150986 33393.880142069
3738	767846 5487 7310 11834 96.75 137.75 165 237.89331054688 808.15782165527 88252.246383667 51694145.562765
3737	773333 5504 7310 11834 96.75 137.75 165 483.14999389648 483.14999389648 79719.74899292 38516596.239358
vector 3807  IntersectionExampleScenario.node[41].veinsmobility  posx  ETV
vector 3808  IntersectionExampleScenario.node[41].veinsmobility  posy  ETV
vector 3809  IntersectionExampleScenario.node[41].veinsmobility  speed  ETV
vector 3810  IntersectionExampleScenario.node[41].veinsmobility  acceleration  ETV
vector 3811  IntersectionExampleScenario.node[41].veinsmobility  co2emission  ETV
vector 3814  IntersectionExampleScenario.node[42].veinsmobility  posx  ETV
vector 3815  IntersectionExampleScenario.node[42].veinsmobility  posy  ETV
vector 3816  IntersectionExampleScenario.node[42].veinsmobility  speed  ETV
vector 3817  IntersectionExampleScenario.node[42].veinsmobility  acceleration  ETV
vector 3818  IntersectionExampleScenario.node[42].veinsmobility  co2emission  ETV
vector 3821  IntersectionExampleScenario.node[43].veinsmobility  posx  ETV
vector 3822  IntersectionExampleScenario.node[43].veinsmobility  posy  ETV
vector 3823  IntersectionExampleScenario.node[43].veinsmobility  speed  ETV
vector 3824  IntersectionExampleScenario.node[43].veinsmobility  acceleration  ETV
vector 3825  IntersectionExampleScenario.node[43].veinsmobility  co2emission  ETV
vector 3828  IntersectionExampleScenario.node[44].veinsmobility  posx  ETV
vector 3829  IntersectionExampleScenario.node[44].veinsmobility  posy  ETV
vector 3830  IntersectionExampleScenario.node[44].veinsmobility  speed  ETV
vector 3831  IntersectionExampleScenario.node[44].veinsmobility  acceleration  ETV
vector 3832  IntersectionExampleScenario.node[44].veinsmobility  co2emission  ETV
vector 3835  IntersectionExampleScenario.node[45].veinsmobility  posx  ETV
vector 3836  IntersectionExampleScenario.node[45].veinsmobility  posy  ETV
vector 3837  IntersectionExampleScenario.node[45].veinsmobility  speed  ETV
vector 3838  IntersectionExampleScenario.node[45].veinsmobility  acceleration  ETV
vector 3839  IntersectionExampleScenario.node[45].veinsmobility  co2emission  ETV
3650	780817 9437 3600 13053 62 148.25 346 0.97223939240464 11.648172402475 723.45632323248 3138.8907202049
3649	790254 8338 3600 13053 62 148.25 346 -7.943416595459 4 38.680875778198 495.15624995762
3648	798592 8702 3573 13053 61.75 148.25 347 0 15.64999961853 2288.8900887966 32733.108403299
3647	807294 11443 3546 13053 61.5 148.25 348 486.85000610352 486.85000610352 169423.80212402 82483979.098162
3646	818737 11426 3546 13053 61.5 148.25 348 235.46472167969 803.92188262939 178502.74267578 96206509.015374
3664	830163 9440 4495 13443 70.5 151.25 324 0.973 11.200708441096 663.71016532572 2746.4517810904
3663	839603 9941 4495 13443 70.5 151.25 324 -3.8505306243896 2.5 35.625318527222 315.30816912415
3662	849544 9817 4470 13443 70.25 151.25 325 0 15.02499961853 2210.358127851 28485.2562443
3661	859361 10762 4445 13443 70 151.25 326 486.85000610352 486.85000610352 158713.10198975 77269474.672416
3660	870123 10735 4445 13443 70 151.25 326 237.57629394531 785.82187652588 167746.29673004 90604047.625182
3678	880858 9289 4977 13567 75.25 152.25 309 0.973 11.850823865762 706.61693457932 3173.4442710295
3677	890147 10066 4977 13567 75.25 152.25 309 -4.4333610534668 2.5 41.126081466675 391.71099664927
3676	900213 9908 4950 13567 75 152.25 310 0 16.418416976929 2211.2019642536 29261.359295482
3675	910121 10291 4923 13567 74.75 152.25 311 486.85000610352 486.85000610352 151410.35189819 73714130.745771
3674	920412 10252 4923 13567 74.75 152.25 311 237.94915771484 785.82187652588 161479.63480377 87996296.569177
3713	930664 8055 6497 13938 89.5 155.5 265 0.973 11.648172402475 624.35189405536 3001.4145488866
3712	938719 8480 6497 13938 89.5 155.5 265 -3.967086315155 2.5 38.001859664917 342.12198998862
3711	947199 8540 6470 13938 89.25 155.5 266 0 15.64999961853 2204.2184014739 28625.511034179
3710	955739 8906 6443 13938 89 155.5 267 238.30865478516 486.85000610352 121631.3782959 56531018.481349
3709	964645 8890 6443 13938 89 155.5 267 483.14999389648 785.82187652588 147610.58362579 83550333.752838
vector 3842  IntersectionExampleScenario.node[46].veinsmobility  posx  ETV
vector 3843  IntersectionExampleScenario.node[46].veinsmobility  posy  ETV
vector 3844  IntersectionExampleScenario.node[46].veinsmobility  speed  ETV
vector 3845  IntersectionExampleScenario.node[46].veinsmobility  acceleration  ETV
vector 3846  IntersectionExampleScenario.node[46].veinsmobility  co2emission  ETV
3692	973931 9025 5699 14775 82 163.75 328 0.973 12.099024792222 711.71257379842 3347.57739163
3691	982956 8184 5699 14775 82 163.75 328 -7.8777389526367 4 40.038900375366 513.03969327146
3690	991140 8377 5670 14775 81.75 163.75 329 0 16.27499961853 2205.5867063999 32071.417650794
3689	999517 10965 5641 14775 81.5 163.75 330 184.17810058594 731.70051574707 151898.47805786 73990223.264141
3688	1010482 10992 5641 14775 81.5 163.75 330 486.85000610352 486.85000610352 160660.50201416 78217566.386188
3699	1021474 9454 5942 14925 84.25 165.25 325 0.973 12.099024792222 735.97774641169 3442.2861990062
3698	1030928 8842 5942 14925 84.25 165.25 325 -4.5 2.5000019073486 42.585195541382 475.88380399095
3697	1039770 9220 5915 14925 84 165.25 326 0 16.345365524292 2282.5040867822 33831.128262027
3696	1048990 10883 5888 14925 83.75 165.25 327 167.29217529297 732.62907409668 147957.15975952 71307806.44972
3695	1059873 10907 5888 14925 83.75 165.25 327 486.85000610352 486.85000610352 159199.95199585 77506497.600859
3706	1070780 9785 6130 15187 86 168 329 0.973 11.990504229548 718.51877913504 3233.3162847026
3705	1080565 9735 6130 15187 86 168 329 -4.5 2.5000004768372 39.869146347046 379.66396468421
3704	1090300 9954 6103 15187 85.75 168 330 0 16.125 2333.9056714782 32268.790092485
3703	1100254 10999 6076 15187 85.5 168 331 156.49920654297 735.10679626465 147603.21818542 70608729.928911
3702	1111253 11056 6076 15187 85.5 168 331 486.85000610352 486.85000610352 161147.35202026 78454589.314631
vector 3849  IntersectionExampleScenario.node[47].veinsmobility  posx  ETV
vector 3850  IntersectionExampleScenario.node[47].veinsmobility  posy  ETV
vector 3851  IntersectionExampleScenario.node[47].veinsmobility  speed  ETV
vector 3852  IntersectionExampleScenario.node[47].veinsmobility  acceleration  ETV
vector 3853  IntersectionExampleScenario.node[47].veinsmobility  co2emission  ETV
3748	1122705 8832 7562 15398 98.75 170.25 287 0.973 11.990504229548 660.8454980656 3139.3130098348
3747	1131537 9388 7562 15398 98.75 170.25 287 -3.9191672801971 2.5 39.699392318726 342.90547966365
3746	1140925 9354 7529 15398 98.5 170.25 288 0 16.125 2222.5550340796 29806.401948611
3745	1150279 9684 7496 15398 98.25 170.25 289 184.17810058594 734.375 129397.65808105 62063784.605346
3744	1159963 9732 7496 15398 98.25 170.25 289 486.85000610352 486.85000610352 140699.65176392 68499626.320025
vector 3856  IntersectionExampleScenario.node[48].veinsmobility  posx  ETV
vector 3857  IntersectionExampleScenario.node[48].veinsmobility  posy  ETV
vector 3858  IntersectionExampleScenario.node[48].veinsmobility  speed  ETV
vector 3859  IntersectionExampleScenario.node[48].veinsmobility  acceleration  ETV
vector 3860  IntersectionExampleScenario.node[48].veinsmobility  co2emission  ETV
3755	1170091 9308 7885 15727 101.25 173.75 291 0.973 11.810082123732 697.26894708473 3344.6792184596
3754	1179399 9422 7885 15727 101.25 173.75 291 -4.5 2.5 39.529638290405 531.30366612681
3753	1188821 9485 7852 15727 101 173.75 292 0 15.875 2252.5873442777 29927.376604597
3752	1198306 9842 7819 15727 100.75 173.75 293 168.58435058594 483.14999389648 121113.88061523 52226017.181049
3751	1208148 9879 7819 15727 100.75 173.75 293 486.85000610352 734.33822631836 150765.3848877 78686534.493007
3804	1218027 5373 11341 15877 133.5 175.25 168 0.973 11.90022389248 569.22733837631 3432.6147631326
3803	1223400 5200 11341 15877 133.5 175.25 168 -3.7907180786133 2.5 39.869146347046 359.23847845813
3802	1228600 5446 11310 15877 133.25 175.25 169 5.6500000953674 16 2207.6437697411 30330.457274875
3801	1234046 5751 11279 15877 133 175.25 170 184.17810058594 487.06488037109 67756.898376465 28769170.204074
3800	1239797 5774 11279 15877 133 175.25 170 237.07568359375 486.85000610352 74570.33972168 33678355.351541
vector 3863  IntersectionExampleScenario.node[49].veinsmobility  posx  ETV
vector 3864  IntersectionExampleScenario.node[49].veinsmobility  posy  ETV
vector 3865  IntersectionExampleScenario.node[49].veinsmobility  speed  ETV
vector 3866  IntersectionExampleScenario.node[49].veinsmobility  acceleration  ETV
vector 3867  IntersectionExampleScenario.node[49].veinsmobility  co2emission  ETV
vector 3870  IntersectionExampleScenario.node[50].veinsmobility  posx  ETV
vector 3871  IntersectionExampleScenario.node[50].veinsmobility  posy  ETV
vector 3872  IntersectionExampleScenario.node[50].veinsmobility  speed  ETV
vector 3873  IntersectionExampleScenario.node[50].veinsmobility  acceleration  ETV
vector 3874  IntersectionExampleScenario.node[50].veinsmobility  co2emission  ETV
3818	1246363 5352 12402 16694 143 183.25 162 0.973 11.36141391502 497.59860970425 2603.3112020495
3817	1251715 4866 12402 16694 143 183.25 162 -3.4656524658203 2.5 36.98334312439 274.192838124
3816	1256581 5225 12373 16694 142.75 183.25 163 5.6500000953674 15.25 2183.7127151489 30486.634393445
3815	1261806 5509 12344 16694 142.5 183.25 164 236.71746826172 483.14999389648 70865.358886719 31565680.27796
3814	1267315 5546 12344 16694 142.5 183.25 164 184.17810058594 483.15249633789 65209.492889404 27692069.257293
vector 3877  IntersectionExampleScenario.node[51].veinsmobility  posx  ETV
vector 3878  IntersectionExampleScenario.node[51].veinsmobility  posy  ETV
vector 3879  IntersectionExampleScenario.node[51].veinsmobility  speed  ETV
vector 3880  IntersectionExampleScenario.node[51].veinsmobility  acceleration  ETV
vector 3881  IntersectionExampleScenario.node[51].veinsmobility  co2emission  ETV
3832	1273257 5300 12880 17032 147 186.75 160 0.973 11.450879080643 489.4283246055 2564.4219553503
3831	1278557 4803 12880 17032 147 186.75 160 -3.4694442749023 2.5 37.492597579956 233.37911423849
3830	1283360 5189 12847 17032 146.75 186.75 161 5.6500000953674 15.375 2229.5760850906 31733.745513502
3829	1288549 5495 12814 17032 146.5 186.75 162 483.14999389648 732.61787414551 86750.352172852 47420864.669161
3828	1294044 5477 12814 17032 146.5 186.75 162 177.97814941406 486.87680053711 64058.751708984 27211365.702139
vector 3884  IntersectionExampleScenario.node[52].veinsmobility  posx  ETV
vector 3885  IntersectionExampleScenario.node[52].veinsmobility  posy  ETV
vector 3886  IntersectionExampleScenario.node[52].veinsmobility  speed  ETV
vector 3887  IntersectionExampleScenario.node[52].veinsmobility  acceleration  ETV
vector 3888  IntersectionExampleScenario.node[52].veinsmobility  co2emission  ETV
vector 3891  IntersectionExampleScenario.node[53].veinsmobility  posx  ETV
vector 3892  IntersectionExampleScenario.node[53].veinsmobility  posy  ETV
vector 3893  IntersectionExampleScenario.node[53].veinsmobility  speed  ETV
vector 3894  IntersectionExampleScenario.node[53].veinsmobility  acceleration  ETV
vector 3895  IntersectionExampleScenario.node[53].veinsmobility  co2emission  ETV
3762	1300313 8633 10156 17903 121.75 196.25 299 0.973 11.648172402475 665.58996353784 3008.8472530903
3761	1308946 7643 10156 17903 121.75 196.25 299 -7.03919506073 4 38.341367721558 476.33694168539
3760	1316589 8033 10131 17903 121.5 196.25 300 0 15.64999961853 2177.4668385983 30628.127941716
3759	1324622 10231 10108 17903 121.25 196.25 301 486.63604736328 785.82187652588 162002.35726166 89342719.892555
3758	1334853 10170 10108 17903 121.25 196.25 301 236.95220947266 483.14999389648 137246.40048218 63695976.733319
vector 3898  IntersectionExampleScenario.node[54].veinsmobility  posx  ETV
vector 3899  IntersectionExampleScenario.node[54].veinsmobility  posy  ETV
3769	1345175 8694 10181 17973 122 197 301 0.973 11.990504229548 687.42903397353 3242.7158376522
3768	1353869 7952 10181 17973 122 197 301 -4.5 2.5 39.529638290405 500.38577591902
3767	1361821 8185 10156 17973 121.75 197 302 0 16.125 2315.1716470718 33040.295962071
3766	1370006 10288 10131 17973 121.5 197 303 236.44378662109 810.23281097412 157974.06941223 87167803.688262
3765	1380294 10301 10131 17973 121.5 197 303 483.14999389648 483.14999389648 146394.44815063 70730476.730458
vector 3905  IntersectionExampleScenario.node[55].veinsmobility  posx  ETV
vector 3906  IntersectionExampleScenario.node[55].veinsmobility  posy  ETV
vector 3900  IntersectionExampleScenario.node[54].veinsmobility  speed  ETV
vector 3901  IntersectionExampleScenario.node[54].veinsmobility  acceleration  ETV
vector 3902  IntersectionExampleScenario.node[54].veinsmobility  co2emission  ETV
vector 3907  IntersectionExampleScenario.node[55].veinsmobility  speed  ETV
vector 3908  IntersectionExampleScenario.node[55].veinsmobility  acceleration  ETV
vector 3909  IntersectionExampleScenario.node[55].veinsmobility  co2emission  ETV
vector 3912  IntersectionExampleScenario.node[56].veinsmobility  posx  ETV
vector 3913  IntersectionExampleScenario.node[56].veinsmobility  posy  ETV
3776	1391387 8897 10719 18234 127.75 199.5 288 0.973 11.648172402475 656.703303237 3020.0905016345
3775	1400284 9230 10719 18234 127.75 199.5 288 -3.7107217311859 2.5 38.341367721558 351.44676453639
3774	1409514 9248 10694 18234 127.5 199.5 289 0 15.64999961853 2244.7748139231 30368.002631874
3773	1418762 9819 10669 18234 127.25 199.5 290 237.42840576172 793.7251663208 150908.26017761 82848438.010777
3772	1428581 9861 10669 18234 127.25 199.5 290 483.14999389648 483.14999389648 140113.49822998 67695835.81463
vector 3919  IntersectionExampleScenario.node[57].veinsmobility  posx  ETV
vector 3920  IntersectionExampleScenario.node[57].veinsmobility  posy  ETV
vector 3914  IntersectionExampleScenario.node[56].veinsmobility  speed  ETV
vector 3915  IntersectionExampleScenario.node[56].veinsmobility  acceleration  ETV
vector 3916  IntersectionExampleScenario.node[56].veinsmobility  co2emission  ETV
vector 3921  IntersectionExampleScenario.node[57].veinsmobility  speed  ETV
vector 3922  IntersectionExampleScenario.node[57].veinsmobility  acceleration  ETV
vector 3923  IntersectionExampleScenario.node[57].veinsmobility  co2emission  ETV
vector 3926  IntersectionExampleScenario.node[58].veinsmobility  posx  ETV
vector 3927  IntersectionExampleScenario.node[58].veinsmobility  posy  ETV
3811	1439234 7701 12101 18509 140.25 202 248 0.973 11.648172402475 615.27592534723 2980.9660836175
3810	1446935 7827 12101 18509 140.25 202 248 -3.9485945701599 2.5 39.359884262085 341.77694244068
3809	1454762 8178 12074 18509 140 202 249 0 15.64999961853 2220.3809781075 29676.576136173
3808	1462940 8462 12047 18509 139.75 202 250 236.13507080078 785.82187652588 130682.06569672 72441203.54781
3807	1471402 8499 12047 18509 139.75 202 250 483.14999389648 483.14999389648 120787.49847412 58358479.150543
vector 3928  IntersectionExampleScenario.node[58].veinsmobility  speed  ETV
vector 3929  IntersectionExampleScenario.node[58].veinsmobility  acceleration  ETV
vector 3930  IntersectionExampleScenario.node[58].veinsmobility  co2emission  ETV
3825	1480145 7114 12783 18676 146.25 203.5 230 0.973 12.353032912318 631.32568078153 3418.0802980024
3824	1487259 7414 12783 18676 146.25 203.5 230 -4.5 2.5000019073486 43.094457626343 413.77596200201
3823	1494673 7521 12752 18676 146 203.5 231 0 16.625 2206.9457367994 30193.105058
3822	1502194 7873 12721 18676 145.75 203.5 232 483.14999389648 785.82187652588 129784.07723236 74424686.690539
3821	1510067 7876 12721 18676 145.75 203.5 232 483.14999389648 732.25390625 119875.34732056 62967212.710971
vector 3933  IntersectionExampleScenario.node[59].veinsmobility  posx  ETV
vector 3934  IntersectionExampleScenario.node[59].veinsmobility  posy  ETV
vector 3935  IntersectionExampleScenario.node[59].veinsmobility  speed  ETV
vector 3936  IntersectionExampleScenario.node[59].veinsmobility  acceleration  ETV
vector 3937  IntersectionExampleScenario.node[59].veinsmobility  co2emission  ETV
vector 3940  IntersectionExampleScenario.node[60].veinsmobility  posx  ETV
vector 3941  IntersectionExampleScenario.node[60].veinsmobility  posy  ETV
vector 3942  IntersectionExampleScenario.node[60].veinsmobility  speed  ETV
vector 3943  IntersectionExampleScenario.node[60].veinsmobility  acceleration  ETV
vector 3944  IntersectionExampleScenario.node[60].veinsmobility  co2emission  ETV
3797	1518735 8914 11250 19495 132.75 211.75 317 0.973 12.099024792222 691.03216942161 3305.3037689503
3796	1527649 8172 11250 19495 132.75 211.75 317 -7.4327311515808 4 40.038900375366 510.63872079308
3795	1535821 8271 11221 19495 132.5 211.75 318 0 16.27499961853 2081.2533644438 30140.063090255
3794	1544092 10848 11191 19495 132.25 211.75 319 486.85000610352 486.85000610352 155305.15194702 75610314.173315
3793	1554940 10827 11191 19495 132.25 211.75 319 238.29949951172 755.05781555176 160338.39899445 83995508.250811
vector 3947  IntersectionExampleScenario.node[61].veinsmobility  posx  ETV
vector 3948  IntersectionExampleScenario.node[61].veinsmobility  posy  ETV
vector 3949  IntersectionExampleScenario.node[61].veinsmobility  speed  ETV
vector 3950  IntersectionExampleScenario.node[61].veinsmobility  acceleration  ETV
vector 3951  IntersectionExampleScenario.node[61].veinsmobility  co2emission  ETV
3783	1566163 10057 11048 19805 131 214.75 336 0.973 11.302843746332 721.13856454047 3062.7044602135
3782	1576220 9934 11048 19805 131 214.75 336 -4.5 2.5 37.15309715271 514.14932369448
3781	1586154 9926 11021 19805 130.75 214.75 337 0 15.454409599304 2218.8500023494 29844.033105557
3780	1596080 11493 10994 19805 130.5 214.75 338 486.85000610352 486.85000610352 164555.30206299 80113749.813732
3779	1607573 11472 10994 19805 130.5 214.75 338 235.55914306641 785.82187652588 174899.67655945 95151765.499215
3790	1619045 10414 11133 19955 131.75 216.25 339 0.973 10.65035628006 734.59147784304 2906.3308564011
3789	1629459 10596 11133 19955 131.75 216.25 339 -4.5 2.5 38.680875778198 441.41337331176
3788	1640055 10574 11104 19955 131.5 216.25 340 0 15.373154640198 2305.2444399493 30911.964332762
3787	1650629 11595 11075 19955 131.25 216.25 341 486.85000610352 486.85000610352 166015.8520813 80824818.599061
3786	1662224 11560 11075 19955 131.25 216.25 341 236.85845947266 808.82032012939 179550.51822662 99552185.017872
3839	1673784 8823 12983 20167 147.75 218.5 284 0.973 12.26218747632 681.14630267758 3472.1962274535
3838	1682607 9381 12983 20167 147.75 218.5 284 -3.8909339904785 2.5000019073486 41.396924972534 397.42984576515
3837	1691988 9233 12948 20167 147.5 218.5 285 0 16.5 2182.476429739 29247.947531405
3836	1701221 9720 12913 20167 147.25 218.5 286 486.85000610352 732.40811157227 147013.30923462 76624581.320449
3835	1710941 9706 12913 20167 147.25 218.5 286 486.85000610352 785.82187652588 157425.85930634 88553752.000293
3853	1720647 6113 15398 20273 170.25 219.75 199 0.973 12.099024792222 570.13137829135 3056.830957515
3852	1726760 6268 15398 20273 170.25 219.75 199 -2.1311302185059 2.5 40.038900375366 322.96585620931
3851	1733028 6559 15373 20273 170 219.75 200 1.4259433746338 16.27499961853 2212.6948165894 29738.183554758
3850	1739587 6835 15348 20273 169.75 219.75 201 486.85000610352 486.85000610352 97856.851226807 47641608.617041
3849	1746422 6811 15348 20273 169.75 219.75 201 238.22210693359 785.82187652588 105735.3028183 59673287.252814
vector 3954  IntersectionExampleScenario.node[62].veinsmobility  posx  ETV
vector 3955  IntersectionExampleScenario.node[62].veinsmobility  posy  ETV
vector 3956  IntersectionExampleScenario.node[62].veinsmobility  speed  ETV
vector 3957  IntersectionExampleScenario.node[62].veinsmobility  acceleration  ETV
vector 3958  IntersectionExampleScenario.node[62].veinsmobility  co2emission  ETV
3867	1753629 5628 16031 20423 176.75 221.5 180 0.973 12.099024792222 547.0247976541 3117.2615729986
3866	1759257 5712 16031 20423 176.75 221.5 180 -3.0149574279785 2.5 41.227170944214 302.62752327016
3865	1764969 5897 16004 20423 176.5 221.5 181 4.7021207809448 16.27499961853 2215.9049062729 30281.978058941
3864	1770866 6189 15977 20423 176.25 221.5 182 486.85000610352 486.85000610352 88606.70111084 43138172.976625
3863	1777055 6145 15977 20423 176.25 221.5 182 237.22338867188 785.82187652588 95930.438285828 54597446.309428
vector 3961  IntersectionExampleScenario.node[63].veinsmobility  posx  ETV
vector 3962  IntersectionExampleScenario.node[63].veinsmobility  posy  ETV
vector 3963  IntersectionExampleScenario.node[63].veinsmobility  speed  ETV
vector 3964  IntersectionExampleScenario.node[63].veinsmobility  acceleration  ETV
vector 3965  IntersectionExampleScenario.node[63].veinsmobility  co2emission  ETV
vector 3968  IntersectionExampleScenario.node[64].veinsmobility  posx  ETV
vector 3969  IntersectionExampleScenario.node[64].veinsmobility  posy  ETV
vector 3970  IntersectionExampleScenario.node[64].veinsmobility  speed  ETV
vector 3971  IntersectionExampleScenario.node[64].veinsmobility  acceleration  ETV
vector 3972  IntersectionExampleScenario.node[64].veinsmobility  co2emission  ETV
vector 3975  IntersectionExampleScenario.node[65].veinsmobility  posx  ETV
vector 3976  IntersectionExampleScenario.node[65].veinsmobility  posy  ETV
vector 3977  IntersectionExampleScenario.node[65].veinsmobility  speed  ETV
vector 3978  IntersectionExampleScenario.node[65].veinsmobility  acceleration  ETV
vector 3979  IntersectionExampleScenario.node[65].veinsmobility  co2emission  ETV
3846	1784388 8123 14425 21151 160.25 229 276 0.973 11.200708441096 620.69365314132 2721.2065619607
3845	1792511 7405 14425 21151 160.25 229 276 -7.266227722168 4 35.116056442261 457.6067521324
3844	1799916 7689 14400 21151 160 229 277 0 15.02499961853 2198.2822766304 29718.120171576
3843	1807605 9430 14375 21151 159.75 229 278 184.17810058594 486.85000610352 118985.49743652 53104516.119101
3842	1817035 9437 14375 21151 159.75 229 278 237.36499023438 486.85000610352 126531.74468994 58778498.613955
3860	1826472 7160 15702 21340 173.5 230.75 230 0.973 11.648172402475 587.82027197552 2813.6892542162
3859	1833632 7588 15702 21340 173.5 230.75 230 -3.7288765907288 2.5 38.341367721558 323.97610005937
3858	1841220 7651 15677 21340 173.25 230.75 231 0 15.64999961853 2199.8643935043 29094.579131208
3857	1848871 7855 15652 21340 173 230.75 232 184.17810058594 487.07440185547 96556.734039307 42143857.17636
3856	1856726 7874 15652 21340 173 230.75 232 238.37872314453 486.85000610352 104633.46963501 48267603.581129
vector 3982  IntersectionExampleScenario.node[66].veinsmobility  posx  ETV
vector 3983  IntersectionExampleScenario.node[66].veinsmobility  posy  ETV
vector 3984  IntersectionExampleScenario.node[66].veinsmobility  speed  ETV
vector 3985  IntersectionExampleScenario.node[66].veinsmobility  acceleration  ETV
vector 3986  IntersectionExampleScenario.node[66].veinsmobility  co2emission  ETV
3874	1864996 6252 16694 21651 183.25 233.5 202 0.973 11.648172402475 563.53857355077 2926.4780761391
3873	1871248 6159 16694 21651 183.25 233.5 202 -3.9020805358887 2.5 38.341367721558 359.59724796457
3872	1877407 6575 16669 21651 183 233.5 203 1.8144912719727 15.64999961853 2189.6458615065 28325.837029323
3871	1883982 6905 16644 21651 182.75 233.5 204 184.17810058594 483.19897460938 82920.014404297 35529505.412793
3870	1890887 6926 16644 21651 182.75 233.5 204 486.85000610352 734.20283508301 107581.81504822 57757120.847493
3888	1897813 5490 17406 21767 191 234.5 175 0.973 11.648172402475 528.23710901459 2948.8957886761
3887	1903303 5364 17406 21767 191 234.5 175 -3.7596893310547 2.5 38.511121749878 286.15594122214
3886	1908667 5749 17383 21767 190.75 234.5 176 5.6500000953674 15.64999961853 2223.8224983215 29785.200959071
3885	1914416 5981 17360 21767 190.5 234.5 177 184.17810058594 734.78340148926 78871.899475098 39345830.674173
3884	1920397 6018 17360 21767 190.5 234.5 177 486.85000610352 486.85000610352 86172.451080322 41953058.33441
vector 3989  IntersectionExampleScenario.node[67].veinsmobility  posx  ETV
vector 3990  IntersectionExampleScenario.node[67].veinsmobility  posy  ETV
vector 3991  IntersectionExampleScenario.node[67].veinsmobility  speed  ETV
vector 3992  IntersectionExampleScenario.node[67].veinsmobility  acceleration  ETV
vector 3993  IntersectionExampleScenario.node[67].veinsmobility  co2emission  ETV
3895	1926811 5338 17778 22075 195 237 169 0.973 11.648172402475 497.83197598122 2794.5849146828
3894	1932149 5400 17778 22075 195 237 169 -3.5019035339355 2.5 37.662351608276 241.55637158122
3893	1937549 5480 17753 22075 194.75 237 170 5.6500000953674 15.64999961853 2235.8929538727 30472.623363675
3892	1943029 5771 17728 22075 194.5 237 171 177.97814941406 486.85000610352 67904.402069092 28854108.844597
3891	1948800 5807 17728 22075 194.5 237 171 236.20574951172 486.85000610352 74712.342163086 33642870.418118
vector 3996  IntersectionExampleScenario.node[68].veinsmobility  posx  ETV
vector 3997  IntersectionExampleScenario.node[68].veinsmobility  posy  ETV
vector 3998  IntersectionExampleScenario.node[68].veinsmobility  speed  ETV
vector 3999  IntersectionExampleScenario.node[68].veinsmobility  acceleration  ETV
vector 4000  IntersectionExampleScenario.node[68].veinsmobility  co2emission  ETV
vector 4003  IntersectionExampleScenario.node[69].veinsmobility  posx  ETV
vector 4004  IntersectionExampleScenario.node[69].veinsmobility  posy  ETV
vector 4005  IntersectionExampleScenario.node[69].veinsmobility  speed  ETV
vector 4006  IntersectionExampleScenario.node[69].veinsmobility  acceleration  ETV
vector 4007  IntersectionExampleScenario.node[69].veinsmobility  co2emission  ETV
vector 4010  IntersectionExampleScenario.node[70].veinsmobility  posx  ETV
vector 4011  IntersectionExampleScenario.node[70].veinsmobility  posy  ETV
vector 4012  IntersectionExampleScenario.node[70].veinsmobility  speed  ETV
vector 4013  IntersectionExampleScenario.node[70].veinsmobility  acceleration  ETV
vector 4014  IntersectionExampleScenario.node[70].veinsmobility  co2emission  ETV
vector 4017  IntersectionExampleScenario.node[71].veinsmobility  posx  ETV
vector 4018  IntersectionExampleScenario.node[71].veinsmobility  posy  ETV
vector 4019  IntersectionExampleScenario.node[71].veinsmobility  speed  ETV
vector 4024  IntersectionExampleScenario.node[72].veinsmobility  posx  ETV
vector 4025  IntersectionExampleScenario.node[72].veinsmobility  posy  ETV
vector 4020  IntersectionExampleScenario.node[71].veinsmobility  acceleration  ETV
vector 4021  IntersectionExampleScenario.node[71].veinsmobility  co2emission  ETV
vector 4026  IntersectionExampleScenario.node[72].veinsmobility  speed  ETV
vector 4027  IntersectionExampleScenario.node[72].veinsmobility  acceleration  ETV
vector 4028  IntersectionExampleScenario.node[72].veinsmobility  co2emission  ETV
vector 4031  IntersectionExampleScenario.node[73].veinsmobility  posx  ETV
vector 4032  IntersectionExampleScenario.node[73].veinsmobility  posy  ETV
vector 4033  IntersectionExampleScenario.node[73].veinsmobility  speed  ETV
vector 4034  IntersectionExampleScenario.node[73].veinsmobility  acceleration  ETV
vector 4035  IntersectionExampleScenario.node[73].veinsmobility  co2emission  ETV
vector 4038  IntersectionExampleScenario.node[74].veinsmobility  posx  ETV
vector 4039  IntersectionExampleScenario.node[74].veinsmobility  posy  ETV
vector 4045  IntersectionExampleScenario.node[75].veinsmobility  posx  ETV
vector 4046  IntersectionExampleScenario.node[75].veinsmobility  posy  ETV
vector 4040  IntersectionExampleScenario.node[74].veinsmobility  speed  ETV
vector 4041  IntersectionExampleScenario.node[74].veinsmobility  acceleration  ETV
vector 4042  IntersectionExampleScenario.node[74].veinsmobility  co2emission  ETV
vector 4047  IntersectionExampleScenario.node[75].veinsmobility  speed  ETV
vector 4048  IntersectionExampleScenario.node[75].veinsmobility  acceleration  ETV
vector 4049  IntersectionExampleScenario.node[75].veinsmobility  co2emission  ETV
vector 4052  IntersectionExampleScenario.node[76].veinsmobility  posx  ETV
vector 4053  IntersectionExampleScenario.node[76].veinsmobility  posy  ETV
vector 4054  IntersectionExampleScenario.node[76].veinsmobility  speed  ETV
vector 4055  IntersectionExampleScenario.node[76].veinsmobility  acceleration  ETV
vector 4056  IntersectionExampleScenario.node[76].veinsmobility  co2emission  ETV
vector 4059  IntersectionExampleScenario.node[77].veinsmobility  posx  ETV
vector 4060  IntersectionExampleScenario.node[77].veinsmobility  posy  ETV
vector 4061  IntersectionExampleScenario.node[77].veinsmobility  speed  ETV
vector 4062  IntersectionExampleScenario.node[77].veinsmobility  acceleration  ETV
vector 4063  IntersectionExampleScenario.node[77].veinsmobility  co2emission  ETV
3881	1958567 8758 16885 25279 185.25 260.75 303 0.973 11.450879080643 657.68784127904 2881.750230781
3880	1967325 7947 16885 25279 185.25 260.75 303 -7.0903778076172 4 36.474081039429 461.16872759568
3879	1975272 8190 16860 25279 185 260.75 304 0 15.375 2205.201284647 30385.744960013
3878	1983462 10365 16835 25279 184.75 260.75 305 483.14999389648 785.82187652588 163977.42613983 90368683.786397
3877	1993827 10367 16835 25279 184.75 260.75 305 483.14999389648 734.18954467773 156081.26649475 81084503.784017
3902	2004194 8059 18025 25419 197.5 261.75 258 0.973 11.648172402475 617.63353492572 2932.6063626188
3901	2012253 8341 18025 25419 197.5 261.75 258 -3.7288699150085 2.5000002384186 38.341367721558 339.75282463779
3900	2020594 8497 17998 25419 197.25 261.75 259 0 15.64999961853 2184.6707081618 28754.418096442
3899	2029091 8823 17973 25419 197 261.75 260 486.85000610352 785.82187652588 142862.88124847 80485401.617406
3898	2037914 8817 17973 25419 197 261.75 260 236.89654541016 483.14999389648 117435.36831665 54124284.808433
3909	2046731 8228 18052 25589 197.75 263 262 0.973 11.931770935311 668.88065698125 3195.9920861144
3908	2054959 8259 18052 25589 197.75 263 262 -4.5 2.5000019073486 41.566686630249 454.46816441821
3907	2063218 8652 18025 25589 197.5 263 263 0 16.098371505737 2307.9591703489 31330.751623888
3906	2071870 8941 17998 25589 197.25 263 264 483.14999389648 810.23281097412 147664.90221405 84996821.822827
3905	2080811 8963 17998 25589 197.25 263 264 483.14999389648 733.85871887207 135619.12686157 70766215.722055
vector 4066  IntersectionExampleScenario.node[78].veinsmobility  posx  ETV
vector 4067  IntersectionExampleScenario.node[78].veinsmobility  posy  ETV
vector 4068  IntersectionExampleScenario.node[78].veinsmobility  speed  ETV
vector 4069  IntersectionExampleScenario.node[78].veinsmobility  acceleration  ETV
vector 4070  IntersectionExampleScenario.node[78].veinsmobility  co2emission  ETV
vector 4073  IntersectionExampleScenario.node[79].veinsmobility  posx  ETV
vector 4074  IntersectionExampleScenario.node[79].veinsmobility  posy  ETV
vector 4075  IntersectionExampleScenario.node[79].veinsmobility  speed  ETV
3916	2090399 8446 18290 25928 200 265.5 263 0.973 12.099024792222 689.30046217155 3370.8606629551
3915	2098845 8516 18290 25928 200 265.5 263 -4.5 2.5000009536743 42.415441513062 550.57115939812
3914	2107361 8622 18261 25928 199.75 265.5 264 0 16.31630897522 2306.4167440906 31205.928751311
3913	2115983 8983 18234 25928 199.5 265.5 265 486.73434448242 814.91329193115 149061.44229889 86217036.176558
3912	2124966 9007 18234 25928 199.5 265.5 265 236.33221435547 483.14999389648 120258.89794922 55614857.423965
vector 4076  IntersectionExampleScenario.node[79].veinsmobility  acceleration  ETV
vector 4077  IntersectionExampleScenario.node[79].veinsmobility  co2emission  ETV
3930	2134140 8218 18567 26138 202.5 267 259 0.97223939240464 11.648172402475 636.19296809205 3044.0932665905
3929	2142358 8300 18567 26138 202.5 267 259 -4.5 2.5000019073486 38.680875778198 397.24902176969
3928	2150658 8614 18538 26138 202.25 267 260 0 15.64999961853 2331.0197759047 30777.882736217
3927	2159272 8852 18509 26138 202 267 261 238.83471679688 815.96134185791 139925.57087708 79813868.589406
3926	2168124 8872 18509 26138 202 267 261 483.14999389648 483.14999389648 126102.14840698 60926252.233167
vector 4080  IntersectionExampleScenario.node[80].veinsmobility  posx  ETV
vector 4081  IntersectionExampleScenario.node[80].veinsmobility  posy  ETV
vector 4082  IntersectionExampleScenario.node[80].veinsmobility  speed  ETV
vector 4083  IntersectionExampleScenario.node[80].veinsmobility  acceleration  ETV
vector 4084  IntersectionExampleScenario.node[80].veinsmobility  co2emission  ETV
3965	2177392 5996 20553 26608 223 270.5 191 0.973 11.36141391502 567.87934299169 3012.5414935796
3964	2183388 6026 20553 26608 223 270.5 191 -4.3571014404297 2.5 37.32285118103 376.63496386227
3963	2189414 6208 20530 26608 222.75 270.5 192 3.6789739131927 15.25 2185.9811618328 27907.758215905
3962	2195622 6551 20507 26608 222.5 270.5 193 486.85000610352 785.82187652588 109840.99188995 64297874.155886
3961	2202173 6554 20507 26608 222.5 270.5 193 235.90930175781 483.14999389648 84867.958953857 38332655.167033
3986	2208727 5220 21506 26971 232.25 273.25 165 0.973 11.200708441096 531.49881358641 3238.1635611529
3985	2213947 5106 21506 26971 232.25 273.25 165 -3.8989524841309 2.5 35.455564498901 309.48704847391
3984	2219053 5361 21477 26971 232 273.25 166 5.6500000953674 15.02499961853 2203.9269580841 29954.865293732
3983	2224414 5667 21448 26971 231.75 273.25 167 482.93707275391 785.82187652588 95510.979194641 56444357.840031
3982	2230081 5668 21448 26971 231.75 273.25 167 483.14999389648 732.83306884766 89464.229980469 48928078.426819
vector 4087  IntersectionExampleScenario.node[81].veinsmobility  posx  ETV
vector 4088  IntersectionExampleScenario.node[81].veinsmobility  posy  ETV
vector 4089  IntersectionExampleScenario.node[81].veinsmobility  speed  ETV
vector 4090  IntersectionExampleScenario.node[81].veinsmobility  acceleration  ETV
vector 4091  IntersectionExampleScenario.node[81].veinsmobility  co2emission  ETV
3923	2236145 8955 18319 27511 200.25 277.25 309 0.973 11.00486315618 646.74382623874 2657.9541007229
3922	2245100 7947 18319 27511 200.25 277.25 309 -7.8154296875 4 34.267293930054 454.34505795862
3921	2253047 8401 18290 27511 200 277.25 310 0 14.75 2210.4432520866 29587.229754698
3920	2261448 10574 18261 27511 199.75 277.25 311 486.85000610352 486.85000610352 151410.35189819 73714130.745771
3919	2272022 10562 18261 27511 199.75 277.25 311 236.49285888672 785.82187652588 158566.58802795 85244048.304807
3937	2282584 8559 19216 27666 209 278.5 279 0.973 12.099024792222 671.6711445103 3379.576273648
3936	2291143 9357 19216 27666 209 278.5 279 -3.995715379715 2.5000038146973 42.277074813843 362.47276695756
3935	2300500 9220 19191 27666 208.75 278.5 280 0 16.27499961853 2216.3754439615 29697.147787019
3934	2309720 9554 19166 27666 208.5 278.5 281 486.85000610352 486.85000610352 136804.85171509 66603442.892481
3933	2319274 9512 19166 27666 208.5 278.5 281 236.50842285156 785.82187652588 144606.96970367 78622622.828505
vector 4094  IntersectionExampleScenario.node[82].veinsmobility  posx  ETV
vector 4095  IntersectionExampleScenario.node[82].veinsmobility  posy  ETV
vector 4096  IntersectionExampleScenario.node[82].veinsmobility  speed  ETV
vector 4097  IntersectionExampleScenario.node[82].veinsmobility  acceleration  ETV
vector 4098  IntersectionExampleScenario.node[82].veinsmobility  co2emission  ETV
3944	2329182 8712 19495 27967 211.75 281 278 0.973 11.810082123732 661.94749939973 3161.9727412007
3943	2337894 9127 19495 27967 211.75 281 278 -4.5 2.5 39.699392318726 418.60977312893
3942	2347021 9123 19468 27967 211.5 281 279 0 15.875 2249.7308513075 29572.968817224
3941	2356144 9508 19441 27967 211.25 281 280 486.85000610352 735.11811828613 144468.72415161 75645868.961222
3940	2365652 9496 19441 27967 211.25 281 280 486.72567749023 800.04531860352 155174.00771332 88192565.314088
vector 4101  IntersectionExampleScenario.node[83].veinsmobility  posx  ETV
vector 4102  IntersectionExampleScenario.node[83].veinsmobility  posy  ETV
vector 4103  IntersectionExampleScenario.node[83].veinsmobility  speed  ETV
vector 4104  IntersectionExampleScenario.node[83].veinsmobility  acceleration  ETV
vector 4105  IntersectionExampleScenario.node[83].veinsmobility  co2emission  ETV
3951	2375544 8796 19779 28360 214.5 284.25 280 0.973 11.648172402475 654.99917426783 3077.2056519761
3950	2384340 8980 19779 28360 214.5 284.25 280 -4.5 2.5000000298023 37.832105636597 434.84894261893
3949	2393320 9116 19752 28360 214.25 284.25 281 0 15.64999961853 2269.346207764 29418.776212984
3948	2402436 9583 19725 28360 214 284.25 282 486.85000610352 732.71714782715 145522.1736908 76198544.021043
3947	2412019 9540 19725 28360 214 284.25 282 486.75 807.15704345703 157367.97117615 90135528.88056
3979	2421559 7026 21070 28418 228.25 284.75 227 0.94600815583079 12.353032912318 625.22218639328 3481.4020085669
3978	2428585 7288 21070 28418 228.25 284.75 227 -3.8114302158356 2.5 41.566686630249 389.78903387577
3977	2435873 7427 21043 28418 228 284.75 228 0 16.625 2201.9389745481 29705.106486253
3976	2443300 7779 21016 28418 227.75 284.75 229 238.86187744141 486.85000610352 103611.71838379 47908359.369959
3975	2451079 7771 21016 28418 227.75 284.75 229 483.14599609375 785.82187652588 128242.56887054 73641637.270052
3972	2458850 7887 20741 29233 225 292 269 0.973 11.90022389248 650.74099561788 3152.1401900688
3971	2466737 7054 20741 29233 225 292 269 -6.9388580322266 4 39.869146347046 483.42859168984
3970	2473791 7418 20716 29233 224.75 292 270 0 16 2206.8656001091 31827.855714461
3969	2481209 9190 20691 29233 224.5 292 271 184.17810058594 486.85000610352 116216.95681763 51951618.906488
3968	2490399 9208 20691 29233 224.5 292 271 235.83721923828 486.85000610352 123664.31622314 57561767.64449
4021	2499607 5621 23678 29449 249.25 294.25 181 0.973 12.553400930962 578.80562636456 3379.8054216879
4020	2505228 5683 23678 29449 249.25 294.25 181 -2.1660652160645 2.5000019073486 43.943227767944 324.30230759614
4019	2510911 5881 23645 29449 249 294.25 182 2.6627750396729 16.89999961853 2209.2716357708 30964.340849355
4018	2516792 6187 23612 29449 248.75 294.25 183 184.17810058594 486.85552978516 73936.973052979 31630259.57647
4017	2522979 6202 23612 29449 248.75 294.25 183 237.05535888672 486.85000610352 81349.763336182 37118737.134275
3993	2529181 7425 21858 29472 235.25 294.5 238 0.973 11.200708441096 575.7718099634 2642.4368743018
3992	2536606 7680 21858 29472 235.25 294.5 238 -3.9874153137207 2.5000000596046 35.625318527222 321.97344225753
3991	2544286 7852 21827 29472 235 294.5 239 0 15.02499961853 2191.4700577464 27905.166978161
3990	2552138 8123 21796 29472 234.75 294.5 240 184.17810058594 483.14999389648 99787.452697754 43462504.559946
3989	2560261 8158 21796 29472 234.75 294.5 240 486.85000610352 735.04092407227 125518.78430176 66765026.409136
vector 4108  IntersectionExampleScenario.node[84].veinsmobility  posx  ETV
vector 4109  IntersectionExampleScenario.node[84].veinsmobility  posy  ETV
vector 4110  IntersectionExampleScenario.node[84].veinsmobility  speed  ETV
vector 4111  IntersectionExampleScenario.node[84].veinsmobility  acceleration  ETV
vector 4112  IntersectionExampleScenario.node[84].veinsmobility  co2emission  ETV
4049	2568815 5715 24263 29768 253.5 297.75 178 0.97223939240464 11.648172402475 529.99121328926 2821.0682436607
4048	2574530 5582 24263 29768 253.5 297.75 178 -3.9363708496094 2.5 38.680875778198 291.36139483959
4047	2580112 5796 24226 29768 253.25 297.75 179 4.9034667015076 15.64999961853 2220.6413388252 29789.051439231
4046	2585908 6097 24189 29768 253 297.75 180 179.81719970703 487.06433105469 71819.786956787 30508715.479622
4045	2592005 6104 24189 29768 253 297.75 180 237.38531494141 486.85000610352 79305.025115967 35939112.827289
vector 4115  IntersectionExampleScenario.node[85].veinsmobility  posx  ETV
vector 4116  IntersectionExampleScenario.node[85].veinsmobility  posy  ETV
vector 4117  IntersectionExampleScenario.node[85].veinsmobility  speed  ETV
vector 4118  IntersectionExampleScenario.node[85].veinsmobility  acceleration  ETV
vector 4119  IntersectionExampleScenario.node[85].veinsmobility  co2emission  ETV
4056	2598505 5646 24753 30054 257 301 177 0.973 11.200708441096 520.37775874267 2700.2797910074
4055	2604151 5617 24753 30054 257 301 177 -3.1631774902344 2.5 36.643835067749 267.53681011912
4054	2609768 5740 24718 30054 256.75 301 178 5.6500000953674 15.02499961853 2228.5510015488 29374.690278128
4053	2615508 6067 24683 30054 256.5 301 179 172.35388183594 483.30410766602 70637.646942139 29840356.998049
4052	2621575 6081 24683 30054 256.5 301 179 486.85000610352 732.38121032715 95511.861465454 51937579.748828
4077	2627656 5249 25963 30411 265.75 305.25 159 0.973 11.450879080643 484.95769699595 2576.8657237589
4076	2632905 5095 25963 30411 265.75 305.25 159 -3.5526466369629 2.5 37.32285118103 234.59333375932
4075	2638000 5155 25928 30411 265.5 305.25 160 5.6500000953674 15.375 2205.7984304428 31254.4218523
4074	2643155 5446 25893 30411 265.25 305.25 161 184.17810058594 486.85000610352 64072.229492188 27289355.437596
4073	2648601 5471 25893 30411 265.25 305.25 161 237.26507568359 486.85000610352 69870.56829834 31288479.492633
vector 4122  IntersectionExampleScenario.node[86].veinsmobility  posx  ETV
vector 4123  IntersectionExampleScenario.node[86].veinsmobility  posy  ETV
vector 4124  IntersectionExampleScenario.node[86].veinsmobility  speed  ETV
vector 4125  IntersectionExampleScenario.node[86].veinsmobility  acceleration  ETV
vector 4126  IntersectionExampleScenario.node[86].veinsmobility  co2emission  ETV
3958	2654468 9919 20360 30661 220.75 308.25 351 0.973 11.450879080643 710.01879817714 2946.9194884941
3957	2664387 8609 20360 30661 220.75 308.25 351 -28.772239685059 4 36.98334312439 1202.6845879079
3956	2672996 9047 20338 30661 220.5 308.25 352 0 15.375 2182.6433734894 30644.340274552
3955	2682043 11994 20315 30661 220.25 308.25 353 483.14999389648 733.20059204102 179132.03614807 92124929.396977
3954	2694037 11976 20315 30661 220.25 308.25 353 184.17810058594 486.85000610352 154584.88464355 69962465.48
vector 4129  IntersectionExampleScenario.node[87].veinsmobility  posx  ETV
vector 4130  IntersectionExampleScenario.node[87].veinsmobility  posy  ETV
vector 4131  IntersectionExampleScenario.node[87].veinsmobility  speed  ETV
4000	2706242 8955 22172 30791 237.75 310 290 0.973 11.36141391502 644.40878858719 2843.8734460516
3999	2715197 9106 22172 30791 237.75 310 290 -3.9581201076508 2.5 37.492597579956 335.82691761975
3998	2724303 9187 22139 30791 237.5 310 291 0 15.25 2188.6697248146 28537.292049149
3997	2733490 9921 22106 30791 237.25 310 292 235.78094482422 483.14999389648 132717.26043701 61457789.810856
3996	2743411 9898 22106 30791 237.25 310 292 184.17810058594 483.14999389648 124148.35681152 54841123.202741
vector 4132  IntersectionExampleScenario.node[87].veinsmobility  acceleration  ETV
vector 4133  IntersectionExampleScenario.node[87].veinsmobility  co2emission  ETV
vector 4136  IntersectionExampleScenario.node[88].veinsmobility  posx  ETV
vector 4137  IntersectionExampleScenario.node[88].veinsmobility  posy  ETV
vector 4138  IntersectionExampleScenario.node[88].veinsmobility  speed  ETV
vector 4139  IntersectionExampleScenario.node[88].veinsmobility  acceleration  ETV
vector 4140  IntersectionExampleScenario.node[88].veinsmobility  co2emission  ETV
vector 4143  IntersectionExampleScenario.node[89].veinsmobility  posx  ETV
vector 4144  IntersectionExampleScenario.node[89].veinsmobility  posy  ETV
vector 4145  IntersectionExampleScenario.node[89].veinsmobility  speed  ETV
vector 4146  IntersectionExampleScenario.node[89].veinsmobility  acceleration  ETV
vector 4147  IntersectionExampleScenario.node[89].veinsmobility  co2emission  ETV
4035	2754268 7819 23850 31028 250.5 313 251 0.973 10.756497587458 562.38236826565 2398.5641789985
4034	2762087 8097 23850 31028 250.5 313 251 -3.9616513252258 2.5 33.418523788452 299.01077960971
4033	2770184 8278 23815 31028 250.25 313 252 0 14.39999961853 2072.3790142536 25255.622411957
4032	2778462 8594 23780 31028 250 313 253 483.14999389648 733.10093688965 131343.1000061 69377116.530334
4031	2787056 8574 23780 31028 250 313 253 217.29217529297 486.85000610352 107895.15136719 47500655.593932
4014	2795630 8303 23550 31149 248.25 314.5 266 0.973 11.430502403531 662.75228357203 2889.9978650315
4013	2803933 8776 23550 31149 248.25 314.5 266 -4.5 2.5 38.420347213745 504.28436055994
4012	2812709 8825 23519 31149 248 314.5 267 0 15.346546173096 2205.8031166308 26549.193983021
4011	2821534 9106 23488 31149 247.75 314.5 268 483.14999389648 733.27676391602 138120.88198853 72347186.262146
4010	2830640 9081 23488 31149 247.75 314.5 268 184.17810058594 486.87847900391 109315.05065918 46795921.967301
vector 4150  IntersectionExampleScenario.node[90].veinsmobility  posx  ETV
vector 4151  IntersectionExampleScenario.node[90].veinsmobility  posy  ETV
vector 4152  IntersectionExampleScenario.node[90].veinsmobility  speed  ETV
4028	2839950 8402 23747 31284 249.75 316.25 267 0.973 11.36141391502 676.13610220756 2997.026826812
4027	2848352 8599 23747 31284 249.75 316.25 267 -4.5 2.5 40.038900375366 521.26055625013
4026	2856951 8794 23713 31284 249.5 316.25 268 0 15.687860488892 2270.8807562403 28480.675550876
4025	2865745 9122 23678 31284 249.25 316.25 269 235.6376953125 483.14999389648 121908.38937378 56330574.919185
4024	2874867 9115 23678 31284 249.25 316.25 269 163.88433837891 483.14999389648 107840.59954834 45605211.895322
vector 4153  IntersectionExampleScenario.node[90].veinsmobility  acceleration  ETV
vector 4154  IntersectionExampleScenario.node[90].veinsmobility  co2emission  ETV
vector 4157  IntersectionExampleScenario.node[91].veinsmobility  posx  ETV
vector 4158  IntersectionExampleScenario.node[91].veinsmobility  posy  ETV
vector 4159  IntersectionExampleScenario.node[91].veinsmobility  speed  ETV
vector 4160  IntersectionExampleScenario.node[91].veinsmobility  acceleration  ETV
vector 4161  IntersectionExampleScenario.node[91].veinsmobility  co2emission  ETV
vector 4164  IntersectionExampleScenario.node[92].veinsmobility  posx  ETV
vector 4165  IntersectionExampleScenario.node[92].veinsmobility  posy  ETV
vector 4166  IntersectionExampleScenario.node[92].veinsmobility  speed  ETV
vector 4167  IntersectionExampleScenario.node[92].veinsmobility  acceleration  ETV
vector 4168  IntersectionExampleScenario.node[92].veinsmobility  co2emission  ETV
4105	2884941 5199 28237 31830 283.25 322.25 157 0.973 11.648172402475 491.67328094614 2661.8830918692
4104	2890140 4952 28237 31830 283.25 322.25 157 -3.5473976135254 2.5 38.511121749878 239.05859126282
4103	2895092 5083 28206 31830 283 322.25 158 5.6500000953674 15.64999961853 2209.3023366928 31835.230810475
4102	2900175 5395 28175 31830 282.75 322.25 159 483.14999389648 733.34700012207 85223.792556763 46635729.580214
4101	2905570 5386 28175 31830 282.75 322.25 159 184.17810058594 486.85000610352 63316.749542236 26988675.197642
vector 4171  IntersectionExampleScenario.node[93].veinsmobility  posx  ETV
vector 4172  IntersectionExampleScenario.node[93].veinsmobility  posy  ETV
vector 4173  IntersectionExampleScenario.node[93].veinsmobility  speed  ETV
vector 4174  IntersectionExampleScenario.node[93].veinsmobility  acceleration  ETV
vector 4175  IntersectionExampleScenario.node[93].veinsmobility  co2emission  ETV
4007	2911352 9213 22804 31986 242.5 323.75 326 0.973 12.099024792222 706.5579965086 3314.9684007621
4006	2920565 8438 22804 31986 242.5 323.75 326 -7.1991386413574 4 40.038900375366 504.15875146087
4005	2929003 8505 22769 31986 242.25 323.75 327 0 16.27499961853 2169.3133356571 31275.241845263
4004	2937508 11137 22734 31986 242 323.75 328 486.63604736328 785.82187652588 175242.4615097 95793124.081643
4003	2948645 11081 22734 31986 242 323.75 328 239.04711914062 483.14999389648 150634.55410767 70262206.706002
vector 4178  IntersectionExampleScenario.node[94].veinsmobility  posx  ETV
vector 4179  IntersectionExampleScenario.node[94].veinsmobility  posy  ETV
4063	2959878 7877 25279 32040 260.75 324.25 255 0.96997852711604 12.553400930962 653.14102962872 3541.1377276734
4062	2967755 8329 25279 32040 260.75 324.25 255 -3.7851614952087 2.5 42.585195541382 379.89552115159
4061	2976084 8304 25244 32040 260.5 324.25 256 0 16.89999961853 2206.6938111484 30973.303228604
4060	2984388 8682 25208 32040 260.25 324.25 257 239.22631835938 785.82187652588 133339.86058807 73109660.333324
4059	2993070 8739 25208 32040 260.25 324.25 257 483.14999389648 483.14999389648 124169.5484314 59992516.566758
vector 4180  IntersectionExampleScenario.node[94].veinsmobility  speed  ETV
vector 4181  IntersectionExampleScenario.node[94].veinsmobility  acceleration  ETV
vector 4182  IntersectionExampleScenario.node[94].veinsmobility  co2emission  ETV
[...]
6596	18054169 8675 166615 173304 1684.75 1764 318 -6.9388580322266 4 39.869146347046 486.92859168984
6595	18062844 9065 166588 173304 1684.5 1764 319 0 16 2219.9751734734 32151.358126084
6594	18071909 11494 166560 173304 1684.25 1764 320 184.17810058594 735.07762145996 147369.62918091 72019150.438074
6593	18083403 11520 166560 173304 1684.25 1764 320 486.85000610352 486.85000610352 155792.00195312 75847337.101758
6618	18094923 8840 168046 173382 1698.75 1765.5 268 0.973 11.810082123732 634.0182213481 3065.7436451323
6617	18103763 9363 168046 173382 1698.75 1765.5 268 -3.7085783481598 2.5 39.020376205444 349.2730804838
6616	18113126 9172 168019 173382 1698.5 1765.5 269 0 15.875 2179.9622768322 28962.694418856
6615	18122298 9678 167992 173382 1698.25 1765.5 270 184.17810058594 483.14999389648 114048.78451538 50174048.720379
6614	18131976 9718 167992 173382 1698.25 1765.5 270 486.85000610352 731.89633178711 139462.91461182 73104126.2101
6625	18141694 8734 168358 173473 1701.75 1767.25 263 0.973 11.990504229548 644.49513947018 3146.8490148465
6624	18150428 9193 168358 173473 1701.75 1767.25 263 -4.5 2.5 39.699392318726 403.83439691761
6623	18159621 9266 168333 173473 1701.5 1767.25 264 0 16.125 2267.918255033 30275.695329003
6622	18168887 9481 168308 173473 1701.25 1767.25 265 171.40313720703 733.37628173828 117698.97991943 56671253.974648
6621	18178368 9541 168308 173473 1701.25 1767.25 265 486.85000610352 486.85000610352 129015.25161743 62811076.037393
vector 6698  IntersectionExampleScenario.node[454].veinsmobility  posx  ETV
vector 6699  IntersectionExampleScenario.node[454].veinsmobility  posy  ETV
vector 6700  IntersectionExampleScenario.node[454].veinsmobility  speed  ETV
vector 6701  IntersectionExampleScenario.node[454].veinsmobility  acceleration  ETV
vector 6702  IntersectionExampleScenario.node[454].veinsmobility  co2emission  ETV
6632	18188310 7330 169493 173633 1714.5 1770.25 224 0.973 11.54047740176 565.4293285324 2758.9328883072
6631	18195640 7767 169493 173633 1714.5 1770.25 224 -3.9469587802887 2.5000009536743 36.98334312439 316.75176530066
6630	18203407 7859 169470 173633 1714.25 1770.25 225 0 15.5 2213.0020118803 28696.937800679
6629	18211266 8078 169447 173633 1714 1770.25 226 184.17810058594 732.265625 100876.69113159 49238540.728644
6628	18219344 8135 169447 173633 1714 1770.25 226 486.85000610352 486.85000610352 110028.10137939 53567181.828116
6653	18227479 7359 169906 173798 1718.75 1773 218 0.973 11.450879080643 590.0019038624 2958.6293444841
6652	18234838 7311 169906 173798 1718.75 1773 218 -4.5 2.5 37.32285118103 464.78633905865
6651	18242149 7584 169881 173798 1718.5 1773 219 0 15.375 2118.3677333891 26947.41955395
6650	18249733 7892 169856 173798 1718.25 1773 220 206.40545654297 486.85000610352 91229.305633545 39355878.780896
6649	18257625 7900 169856 173798 1718.25 1773 220 237.1083984375 486.85000610352 98583.666107178 45264736.218644
vector 6705  IntersectionExampleScenario.node[455].veinsmobility  posx  ETV
vector 6706  IntersectionExampleScenario.node[455].veinsmobility  posy  ETV
vector 6707  IntersectionExampleScenario.node[455].veinsmobility  speed  ETV
vector 6712  IntersectionExampleScenario.node[456].veinsmobility  posx  ETV
vector 6713  IntersectionExampleScenario.node[456].veinsmobility  posy  ETV
vector 6708  IntersectionExampleScenario.node[455].veinsmobility  acceleration  ETV
vector 6709  IntersectionExampleScenario.node[455].veinsmobility  co2emission  ETV
6639	18266080 8043 169612 173937 1715.75 1775.25 239 0.973 11.810082123732 692.3960021754 3545.2011291938
6638	18274123 7969 169612 173937 1715.75 1775.25 239 -4.5 2.5 38.850629806519 631.13062636248
6637	18282092 8306 169587 173937 1715.5 1775.25 240 0 15.875 2276.6135668792 28270.588133
6636	18290398 8657 169562 173937 1715.25 1775.25 241 162.90466308594 483.14999389648 94960.158935547 39826932.321837
6635	18299055 8670 169562 173937 1715.25 1775.25 241 486.85000610352 735.2283782959 125579.8341217 66516901.962462
vector 6714  IntersectionExampleScenario.node[456].veinsmobility  speed  ETV
vector 6715  IntersectionExampleScenario.node[456].veinsmobility  acceleration  ETV
vector 6716  IntersectionExampleScenario.node[456].veinsmobility  co2emission  ETV
vector 6719  IntersectionExampleScenario.node[457].veinsmobility  posx  ETV
vector 6720  IntersectionExampleScenario.node[457].veinsmobility  posy  ETV
vector 6726  IntersectionExampleScenario.node[458].veinsmobility  posx  ETV
vector 6727  IntersectionExampleScenario.node[458].veinsmobility  posy  ETV
vector 6733  IntersectionExampleScenario.node[459].veinsmobility  posx  ETV
vector 6734  IntersectionExampleScenario.node[459].veinsmobility  posy  ETV
vector 6721  IntersectionExampleScenario.node[457].veinsmobility  speed  ETV
vector 6728  IntersectionExampleScenario.node[458].veinsmobility  speed  ETV
6646	18308590 8106 169713 174055 1716.75 1776.75 241 0.973 11.54047740176 632.03444844203 2890.5364166755
6645	18316696 7928 169713 174055 1716.75 1776.75 241 -5.0331802368164 2.5 38.320159912109 492.30007561601
6644	18324624 8288 169688 174055 1716.5 1776.75 242 0 15.5 2346.5762453079 29303.510814127
6643	18332912 8724 169662 174055 1716.25 1776.75 243 151.36639404297 732.63339233398 102662.18667603 48731519.730731
6642	18341636 8750 169662 174055 1716.25 1776.75 243 486.84994506836 486.85000610352 118304.55099487 57596571.136208
vector 6722  IntersectionExampleScenario.node[457].veinsmobility  acceleration  ETV
vector 6723  IntersectionExampleScenario.node[457].veinsmobility  co2emission  ETV
vector 6729  IntersectionExampleScenario.node[458].veinsmobility  acceleration  ETV
vector 6730  IntersectionExampleScenario.node[458].veinsmobility  co2emission  ETV
vector 6735  IntersectionExampleScenario.node[459].veinsmobility  speed  ETV
vector 6736  IntersectionExampleScenario.node[459].veinsmobility  acceleration  ETV
vector 6737  IntersectionExampleScenario.node[459].veinsmobility  co2emission  ETV
vector 6740  IntersectionExampleScenario.node[460].veinsmobility  posx  ETV
vector 6741  IntersectionExampleScenario.node[460].veinsmobility  posy  ETV
vector 6742  IntersectionExampleScenario.node[460].veinsmobility  speed  ETV
vector 6743  IntersectionExampleScenario.node[460].veinsmobility  acceleration  ETV
vector 6744  IntersectionExampleScenario.node[460].veinsmobility  co2emission  ETV
vector 6747  IntersectionExampleScenario.node[461].veinsmobility  posx  ETV
vector 6748  IntersectionExampleScenario.node[461].veinsmobility  posy  ETV
vector 6749  IntersectionExampleScenario.node[461].veinsmobility  speed  ETV
vector 6750  IntersectionExampleScenario.node[461].veinsmobility  acceleration  ETV
vector 6751  IntersectionExampleScenario.node[461].veinsmobility  co2emission  ETV
vector 6754  IntersectionExampleScenario.node[462].veinsmobility  posx  ETV
vector 6755  IntersectionExampleScenario.node[462].veinsmobility  posy  ETV
vector 6756  IntersectionExampleScenario.node[462].veinsmobility  speed  ETV
vector 6757  IntersectionExampleScenario.node[462].veinsmobility  acceleration  ETV
vector 6758  IntersectionExampleScenario.node[462].veinsmobility  co2emission  ETV
vector 6761  IntersectionExampleScenario.node[463].veinsmobility  posx  ETV
vector 6762  IntersectionExampleScenario.node[463].veinsmobility  posy  ETV
vector 6763  IntersectionExampleScenario.node[463].veinsmobility  speed  ETV
vector 6764  IntersectionExampleScenario.node[463].veinsmobility  acceleration  ETV
vector 6765  IntersectionExampleScenario.node[463].veinsmobility  co2emission  ETV
vector 6768  IntersectionExampleScenario.node[464].veinsmobility  posx  ETV
vector 6769  IntersectionExampleScenario.node[464].veinsmobility  posy  ETV
vector 6770  IntersectionExampleScenario.node[464].veinsmobility  speed  ETV
vector 6775  IntersectionExampleScenario.node[465].veinsmobility  posx  ETV
vector 6776  IntersectionExampleScenario.node[465].veinsmobility  posy  ETV
vector 6771  IntersectionExampleScenario.node[464].veinsmobility  acceleration  ETV
vector 6772  IntersectionExampleScenario.node[464].veinsmobility  co2emission  ETV
vector 6777  IntersectionExampleScenario.node[465].veinsmobility  speed  ETV
vector 6778  IntersectionExampleScenario.node[465].veinsmobility  acceleration  ETV
vector 6779  IntersectionExampleScenario.node[465].veinsmobility  co2emission  ETV
vector 6782  IntersectionExampleScenario.node[466].veinsmobility  posx  ETV
vector 6783  IntersectionExampleScenario.node[466].veinsmobility  posy  ETV
vector 6784  IntersectionExampleScenario.node[466].veinsmobility  speed  ETV
vector 6785  IntersectionExampleScenario.node[466].veinsmobility  acceleration  ETV
vector 6786  IntersectionExampleScenario.node[466].veinsmobility  co2emission  ETV
vector 6789  IntersectionExampleScenario.node[467].veinsmobility  posx  ETV
vector 6790  IntersectionExampleScenario.node[467].veinsmobility  posy  ETV
6674	18353932 6894 171932 176161 1744.75 1796.75 209 0.973 11.36141391502 560.85776973841 2759.7408988114
6673	18360826 6520 171932 176161 1744.75 1796.75 209 -8.6810245513916 4 36.134572982788 473.1830623113
6672	18367346 6701 171911 176161 1744.5 1796.75 210 0 15.25 2178.0970487595 29705.218555888
6671	18374047 7584 171890 176161 1744.25 1796.75 211 486.63604736328 785.82187652588 117430.95630646 67321044.778112
6670	18381631 7533 171890 176161 1744.25 1796.75 211 236.32275390625 483.14999389648 93440.529449463 42434190.390009
vector 6791  IntersectionExampleScenario.node[467].veinsmobility  speed  ETV
vector 6792  IntersectionExampleScenario.node[467].veinsmobility  acceleration  ETV
vector 6793  IntersectionExampleScenario.node[467].veinsmobility  co2emission  ETV
6681	18389411 7009 171978 176260 1745.25 1797.5 210 0.973 11.54047740176 575.51443740206 2803.2862495433
6680	18396420 6625 171978 176260 1745.25 1797.5 210 -4.5 2.5 36.98334312439 457.1151764731
6679	18403045 6923 171955 176260 1745 1797.5 211 0 15.5 2304.8355258573 31676.311486692
6678	18409968 7613 171932 176260 1744.75 1797.5 212 238.18682861328 809.56562805176 112088.08918762 64085314.04207
6677	18417581 7632 171932 176260 1744.75 1797.5 212 483.14999389648 483.14999389648 102427.79870605 49487990.31966
6660	18425213 8063 170982 176586 1732.25 1800 272 0.973 11.36141391502 571.97732170941 2668.7043246711
6659	18433276 7057 170982 176586 1732.25 1800 272 -8.4870567321777 4 37.547620773315 476.33841480553
6658	18440333 7368 170963 176586 1732 1800 273 0 15.25 1429.5353281498 18928.252068432
6657	18447701 9802 170944 176586 1731.75 1800 274 486.85000610352 546.31546020508 133994.0022583 65547910.363797
6656	18457503 9852 170944 176586 1731.75 1800 274 486.63604736328 785.82187652588 149291.90898895 83403658.35407
6667	18467355 7584 171072 176586 1733.5 1800 267 0.973 11.648172402475 478.33242936385 2001.0155770258
6666	18474939 7172 171072 176586 1733.5 1800 267 -27.956996917725 2.5 -22.60000038147 1062.5124957553
6665	18482111 7393 171053 176586 1733.25 1800 268 0 15.64999961853 1148.7102031708 13408.931844827
6664	18489504 9656 171034 176586 1733 1800 269 184.17810058594 471.60000610352 112316.9513855 48868297.355723
6663	18499160 9682 171034 176586 1733 1800 269 486.85000610352 486.85000610352 130962.65164185 63759167.751165
6688	18508842 6121 172582 176586 1752.5 1800 191 0.973 11.200708441096 350.46244201316 1385.4036042772
6687	18514963 6878 172582 176586 1752.5 1800 191 -3.820746421814 2.5 -22.60000038147 185.69003590006
6686	18521841 6743 172563 176586 1752.25 1800 192 0 15.02499961853 1123.2214149535 13844.816556535
6685	18528584 6914 172544 176586 1752 1800 193 184.17810058594 465.20056152344 76686.709472656 32089689.976464
6684	18535498 6946 172544 176586 1752 1800 193 486.85000610352 486.85000610352 93962.051177979 45745425.189498
6695	18542444 5130 172932 176586 1757.5 1800 171 0.973 12.099024792222 360.7441957411 1687.8391526149
6694	18547574 4562 172932 176586 1757.5 1800 171 -33.933929443359 2.5 -22.60000038147 1366.2558902983
6693	18552136 4855 172915 176586 1757.25 1800 172 0 16.27499961853 1145.032995224 17230.466239143
6692	18556991 6226 172898 176586 1757 1800 173 483.14999389648 483.14999389648 83584.948944092 40384067.572176
6691	18563217 6201 172898 176586 1757 1800 173 184.17810058594 471.60000610352 69200.824707031 29347012.290471
6702	18569418 4213 173633 176586 1770.25 1800 120 0.973 11.648172402475 398.37794178399 2307.595151117
6701	18573631 3882 173633 176586 1770.25 1800 120 -3.3639106750488 2.5 38.512701034546 193.75150965675
6700	18577513 4121 173618 176586 1770 1800 121 5.6500000953674 15.64999961853 1701.9792318344 24547.246819574
6699	18581634 4359 173603 176586 1769.75 1800 122 365.51571655273 785.82187652588 71109.326667786 43406774.974375
6698	18585993 4391 173603 176586 1769.75 1800 122 483.14999389648 483.14999389648 58944.299255371 28478937.825465
6709	18590384 3351 173937 176586 1775.25 1800 100 0.973 11.648172402475 350.72821840124 2240.7342651883
6708	18593735 3243 173937 176586 1775.25 1800 100 -3.2457084655762 2.5 18.89999961853 269.46309930287
6707	18596978 3430 173920 176586 1775 1800 101 5.6500000953674 15.64999961853 1274.1370286942 16823.140638694
6706	18600408 3665 173903 176586 1774.75 1800 102 468.1520690918 486.85000610352 49565.055969238 24086317.052666
6705	18604073 3663 173903 176586 1774.75 1800 102 483.14999389648 785.82187652588 63790.61794281 40890222.009419
6716	18607736 3119 173975 176586 1775.75 1800 98 0.973 11.200708441096 247.55181428288 1265.1177251761
6715	18610855 3514 173975 176586 1775.75 1800 98 -2.0913848876953 2.5 -11.410766601562 161.22405913807
6714	18614369 3547 173956 176586 1775.5 1800 99 2.7973084449768 15.02499961853 1085.6780366898 13612.303778103
6713	18617916 3600 173937 176586 1775.25 1800 100 483.14999389648 483.14999389648 48314.999389648 23343391.660217
6712	18621516 3569 173937 176586 1775.25 1800 100 184.17810058594 454.83990478516 33429.975646973 11989686.616914
6723	18625085 3088 174080 176586 1777 1800 93 0.973 11.648172402475 267.70086122345 1443.5667335017
6722	18628173 3129 174080 176586 1777 1800 93 -7.7750473022461 2.5 -22.60000038147 320.25519313237
6721	18631302 3281 174055 176586 1776.75 1800 94 0 15.64999961853 1146.6267495155 16088.567755537
6720	18634583 3408 174032 176586 1776.5 1800 95 498.39999389648 785.82187652588 60164.642066956 38989552.246994
6719	18637991 3419 174032 176586 1776.5 1800 95 483.14999389648 483.14999389648 45899.249420166 22176222.077206
6730	18641410 3125 174080 176586 1777 1800 93 0.973 11.200708441096 274.02892308719 1391.1286128819
6729	18644535 3279 174080 176586 1777 1800 93 -4.5 2.5 -4.4840469360352 269.69184155656
6728	18647814 3364 174055 176586 1776.75 1800 94 3.4206035137177 15.693223953247 1092.6965014935 14659.502014237
6727	18651178 3419 174032 176586 1776.5 1800 95 483.14999389648 483.14999389648 45899.249420166 22176222.077206
6726	18654597 3392 174032 176586 1776.5 1800 95 162.90466308594 434.78057861328 29626.618408203 10035026.915975
6737	18657989 3168 174105 176586 1777.25 1800 92 0.973 10.880438239795 256.38549981547 1196.2652566071
6736	18661157 3091 174105 176586 1777.25 1800 92 -4.5 2.5 -0.12319755554199 206.76473653106
6735	18664248 3334 174080 176586 1777 1800 93 5.6192007064819 14.57483291626 1185.7918519974 15774.197178417
6734	18667582 3373 174055 176586 1776.75 1800 94 515.60211181641 810.23281097412 63029.999755859 43080103.219367
6733	18670955 3383 174055 176586 1776.75 1800 94 483.14999389648 483.14999389648 45416.09942627 21942788.160604
6744	18674338 2275 174686 176586 1783.5 1800 67 0.97223939240464 11.648172402475 224.36093238954 1361.7761868819
6743	18676613 2328 174686 176586 1783.5 1800 67 -2.1651649475098 2.5 14.229043960571 146.65096340228
6742	18678941 2433 174663 176586 1783.25 1800 68 5.6500000953674 15.64999961853 912.44802284241 12739.584446211
6741	18681374 2461 174640 176586 1783 1800 69 184.17810058594 409.19808959961 20072.537139893 6195384.1145981
6740	18683835 2482 174640 176586 1783 1800 69 486.85000610352 486.85000610352 33592.650421143 16354582.062567
6751	18686317 1979 174897 176586 1785.75 1800 58 0.973 11.200708441096 219.63207769047 1302.4846413079
6750	18688296 1993 174897 176586 1785.75 1800 58 -2.7276763916016 2.5 26.145917892456 123.16777582348
6749	18690289 2106 174872 176586 1785.5 1800 59 5.6500000953674 15.935581207275 822.11445713043 11907.700025812
6748	18692395 2157 174847 176586 1785.25 1800 60 584.26480102539 785.82187652588 41658.11782074 29167014.0448
6747	18694552 2160 174847 176586 1785.25 1800 60 483.14999389648 483.14999389648 28988.999633789 14006034.99613
6758	18696712 1757 175126 176586 1788 1800 49 2.0335675990297 10.756497587458 183.98744428258 1078.2557916536
6757	18698469 1708 175126 176586 1788 1800 49 -0.013423919677734 2.5 34.94630241394 87.50040238057
6756	18700177 1786 175099 176586 1787.75 1800 50 5.6500000953674 14.39999961853 653.94538879395 8862.117051141
6755	18701963 1835 175072 176586 1787.5 1800 51 486.85000610352 486.85000610352 24829.350311279 12088169.350593
6754	18703798 1825 175072 176586 1787.5 1800 51 627.10302734375 785.82187652588 36450.60017395 26178000.011042
6765	18705623 1363 175427 176586 1790.75 1800 38 1.8558938120954 11.648172402475 181.99485648014 1292.6088392666
6764	18706986 1257 175427 176586 1790.75 1800 38 -0.094650268554688 2.5 39.734842300415 100.01300070064
6763	18708243 1389 175398 176586 1790.5 1800 39 5.6500000953674 15.64999961853 524.68461036682 7455.0484263986
6762	18709632 1423 175369 176586 1790.25 1800 40 184.17810058594 310.12817382812 9523.7709350586 2331028.3491672
6761	18711055 1440 175369 176586 1790.25 1800 40 486.85000610352 486.85000610352 19474.000244141 9480917.1377197
6772	18712495 1075 175662 176586 1792.75 1800 30 2.0824149014042 10.756497587458 157.7458844031 1065.2618657345
6771	18713570 945 175662 176586 1792.75 1800 30 -0.02484130859375 2.5 38.372800827026 88.487972149484
6770	18714515 1106 175632 176586 1792.5 1800 31 5.6500000953674 15.260183334351 389.79474163055 5200.6632941395
6769	18715621 1152 175601 176586 1792.25 1800 32 486.85000610352 486.85000610352 15579.200195312 7584733.7101758
6768	18716773 1149 175601 176586 1792.25 1800 32 693.43444824219 785.82187652588 23908.963363647 17890956.348159
6779	18717922 1004 175724 176586 1793.25 1800 28 2.0143330322084 10.493623190172 147.83616006278 1032.3564120375
6778	18718926 949 175724 176586 1793.25 1800 28 -0.035255432128906 2.5 37.161031723022 86.514098907272
6777	18719875 1038 175693 176586 1793 1800 29 5.6500000953674 14.973529815674 347.47114086151 4437.8076569413
6776	18720913 1079 175662 176586 1792.75 1800 30 486.85000610352 486.85000610352 14605.500183105 7110687.8532898
6775	18721992 1077 175662 176586 1792.75 1800 30 727.6731262207 809.56562805176 23272.570388794 18073473.065064
6786	18723069 634 176037 176586 1795.75 1800 18 0.973 11.648172402475 136.26228685172 1190.8793354728
6785	18723703 471 176037 176586 1795.75 1800 18 -0.41465759277344 2.5 39.274343490601 100.26865052228
6784	18724174 673 176005 176586 1795.5 1800 19 5.6500000953674 15.64999961853 212.06491661072 2568.5230776322
6783	18724847 720 175972 176586 1795.25 1800 20 738.00093078613 785.82187652588 15336.957344055 11765609.660471
6782	18725567 720 175972 176586 1795.25 1800 20 483.14999389648 483.14999389648 9662.9998779297 4668678.3320435
6793	18726287 429 176227 176586 1797.25 1800 12 5.2162187258585 9.8772939209111 90.329754123875 705.60800469607
6792	18726716 300 176227 176586 1797.25 1800 12 2.4999980926514 2.5 29.999998092651 74.99999046326
6791	18727016 460 176194 176586 1797 1800 13 5.6500000953674 13.14999961853 122.19999694824 1219.7736818981
6790	18727476 503 176161 176586 1796.75 1800 14 486.85000610352 486.85000610352 6815.9000854492 3318320.9982019
6789	18727979 501 176161 176586 1796.75 1800 14 778.63606262207 804.96104431152 11120.68598938 8834556.6247041
3516	18728480 606 0 176585 0 1800 31 0 23 485 8115
3517	18729086 621 0 176585 0 1800 31 0 212 3233 463245
