file 18527857 1591488038                                        
version 2
run nodebug-11-20200606-19:56:57-18208
attr configname nodebug
attr datetime 20200606-19:56:57
attr experiment nodebug
attr inifile omnetpp.ini
attr iterationvars ""
attr iterationvars2 $repetition=11
attr measurement ""
attr network "\"org.car2x.veins.modules.application.ExtTraCIScenarioManagerLaunchd.IntersectionExampleScenario\""
attr processid 18208
attr repetition 11
attr replication #11
attr resultdir results
attr runnumber 11
attr seedset 11
param **.coreDebug false
param **.debug false
param *.**.nic.mac1609_4.bitrate 18Mbps
param *.**.nic.mac1609_4.txPower 20mW
param *.**.nic.mac1609_4.useServiceChannel false
param *.**.nic.phy80211p.analogueModels "xmldoc(\"config.xml\")"
param *.**.nic.phy80211p.decider "xmldoc(\"config.xml\")"
param *.**.nic.phy80211p.sensitivity -89dBm
param *.**.nic.phy80211p.thermalNoise -110dBm
param *.**.nic.phy80211p.usePropagationDelay true
param *.**.nic.phy80211p.useThermalNoise true
param *.annotations.draw false
param *.connectionManager.alpha 2.0
param *.connectionManager.carrierFrequency "5.890e9 Hz"
param *.connectionManager.pMax 20mW
param *.connectionManager.sat -89dBm
param *.connectionManager.sendDirect true
param *.manager.autoShutdown true
param *.manager.host "\"localhost\""
param *.manager.launchConfig "xmldoc(\"paramics.launchd.xml\")"
param *.manager.margin 25
param *.manager.moduleDisplayString "\"\""
param *.manager.moduleName "\"node\""
param *.manager.moduleType "\"org.car2x.veins.nodes.Car\""
param *.manager.port 9999
param *.manager.updateInterval 250ms
param *.node[*0].veinsmobility.accidentCount 0
param *.node[*0].veinsmobility.accidentDuration 30s
param *.node[*0].veinsmobility.accidentStart 75s
param *.node[*].appl.LiderSelectZoneRadio 55.0
param *.node[*].appl.ShareDataZoneRadio 110.0
param *.node[*].appl.TiempoSemaforo 30.0
param *.node[*].appl.beaconInterval 1s
param *.node[*].appl.beaconPriority 3
param *.node[*].appl.dataOnSch false
param *.node[*].appl.dataPriority 2
param *.node[*].appl.debug false
param *.node[*].appl.headerLength "256 bit"
param *.node[*].appl.maxOffset 0.005s
param *.node[*].appl.sendBeacons false
param *.node[*].appl.sendData true
param *.node[*].applType "\"Dummy\""
param *.node[*].mobilityType "\"TraCIMobility\""
param *.node[*].mobilityType.debug true
param *.node[*].veinsmobility.x 0
param *.node[*].veinsmobility.y 0
param *.node[*].veinsmobility.z 1.895
param *.node[*].veinsmobilityType "\"org.car2x.veins.modules.mobility.traci.TraCIMobility\""
param *.node[*].veinsmobilityType.debug true
param *.playgroundSizeX 8500m
param *.playgroundSizeY 8500m
param *.playgroundSizeZ 50m
param *.world.use2D false
param *.world.useTorus false

vector 6798  IntersectionExampleScenario.manager  vehiclesinsim  ETV
attr type  int
vector 6799  IntersectionExampleScenario.manager  realtime  ETV
attr type  int
attr unit  s
vector 6802  IntersectionExampleScenario.node[0].veinsmobility  posx  ETV
vector 6803  IntersectionExampleScenario.node[0].veinsmobility  posy  ETV
vector 6804  IntersectionExampleScenario.node[0].veinsmobility  speed  ETV
vector 6805  IntersectionExampleScenario.node[0].veinsmobility  acceleration  ETV
vector 6806  IntersectionExampleScenario.node[0].veinsmobility  co2emission  ETV
vector 6809  IntersectionExampleScenario.node[1].veinsmobility  posx  ETV
vector 6810  IntersectionExampleScenario.node[1].veinsmobility  posy  ETV
vector 6811  IntersectionExampleScenario.node[1].veinsmobility  speed  ETV
vector 6812  IntersectionExampleScenario.node[1].veinsmobility  acceleration  ETV
vector 6813  IntersectionExampleScenario.node[1].veinsmobility  co2emission  ETV
vector 6816  IntersectionExampleScenario.node[2].veinsmobility  posx  ETV
vector 6817  IntersectionExampleScenario.node[2].veinsmobility  posy  ETV
vector 6818  IntersectionExampleScenario.node[2].veinsmobility  speed  ETV
vector 6819  IntersectionExampleScenario.node[2].veinsmobility  acceleration  ETV
vector 6820  IntersectionExampleScenario.node[2].veinsmobility  co2emission  ETV
vector 6823  IntersectionExampleScenario.node[3].veinsmobility  posx  ETV
vector 6824  IntersectionExampleScenario.node[3].veinsmobility  posy  ETV
vector 6825  IntersectionExampleScenario.node[3].veinsmobility  speed  ETV
vector 6826  IntersectionExampleScenario.node[3].veinsmobility  acceleration  ETV
vector 6827  IntersectionExampleScenario.node[3].veinsmobility  co2emission  ETV
vector 6830  IntersectionExampleScenario.node[4].veinsmobility  posx  ETV
vector 6831  IntersectionExampleScenario.node[4].veinsmobility  posy  ETV
vector 6832  IntersectionExampleScenario.node[4].veinsmobility  speed  ETV
vector 6833  IntersectionExampleScenario.node[4].veinsmobility  acceleration  ETV
vector 6834  IntersectionExampleScenario.node[4].veinsmobility  co2emission  ETV
vector 6837  IntersectionExampleScenario.node[5].veinsmobility  posx  ETV
vector 6838  IntersectionExampleScenario.node[5].veinsmobility  posy  ETV
vector 6839  IntersectionExampleScenario.node[5].veinsmobility  speed  ETV
vector 6840  IntersectionExampleScenario.node[5].veinsmobility  acceleration  ETV
vector 6841  IntersectionExampleScenario.node[5].veinsmobility  co2emission  ETV
vector 6844  IntersectionExampleScenario.node[6].veinsmobility  posx  ETV
vector 6845  IntersectionExampleScenario.node[6].veinsmobility  posy  ETV
vector 6846  IntersectionExampleScenario.node[6].veinsmobility  speed  ETV
vector 6847  IntersectionExampleScenario.node[6].veinsmobility  acceleration  ETV
vector 6848  IntersectionExampleScenario.node[6].veinsmobility  co2emission  ETV
vector 6851  IntersectionExampleScenario.node[7].veinsmobility  posx  ETV
vector 6852  IntersectionExampleScenario.node[7].veinsmobility  posy  ETV
vector 6853  IntersectionExampleScenario.node[7].veinsmobility  speed  ETV
vector 6854  IntersectionExampleScenario.node[7].veinsmobility  acceleration  ETV
vector 6855  IntersectionExampleScenario.node[7].veinsmobility  co2emission  ETV
vector 6858  IntersectionExampleScenario.node[8].veinsmobility  posx  ETV
vector 6859  IntersectionExampleScenario.node[8].veinsmobility  posy  ETV
vector 6860  IntersectionExampleScenario.node[8].veinsmobility  speed  ETV
vector 6861  IntersectionExampleScenario.node[8].veinsmobility  acceleration  ETV
vector 6862  IntersectionExampleScenario.node[8].veinsmobility  co2emission  ETV
vector 6865  IntersectionExampleScenario.node[9].veinsmobility  posx  ETV
vector 6866  IntersectionExampleScenario.node[9].veinsmobility  posy  ETV
vector 6872  IntersectionExampleScenario.node[10].veinsmobility  posx  ETV
vector 6873  IntersectionExampleScenario.node[10].veinsmobility  posy  ETV
vector 6867  IntersectionExampleScenario.node[9].veinsmobility  speed  ETV
vector 6868  IntersectionExampleScenario.node[9].veinsmobility  acceleration  ETV
vector 6869  IntersectionExampleScenario.node[9].veinsmobility  co2emission  ETV
vector 6874  IntersectionExampleScenario.node[10].veinsmobility  speed  ETV
vector 6879  IntersectionExampleScenario.node[11].veinsmobility  posx  ETV
vector 6880  IntersectionExampleScenario.node[11].veinsmobility  posy  ETV
vector 6875  IntersectionExampleScenario.node[10].veinsmobility  acceleration  ETV
vector 6876  IntersectionExampleScenario.node[10].veinsmobility  co2emission  ETV
vector 6881  IntersectionExampleScenario.node[11].veinsmobility  speed  ETV
vector 6882  IntersectionExampleScenario.node[11].veinsmobility  acceleration  ETV
vector 6883  IntersectionExampleScenario.node[11].veinsmobility  co2emission  ETV
vector 6886  IntersectionExampleScenario.node[12].veinsmobility  posx  ETV
vector 6887  IntersectionExampleScenario.node[12].veinsmobility  posy  ETV
vector 6888  IntersectionExampleScenario.node[12].veinsmobility  speed  ETV
vector 6889  IntersectionExampleScenario.node[12].veinsmobility  acceleration  ETV
vector 6890  IntersectionExampleScenario.node[12].veinsmobility  co2emission  ETV
6827	8032 4748 214 2769 12.25 50.75 155 0.973 11.90022389248 500.52554855579 2781.3659964429
6826	12780 4252 214 2769 12.25 50.75 155 -3.2846527099609 2.5 39.869146347046 241.68198894314
6825	17032 4627 205 2769 12 50.75 156 5.6500000953674 16 2213.0224189758 32437.108865515
6824	21659 4937 196 2769 11.75 50.75 157 184.17810058594 486.85000610352 62504.023132324 26643239.540765
6823	26596 4943 196 2769 11.75 50.75 157 235.76922607422 486.85000610352 68152.313781738 30531874.819582
6806	31539 5749 16 2915 2.75 52.5 200 0.973 11.200708441096 552.78433403014 2673.3260173255
6805	37288 5180 16 2915 2.75 52.5 200 -7.6457781791687 4 36.304327011108 458.29392278157
6804	42468 5577 13 2915 2.5 52.5 201 0 15.02499961853 2185.0431288481 29974.753838229
6803	48045 6291 10 2915 2.25 52.5 202 483.14999389648 734.14794921875 106341.54734802 57068848.091908
6802	54336 6279 10 2915 2.25 52.5 202 184.17810058594 486.85000610352 83259.079376221 36285858.465461
vector 6893  IntersectionExampleScenario.node[13].veinsmobility  posx  ETV
vector 6894  IntersectionExampleScenario.node[13].veinsmobility  posy  ETV
6813	60767 5532 74 3007 7.25 53.75 187 0.973 11.36141391502 548.81420176707 2781.8843665534
6812	66299 5089 74 3007 7.25 53.75 187 -4.5 2.5 38.341367721558 418.21495687067
6811	71388 5630 69 3007 7 53.75 188 0 15.25 2182.2938061915 30145.343498541
6810	77018 5937 64 3007 6.75 53.75 189 237.10980224609 483.14999389648 83146.852508545 37561616.240352
6809	82955 5911 64 3007 6.75 53.75 189 184.17810058594 483.14999389648 76866.593719482 33103631.542826
vector 6895  IntersectionExampleScenario.node[13].veinsmobility  speed  ETV
vector 6896  IntersectionExampleScenario.node[13].veinsmobility  acceleration  ETV
vector 6897  IntersectionExampleScenario.node[13].veinsmobility  co2emission  ETV
vector 6900  IntersectionExampleScenario.node[14].veinsmobility  posx  ETV
vector 6901  IntersectionExampleScenario.node[14].veinsmobility  posy  ETV
vector 6902  IntersectionExampleScenario.node[14].veinsmobility  speed  ETV
vector 6903  IntersectionExampleScenario.node[14].veinsmobility  acceleration  ETV
vector 6904  IntersectionExampleScenario.node[14].veinsmobility  co2emission  ETV
vector 6907  IntersectionExampleScenario.node[15].veinsmobility  posx  ETV
vector 6908  IntersectionExampleScenario.node[15].veinsmobility  posy  ETV
vector 6909  IntersectionExampleScenario.node[15].veinsmobility  speed  ETV
vector 6910  IntersectionExampleScenario.node[15].veinsmobility  acceleration  ETV
vector 6911  IntersectionExampleScenario.node[15].veinsmobility  co2emission  ETV
vector 6914  IntersectionExampleScenario.node[16].veinsmobility  posx  ETV
vector 6915  IntersectionExampleScenario.node[16].veinsmobility  posy  ETV
vector 6916  IntersectionExampleScenario.node[16].veinsmobility  speed  ETV
vector 6917  IntersectionExampleScenario.node[16].veinsmobility  acceleration  ETV
vector 6918  IntersectionExampleScenario.node[16].veinsmobility  co2emission  ETV
6820	90298 6697 98 4219 8.25 68.5 242 0.973 11.648172402475 610.24312359861 2967.399483428
6819	96995 6150 98 4219 8.25 68.5 242 -8.4908542633057 4 38.001859664917 490.00280433518
6818	103145 6355 91 4219 8 68.5 243 0 15.64999961853 2210.1517279148 31114.634635584
6817	109500 7705 84 4219 7.75 68.5 244 483.14999389648 785.82187652588 133372.73752594 74976773.407519
6816	117205 7706 84 4219 7.75 68.5 244 483.14999389648 735.4154510498 126487.80418396 66713118.012151
vector 6921  IntersectionExampleScenario.node[17].veinsmobility  posx  ETV
vector 6922  IntersectionExampleScenario.node[17].veinsmobility  posy  ETV
vector 6923  IntersectionExampleScenario.node[17].veinsmobility  speed  ETV
vector 6928  IntersectionExampleScenario.node[18].veinsmobility  posx  ETV
vector 6929  IntersectionExampleScenario.node[18].veinsmobility  posy  ETV
vector 6924  IntersectionExampleScenario.node[17].veinsmobility  acceleration  ETV
vector 6925  IntersectionExampleScenario.node[17].veinsmobility  co2emission  ETV
6841	125459 5681 561 4342 21 70 197 0.973 11.648172402475 550.07103646528 2857.4626322265
6840	131140 5760 561 4342 21 70 197 -2.129093170166 2.5000009536743 38.171613693237 309.2080166059
6839	136900 5992 548 4342 20.75 70 198 1.279149055481 15.64999961853 2185.8454966545 28797.164168704
6838	142892 6319 535 4342 20.5 70 199 486.85000610352 785.82187652588 112025.15294647 64897545.479325
6837	149211 6333 535 4342 20.5 70 199 236.50622558594 483.14999389648 87909.304199219 39842822.394236
vector 6930  IntersectionExampleScenario.node[18].veinsmobility  speed  ETV
vector 6931  IntersectionExampleScenario.node[18].veinsmobility  acceleration  ETV
vector 6932  IntersectionExampleScenario.node[18].veinsmobility  co2emission  ETV
vector 6935  IntersectionExampleScenario.node[19].veinsmobility  posx  ETV
vector 6936  IntersectionExampleScenario.node[19].veinsmobility  posy  ETV
vector 6937  IntersectionExampleScenario.node[19].veinsmobility  speed  ETV
vector 6938  IntersectionExampleScenario.node[19].veinsmobility  acceleration  ETV
vector 6939  IntersectionExampleScenario.node[19].veinsmobility  co2emission  ETV
vector 6942  IntersectionExampleScenario.node[20].veinsmobility  posx  ETV
vector 6943  IntersectionExampleScenario.node[20].veinsmobility  posy  ETV
vector 6944  IntersectionExampleScenario.node[20].veinsmobility  speed  ETV
vector 6945  IntersectionExampleScenario.node[20].veinsmobility  acceleration  ETV
vector 6946  IntersectionExampleScenario.node[20].veinsmobility  co2emission  ETV
6848	156580 5918 708 4627 23.75 73 198 0.973 11.36141391502 549.42360909728 2739.0812682121
6847	162498 5970 708 4627 23.75 73 198 -4.5 2.5 36.98334312439 324.80803925024
6846	168468 6024 693 4627 23.5 73 199 3.5093367099762 15.25 2243.6765005589 28891.525137913
6845	174492 6365 678 4627 23.25 73 200 486.7158203125 800.04531860352 114314.63413239 67377631.245686
6844	180857 6377 678 4627 23.25 73 200 236.11669921875 483.14999389648 88215.05581665 39937141.110337
vector 6949  IntersectionExampleScenario.node[21].veinsmobility  posx  ETV
vector 6950  IntersectionExampleScenario.node[21].veinsmobility  posy  ETV
vector 6951  IntersectionExampleScenario.node[21].veinsmobility  speed  ETV
vector 6952  IntersectionExampleScenario.node[21].veinsmobility  acceleration  ETV
vector 6953  IntersectionExampleScenario.node[21].veinsmobility  co2emission  ETV
vector 6956  IntersectionExampleScenario.node[22].veinsmobility  posx  ETV
vector 6957  IntersectionExampleScenario.node[22].veinsmobility  posy  ETV
vector 6958  IntersectionExampleScenario.node[22].veinsmobility  speed  ETV
vector 6959  IntersectionExampleScenario.node[22].veinsmobility  acceleration  ETV
vector 6960  IntersectionExampleScenario.node[22].veinsmobility  co2emission  ETV
vector 6963  IntersectionExampleScenario.node[23].veinsmobility  posx  ETV
vector 6964  IntersectionExampleScenario.node[23].veinsmobility  posy  ETV
vector 6965  IntersectionExampleScenario.node[23].veinsmobility  speed  ETV
vector 6966  IntersectionExampleScenario.node[23].veinsmobility  acceleration  ETV
vector 6967  IntersectionExampleScenario.node[23].veinsmobility  co2emission  ETV
vector 6970  IntersectionExampleScenario.node[24].veinsmobility  posx  ETV
vector 6971  IntersectionExampleScenario.node[24].veinsmobility  posy  ETV
vector 6977  IntersectionExampleScenario.node[25].veinsmobility  posx  ETV
vector 6978  IntersectionExampleScenario.node[25].veinsmobility  posy  ETV
vector 6972  IntersectionExampleScenario.node[24].veinsmobility  speed  ETV
vector 6973  IntersectionExampleScenario.node[24].veinsmobility  acceleration  ETV
vector 6974  IntersectionExampleScenario.node[24].veinsmobility  co2emission  ETV
vector 6979  IntersectionExampleScenario.node[25].veinsmobility  speed  ETV
vector 6980  IntersectionExampleScenario.node[25].veinsmobility  acceleration  ETV
vector 6981  IntersectionExampleScenario.node[25].veinsmobility  co2emission  ETV
6834	189214 7157 425 5703 18 83.5 263 0.973 12.099024792222 656.33660959165 3298.5844148404
6833	196371 6165 425 5703 18 83.5 263 -9.2126445770264 4 41.396924972534 521.82208356757
6832	202536 6685 414 5703 17.75 83.5 264 0 16.27499961853 2194.9299123287 32233.510500643
6831	209221 8432 403 5703 17.5 83.5 265 239.17236328125 486.85000610352 121133.68182373 56435451.646179
6830	217653 8429 403 5703 17.5 83.5 265 483.14999389648 785.82187652588 143504.59508514 79793500.11743
vector 6984  IntersectionExampleScenario.node[26].veinsmobility  posx  ETV
vector 6985  IntersectionExampleScenario.node[26].veinsmobility  posy  ETV
vector 6986  IntersectionExampleScenario.node[26].veinsmobility  speed  ETV
vector 6987  IntersectionExampleScenario.node[26].veinsmobility  acceleration  ETV
vector 6988  IntersectionExampleScenario.node[26].veinsmobility  co2emission  ETV
6855	226478 6819 922 5945 27.25 85.5 234 0.973 11.810082123732 604.14569335428 3051.8167261329
6854	233297 7098 922 5945 27.25 85.5 234 -3.9583599567413 2.5 39.869146347046 351.6298403777
6853	240395 7208 905 5945 27 85.5 235 0 15.875 2188.9641575981 29370.76906305
6852	247603 7535 888 5945 26.75 85.5 236 486.85000610352 734.0454864502 122946.63887024 65097893.880032
6851	255138 7524 888 5945 26.75 85.5 236 486.6689453125 785.82187652588 130626.9792099 74224668.318225
6862	262662 6650 1079 6090 29.5 86.75 230 0.973 11.90022389248 623.04450084958 3166.6397662766
6861	269312 6925 1079 6090 29.5 86.75 230 -4.5 2.5000001192093 41.736440658569 430.24703548165
6860	276237 7069 1060 6090 29.25 86.75 231 0 16.149845123291 2266.355698429 30771.253023188
6859	283306 7406 1041 6090 29 86.75 232 239.220703125 486.85000610352 105105.65209961 48643654.59925
6858	290712 7402 1041 6090 29 86.75 232 483.12261962891 802.70781707764 130565.60903931 75623307.252546
6883	298114 6440 1481 6496 34.5 90.25 224 0.973 11.200708441096 560.03045238808 2625.6250949312
6882	304554 6712 1481 6496 34.5 90.25 224 -3.7651920318604 2.5 36.304327011108 317.2902780794
6881	311266 6922 1456 6496 34.25 90.25 225 1.3256465196609 15.02499961853 2152.0327064991 26830.535157966
6880	318188 7228 1431 6496 34 90.25 226 236.65771484375 486.85000610352 101327.35540771 46546126.25978
6879	325416 7212 1431 6496 34 90.25 226 483.14999389648 771.9652557373 125980.79750824 71890614.812624
vector 6991  IntersectionExampleScenario.node[27].veinsmobility  posx  ETV
vector 6992  IntersectionExampleScenario.node[27].veinsmobility  posy  ETV
vector 6993  IntersectionExampleScenario.node[27].veinsmobility  speed  ETV
vector 6994  IntersectionExampleScenario.node[27].veinsmobility  acceleration  ETV
vector 6995  IntersectionExampleScenario.node[27].veinsmobility  co2emission  ETV
6876	333024 7084 1431 6926 34 93.75 240 0.973 10.916047529558 609.37430887777 2781.089716213
6875	340108 7203 1431 6926 34 93.75 240 -3.9499835968018 2.5 35.285810470581 397.01750101951
6874	347311 7408 1408 6926 33.75 93.75 241 1.2319040298462 14.625 2234.9369317293 26473.000296565
6873	354719 7729 1385 6926 33.5 93.75 242 486.85000610352 735.12258911133 126554.11776733 67308803.441235
6872	362448 7721 1385 6926 33.5 93.75 242 486.73358154297 796.70860290527 138278.56175232 81282225.787465
6897	370169 5531 3045 7697 54.25 100.25 185 0.973 11.648172402475 556.249938066 2938.5512443126
6896	375700 5110 3045 7697 54.25 100.25 185 -7.4922728538513 4 38.171613693237 484.73649532449
6895	380810 5439 3026 7697 54 100.25 186 0 15.64999961853 2209.892436862 31296.211266307
6894	386249 5949 3007 7697 53.75 100.25 187 184.17810058594 732.85957336426 84549.816513062 42379889.044093
6893	392198 5986 3007 7697 53.75 100.25 187 486.85000610352 486.85000610352 91040.951141357 44323287.61884
6904	398184 5626 3217 7955 56.5 102.75 186 0.973 11.200708441096 525.90866175362 2595.526206695
6903	403810 5446 3217 7955 56.5 102.75 186 -4.1849670410156 2.5 35.116056442261 325.86256893782
6902	409256 5681 3198 7955 56.25 102.75 187 2.2621788978577 15.02499961853 2254.4659562111 29777.596423062
6901	414937 6002 3178 7955 56 102.75 188 167.29217529297 483.14999389648 74581.557342529 31707651.717406
6900	420939 6015 3178 7955 56 102.75 188 486.85000610352 734.11863708496 100215.70799255 54449008.017313
vector 6998  IntersectionExampleScenario.node[28].veinsmobility  posx  ETV
vector 6999  IntersectionExampleScenario.node[28].veinsmobility  posy  ETV
vector 7000  IntersectionExampleScenario.node[28].veinsmobility  speed  ETV
vector 7001  IntersectionExampleScenario.node[28].veinsmobility  acceleration  ETV
vector 7002  IntersectionExampleScenario.node[28].veinsmobility  co2emission  ETV
6946	427350 5005 4602 8805 72.75 112.25 159 0.973 11.450879080643 484.44724015116 2505.8905222211
6945	432355 4443 4602 8805 72.75 112.25 159 -3.4813270568848 2.5 37.32285118103 228.62192558588
6944	436798 4889 4577 8805 72.5 112.25 160 5.6500000953674 15.375 2206.7534742355 31288.619008943
6943	441687 5172 4552 8805 72.25 112.25 161 184.17810058594 486.85000610352 64095.075653076 27308215.373776
6942	446859 5193 4552 8805 72.25 112.25 161 237.06439208984 486.85000610352 69856.410461426 31278109.228474
vector 7005  IntersectionExampleScenario.node[29].veinsmobility  posx  ETV
vector 7006  IntersectionExampleScenario.node[29].veinsmobility  posy  ETV
vector 7007  IntersectionExampleScenario.node[29].veinsmobility  speed  ETV
vector 7008  IntersectionExampleScenario.node[29].veinsmobility  acceleration  ETV
vector 7009  IntersectionExampleScenario.node[29].veinsmobility  co2emission  ETV
6869	452448 8934 1408 9249 33.75 117 334 0.973 11.200708441096 680.01549050749 2805.6231816801
6868	461382 7881 1408 9249 33.75 117 334 -7.2451009750366 4 35.455564498901 453.54028043182
6867	469263 8287 1385 9249 33.5 117 335 0 15.02499961853 2213.800028801 30144.781911368
6866	477550 10821 1364 9249 33.25 117 336 483.14999389648 483.14999389648 162338.39794922 78433795.97833
6865	488371 10787 1364 9249 33.25 117 336 184.17810058594 734.14907836914 154948.3351593 75800050.756748
6890	499158 7919 2622 9249 49 117 273 0.94600815583079 12.26218747632 658.74792841938 3363.8681778115
6889	507077 8292 2622 9249 49 117 273 -3.7050297260284 2.5 41.566686630249 366.49404762458
6888	515369 8200 2601 9249 48.75 117 274 0 16.5 2180.3244024208 29809.378985179
6887	523569 8860 2580 9249 48.5 117 275 238.05261230469 483.14999389648 125146.8062439 57990907.692916
6886	532429 8811 2580 9249 48.5 117 275 184.17810058594 483.14999389648 116569.36181641 51393863.557517
6911	541240 7088 3449 9489 59.5 119.75 242 0.973 11.90022389248 610.02437262357 3071.6786317006
6910	548328 7417 3449 9489 59.5 119.75 242 -3.8921689987183 2.5 39.699392318726 345.79093854648
6909	555745 7531 3428 9489 59.25 119.75 243 0 16 2209.1919650007 29324.447357826
6908	563276 7882 3407 9489 59 119.75 244 483.14999389648 733.28247070312 126128.9604187 66293114.628554
6907	571158 7851 3407 9489 59 119.75 244 184.17810058594 486.85000610352 101553.30880737 44198067.79899
6932	579009 6139 4388 9723 70.5 122.75 210 0.973 11.200708441096 545.55550093713 2638.7632399253
6931	585148 6391 4388 9723 70.5 122.75 210 -3.8987855911255 2.5 35.795072555542 317.8459004669
6930	591539 6638 4365 9723 70.25 122.75 211 0 15.02499961853 2225.8911273479 28474.738981554
6929	598177 6876 4342 9723 70 122.75 212 483.14999389648 483.14999389648 102427.79870605 49487990.31966
6928	605053 6840 4342 9723 70 122.75 212 184.17810058594 735.54051208496 94934.400588989 46854251.27976
vector 7012  IntersectionExampleScenario.node[30].veinsmobility  posx  ETV
vector 7013  IntersectionExampleScenario.node[30].veinsmobility  posy  ETV
vector 7014  IntersectionExampleScenario.node[30].veinsmobility  speed  ETV
vector 7015  IntersectionExampleScenario.node[30].veinsmobility  acceleration  ETV
vector 7016  IntersectionExampleScenario.node[30].veinsmobility  co2emission  ETV
vector 7019  IntersectionExampleScenario.node[31].veinsmobility  posx  ETV
vector 7020  IntersectionExampleScenario.node[31].veinsmobility  posy  ETV
vector 7021  IntersectionExampleScenario.node[31].veinsmobility  speed  ETV
vector 7022  IntersectionExampleScenario.node[31].veinsmobility  acceleration  ETV
vector 7023  IntersectionExampleScenario.node[31].veinsmobility  co2emission  ETV
6925	612685 7235 4342 10442 70 133 253 0.973 11.200708441096 599.72984283077 2704.2608957923
6924	619920 6601 4342 10442 70 133 253 -6.8690538406372 4 35.285810470581 455.469528318
6923	626521 6884 4321 10442 69.75 133 254 0 15.02499961853 2201.1754693985 29834.37549227
6922	633405 8309 4300 10442 69.5 133 255 483.14999389648 785.82187652588 139187.4227829 78102265.300868
6921	641714 8304 4300 10442 69.5 133 255 483.14999389648 733.21536254883 132032.0307312 69529803.402482
6939	650018 7187 4483 10497 71.5 134 251 0.973 11.80157243666 657.4930082039 3132.1692165557
6938	657205 6706 4483 10497 71.5 134 251 -4.5 2.5 40.852758407593 484.03528508885
6937	663911 6942 4459 10497 71.25 134 252 0 16.067066192627 2279.271707058 32776.450223616
6936	670853 8248 4434 10497 71 134 253 482.98666381836 806.11563110352 139787.51065826 79637354.882191
6935	679101 8260 4434 10497 71 134 253 483.14999389648 731.26217651367 130429.84155273 68335435.266768
6953	687361 7539 4843 10633 75.25 136.75 247 0.973 11.648172402475 617.26029422639 2937.4398531001
6952	694900 7773 4843 10633 75.25 136.75 247 -3.9003036022186 2.5000009536743 38.341367721558 357.7089267553
6951	702673 7840 4818 10633 75 136.75 248 0 15.64999961853 2286.5561801726 31107.389242202
6950	710513 8129 4793 10633 74.75 136.75 249 482.95141601562 803.92970275879 138651.54662323 79506999.703847
6949	718642 8152 4793 10633 74.75 136.75 249 483.14999389648 735.35299682617 128856.55001831 67826330.627835
vector 7026  IntersectionExampleScenario.node[32].veinsmobility  posx  ETV
vector 7027  IntersectionExampleScenario.node[32].veinsmobility  posy  ETV
vector 7028  IntersectionExampleScenario.node[32].veinsmobility  speed  ETV
vector 7029  IntersectionExampleScenario.node[32].veinsmobility  acceleration  ETV
vector 7030  IntersectionExampleScenario.node[32].veinsmobility  co2emission  ETV
6981	727190 6968 5579 10829 82.5 140.75 234 0.973 11.200708441096 582.87719319082 2764.5146535069
6980	734158 7148 5579 10829 82.5 140.75 234 -3.7683908939362 2.5000004768372 35.285810470581 354.56597588423
6979	741306 7392 5548 10829 82.25 140.75 235 0 15.02499961853 2186.0923185255 27098.658790999
6978	748698 7756 5517 10829 82 140.75 236 486.65942382812 785.82187652588 132018.68210602 75754537.095252
6977	756454 7767 5517 10829 82 140.75 236 236.45294189453 483.14999389648 105406.17285156 48178860.215348
vector 7033  IntersectionExampleScenario.node[33].veinsmobility  posx  ETV
vector 7034  IntersectionExampleScenario.node[33].veinsmobility  posy  ETV
vector 7035  IntersectionExampleScenario.node[33].veinsmobility  speed  ETV
vector 7036  IntersectionExampleScenario.node[33].veinsmobility  acceleration  ETV
vector 7037  IntersectionExampleScenario.node[33].veinsmobility  co2emission  ETV
6988	764617 7055 5945 10958 85.5 143 231 0.973 11.200708441096 590.80147165858 2733.5553974026
6987	771672 7174 5945 10958 85.5 143 231 -4.5 2.5 37.15309715271 453.75260227631
6986	778846 7318 5915 10958 85.25 143 232 0 15.02499961853 2240.4617953002 28993.326892472
6985	786164 7666 5884 10958 85 143 233 486.80798339844 798.59687805176 131486.84449005 76273009.6271
6984	793830 7688 5884 10958 85 143 233 236.12316894531 483.14999389648 104175.53610229 47652917.039801
6995	801518 6643 6616 11078 91.25 145 216 0.973 11.200708441096 580.43635170049 2885.4965598454
6994	808161 6604 6616 11078 91.25 145 216 -3.8363304138184 2.5 35.795072555542 415.83424188218
6993	814765 6864 6585 11078 91 145 217 0 15.02499961853 2212.3622794077 28306.115897484
6992	821629 7209 6554 11078 90.75 145 218 483.11959838867 785.82187652588 122780.40836334 71029557.2864
6991	828838 7222 6554 11078 90.75 145 218 483.14999389648 734.12231445312 114147.88719177 60889046.689374
vector 7040  IntersectionExampleScenario.node[34].veinsmobility  posx  ETV
vector 7041  IntersectionExampleScenario.node[34].veinsmobility  posy  ETV
vector 7042  IntersectionExampleScenario.node[34].veinsmobility  speed  ETV
vector 7043  IntersectionExampleScenario.node[34].veinsmobility  acceleration  ETV
vector 7044  IntersectionExampleScenario.node[34].veinsmobility  co2emission  ETV
6918	836456 8752 4105 11234 67.25 147.5 322 0.973 12.26218747632 712.9357140796 3444.8068871594
6917	845208 7673 4105 11234 67.25 147.5 322 -9.2293834686279 4 41.396924972534 527.10351666824
6916	852881 8021 4082 11234 67 147.5 323 0 16.5 2173.0531930923 31775.375973536
6915	860902 10569 4059 11234 66.75 147.5 324 486.85000610352 731.48248291016 165450.37251282 85555546.629845
6914	871471 10635 4059 11234 66.75 147.5 324 486.63604736328 785.82187652588 173148.77455902 94680792.914895
6960	882106 8575 5132 11373 78.25 149.75 287 0.973 11.200708441096 638.12792126717 2756.3971378883
6959	890681 8806 5132 11373 78.25 149.75 287 -3.9810762405396 2.5 36.813589096069 330.80969451021
6958	899487 8904 5107 11373 78 149.75 288 0 15.02499961853 2219.1208150452 29061.638056722
6957	908391 9542 5082 11373 77.75 149.75 289 486.85000610352 486.85000610352 140699.65176392 68499626.320025
6956	917933 9516 5082 11373 77.75 149.75 289 235.65588378906 785.82187652588 149019.02375031 81108492.368152
vector 7047  IntersectionExampleScenario.node[35].veinsmobility  posx  ETV
vector 7048  IntersectionExampleScenario.node[35].veinsmobility  posy  ETV
vector 7054  IntersectionExampleScenario.node[36].veinsmobility  posx  ETV
vector 7055  IntersectionExampleScenario.node[36].veinsmobility  posy  ETV
vector 7049  IntersectionExampleScenario.node[35].veinsmobility  speed  ETV
vector 7050  IntersectionExampleScenario.node[35].veinsmobility  acceleration  ETV
vector 7051  IntersectionExampleScenario.node[35].veinsmobility  co2emission  ETV
vector 7056  IntersectionExampleScenario.node[36].veinsmobility  speed  ETV
vector 7057  IntersectionExampleScenario.node[36].veinsmobility  acceleration  ETV
vector 7058  IntersectionExampleScenario.node[36].veinsmobility  co2emission  ETV
7002	928241 5237 8667 11486 110.75 151.75 165 0.973 11.90022389248 562.46679865691 3413.7735066292
7001	933478 5015 8667 11486 110.75 151.75 165 -3.2504234313965 2.5 39.869146347046 341.76539115286
7000	938493 5279 8644 11486 110.5 151.75 166 5.6500000953674 16 2211.4471621513 30893.516412321
6999	943772 5608 8621 11486 110.25 151.75 167 235.92218017578 486.85000610352 73031.327636719 32909811.671605
6998	949380 5606 8621 11486 110.25 151.75 167 483.14999389648 785.82187652588 95327.735191345 56180599.3365
vector 7061  IntersectionExampleScenario.node[37].veinsmobility  posx  ETV
vector 7062  IntersectionExampleScenario.node[37].veinsmobility  posy  ETV
vector 7063  IntersectionExampleScenario.node[37].veinsmobility  speed  ETV
vector 7064  IntersectionExampleScenario.node[37].veinsmobility  acceleration  ETV
vector 7065  IntersectionExampleScenario.node[37].veinsmobility  co2emission  ETV
vector 7068  IntersectionExampleScenario.node[38].veinsmobility  posx  ETV
vector 7069  IntersectionExampleScenario.node[38].veinsmobility  posy  ETV
vector 7075  IntersectionExampleScenario.node[39].veinsmobility  posx  ETV
vector 7076  IntersectionExampleScenario.node[39].veinsmobility  posy  ETV
vector 7070  IntersectionExampleScenario.node[38].veinsmobility  speed  ETV
vector 7077  IntersectionExampleScenario.node[39].veinsmobility  speed  ETV
vector 7071  IntersectionExampleScenario.node[38].veinsmobility  acceleration  ETV
vector 7072  IntersectionExampleScenario.node[38].veinsmobility  co2emission  ETV
vector 7078  IntersectionExampleScenario.node[39].veinsmobility  acceleration  ETV
vector 7079  IntersectionExampleScenario.node[39].veinsmobility  co2emission  ETV
vector 7082  IntersectionExampleScenario.node[40].veinsmobility  posx  ETV
vector 7083  IntersectionExampleScenario.node[40].veinsmobility  posy  ETV
vector 7084  IntersectionExampleScenario.node[40].veinsmobility  speed  ETV
vector 7085  IntersectionExampleScenario.node[40].veinsmobility  acceleration  ETV
vector 7086  IntersectionExampleScenario.node[40].veinsmobility  co2emission  ETV
6967	956570 9207 5461 12424 81.5 164.5 333 0.973 11.450879080643 690.46103746452 2924.5513804928
6966	965777 8142 5461 12424 81.5 164.5 333 -8.487024307251 4 37.15309715271 478.32413438468
6965	973919 8518 5434 12424 81.25 164.5 334 0 15.375 2198.7463283539 30558.206619436
6964	982437 11110 5407 12424 81 164.5 335 184.17810058594 486.85000610352 146086.01507568 65947354.707687
6963	993547 11124 5407 12424 81 164.5 335 237.33026123047 486.85000610352 154568.30926514 72519144.358847
vector 7089  IntersectionExampleScenario.node[41].veinsmobility  posx  ETV
vector 7090  IntersectionExampleScenario.node[41].veinsmobility  posy  ETV
vector 7091  IntersectionExampleScenario.node[41].veinsmobility  speed  ETV
6974	1004900 9347 5548 12477 82.25 165.25 333 0.973 11.54047740176 705.42078062243 3010.8203008892
6973	1014247 8423 5548 12477 82.25 165.25 333 -4.5 2.5 38.171613693237 469.03958470274
6972	1022670 8743 5517 12477 82 165.25 334 0 15.5 2302.5364792142 32272.718498168
6971	1031413 11102 5488 12477 81.75 165.25 335 161.1796875 731.90310668945 150969.41885376 72793953.453466
6970	1042515 11137 5488 12477 81.75 165.25 335 486.85000610352 486.85000610352 163094.75204468 79402681.028403
vector 7092  IntersectionExampleScenario.node[41].veinsmobility  acceleration  ETV
vector 7093  IntersectionExampleScenario.node[41].veinsmobility  co2emission  ETV
vector 7096  IntersectionExampleScenario.node[42].veinsmobility  posx  ETV
vector 7097  IntersectionExampleScenario.node[42].veinsmobility  posy  ETV
vector 7098  IntersectionExampleScenario.node[42].veinsmobility  speed  ETV
vector 7099  IntersectionExampleScenario.node[42].veinsmobility  acceleration  ETV
vector 7100  IntersectionExampleScenario.node[42].veinsmobility  co2emission  ETV
7016	1054215 5612 9885 12737 125 168.5 175 0.973 11.200708441096 516.79841768154 2711.7387325208
7015	1059827 5420 9885 12737 125 168.5 175 -2.4616775512695 2.5000019073486 35.625318527222 271.4291199664
7014	1065247 5700 9866 12737 124.75 168.5 176 5.6500000953674 15.02499961853 2210.1616749763 29075.298106992
7013	1070947 5990 9847 12737 124.5 168.5 177 184.17810058594 486.86022949219 70880.636444092 30214419.949573
7012	1076937 5998 9847 12737 124.5 168.5 177 236.16375732422 486.85000610352 77346.423309326 34834862.211816
7023	1082935 5791 10017 12927 126.75 171 178 0.973 11.36141391502 565.79894535057 3074.635135551
7022	1088726 5615 10017 12927 126.75 171 178 -4.5 2.5 36.98334312439 403.57888302495
7021	1094341 5766 9998 12927 126.5 171 179 5.6500000953674 15.25 2262.9716200829 30193.184117718
7020	1100107 6096 9979 12927 126.25 171 180 164.94219970703 483.14999389648 70483.944641113 29677924.106802
7019	1106203 6113 9979 12927 126.25 171 180 486.85000610352 733.66548156738 96031.878479004 52220175.220607
vector 7103  IntersectionExampleScenario.node[43].veinsmobility  posx  ETV
vector 7104  IntersectionExampleScenario.node[43].veinsmobility  posy  ETV
vector 7105  IntersectionExampleScenario.node[43].veinsmobility  speed  ETV
vector 7106  IntersectionExampleScenario.node[43].veinsmobility  acceleration  ETV
vector 7107  IntersectionExampleScenario.node[43].veinsmobility  co2emission  ETV
vector 7110  IntersectionExampleScenario.node[44].veinsmobility  posx  ETV
vector 7111  IntersectionExampleScenario.node[44].veinsmobility  posy  ETV
vector 7117  IntersectionExampleScenario.node[45].veinsmobility  posx  ETV
vector 7118  IntersectionExampleScenario.node[45].veinsmobility  posy  ETV
vector 7112  IntersectionExampleScenario.node[44].veinsmobility  speed  ETV
vector 7119  IntersectionExampleScenario.node[45].veinsmobility  speed  ETV
vector 7113  IntersectionExampleScenario.node[44].veinsmobility  acceleration  ETV
vector 7114  IntersectionExampleScenario.node[44].veinsmobility  co2emission  ETV
vector 7120  IntersectionExampleScenario.node[45].veinsmobility  acceleration  ETV
vector 7121  IntersectionExampleScenario.node[45].veinsmobility  co2emission  ETV
vector 7124  IntersectionExampleScenario.node[46].veinsmobility  posx  ETV
vector 7125  IntersectionExampleScenario.node[46].veinsmobility  posy  ETV
vector 7126  IntersectionExampleScenario.node[46].veinsmobility  speed  ETV
vector 7127  IntersectionExampleScenario.node[46].veinsmobility  acceleration  ETV
vector 7128  IntersectionExampleScenario.node[46].veinsmobility  co2emission  ETV
7030	1113900 5044 10725 13457 138.75 176.5 152 0.973 11.990504229548 480.2542757949 2610.1349930128
7029	1118944 4636 10725 13457 138.75 176.5 152 -3.5095138549805 2.5 39.529638290405 206.13668396455
7028	1123580 4945 10712 13457 138.5 176.5 153 5.6500000953674 16.125 2221.3488578796 32954.778624873
7027	1128525 5209 10699 13457 138.25 176.5 154 184.17810058594 734.21243286133 69068.311187744 35082259.512049
7026	1133734 5237 10699 13457 138.25 176.5 154 486.85000610352 486.85000610352 74974.900939941 36501530.980221
vector 7131  IntersectionExampleScenario.node[47].veinsmobility  posx  ETV
vector 7132  IntersectionExampleScenario.node[47].veinsmobility  posy  ETV
vector 7133  IntersectionExampleScenario.node[47].veinsmobility  speed  ETV
vector 7134  IntersectionExampleScenario.node[47].veinsmobility  acceleration  ETV
vector 7135  IntersectionExampleScenario.node[47].veinsmobility  co2emission  ETV
7009	1139367 7477 9154 13784 116 179.5 255 0.973 12.099024792222 647.90664310478 3307.6548840884
7008	1146844 6781 9154 13784 116 179.5 255 -6.9978852272034 4 41.227170944214 492.65880119239
7007	1153625 7076 9129 13784 115.75 179.5 256 0 16.27499961853 2205.6507912874 32465.664712985
7006	1160701 8693 9104 13784 115.5 179.5 257 483.14999389648 483.14999389648 124169.5484314 59992516.566758
7005	1169394 8662 9104 13784 115.5 179.5 257 184.17810058594 731.40208435059 117408.83776855 57645007.169181
vector 7138  IntersectionExampleScenario.node[48].veinsmobility  posx  ETV
vector 7139  IntersectionExampleScenario.node[48].veinsmobility  posy  ETV
vector 7140  IntersectionExampleScenario.node[48].veinsmobility  speed  ETV
vector 7141  IntersectionExampleScenario.node[48].veinsmobility  acceleration  ETV
vector 7142  IntersectionExampleScenario.node[48].veinsmobility  co2emission  ETV
7037	1178452 5521 10898 14276 142 184.5 171 0.973 11.200708441096 539.13076340905 2983.3544071693
7036	1183973 5176 10898 14276 142 184.5 171 -3.8950004577637 2.5 35.795072555542 339.83643723754
7035	1189149 5533 10883 14276 141.75 184.5 172 5.6500000953674 15.02499961853 2178.7062730789 28896.308465221
7034	1194682 5871 10868 14276 141.5 184.5 173 237.68969726562 483.14999389648 75115.446655273 33582668.277174
7033	1200553 5860 10868 14276 141.5 184.5 173 184.17810058594 483.14999389648 68962.390258789 29273255.456919
vector 7145  IntersectionExampleScenario.node[49].veinsmobility  posx  ETV
vector 7146  IntersectionExampleScenario.node[49].veinsmobility  posy  ETV
vector 7147  IntersectionExampleScenario.node[49].veinsmobility  speed  ETV
vector 7148  IntersectionExampleScenario.node[49].veinsmobility  acceleration  ETV
vector 7149  IntersectionExampleScenario.node[49].veinsmobility  co2emission  ETV
vector 7152  IntersectionExampleScenario.node[50].veinsmobility  posx  ETV
vector 7153  IntersectionExampleScenario.node[50].veinsmobility  posy  ETV
vector 7154  IntersectionExampleScenario.node[50].veinsmobility  speed  ETV
vector 7155  IntersectionExampleScenario.node[50].veinsmobility  acceleration  ETV
vector 7156  IntersectionExampleScenario.node[50].veinsmobility  co2emission  ETV
vector 7159  IntersectionExampleScenario.node[51].veinsmobility  posx  ETV
vector 7160  IntersectionExampleScenario.node[51].veinsmobility  posy  ETV
vector 7161  IntersectionExampleScenario.node[51].veinsmobility  speed  ETV
vector 7162  IntersectionExampleScenario.node[51].veinsmobility  acceleration  ETV
vector 7163  IntersectionExampleScenario.node[51].veinsmobility  co2emission  ETV
7079	1207601 5044 11760 15166 156 193.75 152 0.973 11.990504229548 480.2542757949 2610.1349930128
7078	1212645 4634 11760 15166 156 193.75 152 -3.5095367431641 2.5 39.529638290405 206.13703417397
7077	1217279 4946 11741 15166 155.75 193.75 153 5.6500000953674 16.125 2221.3487672806 32954.77634793
7076	1222225 5237 11722 15166 155.5 193.75 154 483.14999389648 483.14999389648 74405.099060059 35948823.156735
7075	1227462 5211 11722 15166 155.5 193.75 154 184.17810058594 734.21257019043 69068.321929932 35082271.800945
vector 7166  IntersectionExampleScenario.node[52].veinsmobility  posx  ETV
vector 7167  IntersectionExampleScenario.node[52].veinsmobility  posy  ETV
vector 7168  IntersectionExampleScenario.node[52].veinsmobility  speed  ETV
vector 7169  IntersectionExampleScenario.node[52].veinsmobility  acceleration  ETV
vector 7170  IntersectionExampleScenario.node[52].veinsmobility  co2emission  ETV
7044	1233069 6134 11217 15410 147.25 196 196 0.973 11.90022389248 577.88003481278 3094.6861959734
7043	1239203 5740 11217 15410 147.25 196 196 -8.013355255127 4 39.529638290405 494.85818162182
7042	1244943 5983 11200 15410 147 196 197 0 16 2214.6716985703 31920.742883582
7041	1250926 6717 11183 15410 146.75 196 198 235.99810791016 785.82187652588 102294.11511993 56968116.499062
7040	1257643 6731 11183 15410 146.75 196 198 483.14999389648 483.14999389648 95663.698791504 46219915.48723
7058	1264374 5832 11486 15572 151.75 197.5 184 0.973 11.810082123732 553.3906754684 3006.160305146
7057	1270206 5835 11486 15572 151.75 197.5 184 -4.402400970459 2.5000000596046 39.699392318726 403.22487806709
7056	1276041 5983 11470 15572 151.5 197.5 185 0 15.875 2175.3032102026 30333.996453113
7055	1282024 6318 11453 15572 151.25 197.5 186 486.85000610352 785.82187652588 104870.63303375 60942732.185271
7054	1288342 6305 11453 15572 151.25 197.5 186 238.96838378906 483.14999389648 81977.387908936 37074441.267187
7065	1294647 5967 11580 15752 153.25 199.25 185 0.973 11.648172402475 551.85108459784 2884.5596972729
7064	1300614 5944 11580 15752 153.25 199.25 185 -4.5 2.5 38.001859664917 336.45330307234
7063	1306558 6131 11563 15752 153 199.25 186 4.3053612709045 15.64999961853 2299.489358902 30998.487103797
7062	1312689 6340 11546 15752 152.75 199.25 187 236.21588134766 806.11563110352 99419.370269775 57495540.218535
7061	1319029 6358 11546 15752 152.75 199.25 187 483.14999389648 483.14999389648 90349.048858643 43652142.404606
vector 7173  IntersectionExampleScenario.node[53].veinsmobility  posx  ETV
vector 7174  IntersectionExampleScenario.node[53].veinsmobility  posy  ETV
vector 7175  IntersectionExampleScenario.node[53].veinsmobility  speed  ETV
7072	1325616 5750 11760 15876 156 200.5 179 0.973 12.353032912318 626.56952113682 3637.9502796142
7071	1331366 5340 11760 15876 156 200.5 179 -4.5 2.5 44.112981796265 488.51214046835
7070	1336706 5805 11741 15876 155.75 200.5 180 2.6486988067627 16.729637145996 2307.3518452644 33191.085831707
7069	1342511 6140 11722 15876 155.5 200.5 181 482.92855834961 810.19219970703 104649.79299164 62618322.662697
7068	1348651 6151 11722 15876 155.5 200.5 181 483.14999389648 733.45344543457 95193.82510376 51021813.479017
vector 7176  IntersectionExampleScenario.node[53].veinsmobility  acceleration  ETV
vector 7177  IntersectionExampleScenario.node[53].veinsmobility  co2emission  ETV
vector 7180  IntersectionExampleScenario.node[54].veinsmobility  posx  ETV
vector 7181  IntersectionExampleScenario.node[54].veinsmobility  posy  ETV
vector 7182  IntersectionExampleScenario.node[54].veinsmobility  speed  ETV
vector 7183  IntersectionExampleScenario.node[54].veinsmobility  acceleration  ETV
vector 7184  IntersectionExampleScenario.node[54].veinsmobility  co2emission  ETV
vector 7187  IntersectionExampleScenario.node[55].veinsmobility  posx  ETV
vector 7188  IntersectionExampleScenario.node[55].veinsmobility  posy  ETV
vector 7189  IntersectionExampleScenario.node[55].veinsmobility  speed  ETV
vector 7190  IntersectionExampleScenario.node[55].veinsmobility  acceleration  ETV
vector 7191  IntersectionExampleScenario.node[55].veinsmobility  co2emission  ETV
vector 7194  IntersectionExampleScenario.node[56].veinsmobility  posx  ETV
vector 7195  IntersectionExampleScenario.node[56].veinsmobility  posy  ETV
vector 7196  IntersectionExampleScenario.node[56].veinsmobility  speed  ETV
vector 7197  IntersectionExampleScenario.node[56].veinsmobility  acceleration  ETV
vector 7198  IntersectionExampleScenario.node[56].veinsmobility  co2emission  ETV
7051	1356157 7268 11470 17157 151.5 212 243 0.973 11.810082123732 623.2489259185 3103.3883980552
7050	1363425 6516 11470 17157 151.5 212 243 -6.9388580322266 4 39.869146347046 481.49561185204
7049	1369941 6875 11453 17157 151.25 212 244 0 15.875 2183.3810286522 31318.381264493
7048	1376816 8258 11438 17157 151 212 245 486.85000610352 734.37205505371 127353.01177979 67260424.953813
7047	1385074 8319 11438 17157 151 212 245 486.63604736328 785.82187652588 133940.06563568 75254223.191256
7086	1393393 6975 11992 17471 159 215 225 0.973 11.36141391502 572.34270553995 2746.007727721
7085	1400368 7237 11992 17471 159 215 225 -3.8684520721436 2.5 37.492597579956 312.54763499256
7084	1407605 7410 11971 17471 158.75 215 226 0 15.25 2191.3109947648 28548.046701363
7083	1415015 7715 11950 17471 158.5 215 227 486.85000610352 735.07945251465 118941.76348877 63399639.49712
7082	1422730 7697 11950 17471 158.5 215 227 486.85000610352 785.82187652588 126271.07758331 72163970.912638
7114	1430427 5548 13099 17589 173 216.25 174 0.973 11.648172402475 548.64999779978 3049.789863005
7113	1435975 5221 13099 17589 173 216.25 174 -3.1802444458008 2.5 38.850629806519 315.70666078108
7112	1441196 5666 13074 17589 172.75 216.25 175 5.3857049942017 15.64999961853 2214.100438118 29949.477044437
7111	1446862 5970 13049 17589 172.5 216.25 176 235.79016113281 486.85000610352 77269.212677002 34927842.005943
7110	1452832 5970 13049 17589 172.5 216.25 176 483.14999389648 785.82187652588 100130.79141998 58758530.543333
vector 7201  IntersectionExampleScenario.node[57].veinsmobility  posx  ETV
vector 7202  IntersectionExampleScenario.node[57].veinsmobility  posy  ETV
vector 7203  IntersectionExampleScenario.node[57].veinsmobility  speed  ETV
7135	1459031 4992 13649 17637 178.25 216.75 155 0.973 11.990504229548 519.20968304033 3075.8423155097
7134	1464023 4759 13649 17637 178.25 216.75 155 -4.3207321166992 2.5 41.566686630249 272.08779952888
7133	1468782 5045 13621 17637 178 216.75 156 5.6500000953674 16.125 2211.1515054703 32273.767827462
7132	1473827 5339 13592 17637 177.75 216.75 157 486.85000610352 486.85000610352 76435.450958252 37212599.76555
7131	1479166 5329 13592 17637 177.75 216.75 157 238.67224121094 785.82187652588 82437.505027771 47255146.960253
vector 7204  IntersectionExampleScenario.node[57].veinsmobility  acceleration  ETV
vector 7205  IntersectionExampleScenario.node[57].veinsmobility  co2emission  ETV
vector 7208  IntersectionExampleScenario.node[58].veinsmobility  posx  ETV
vector 7209  IntersectionExampleScenario.node[58].veinsmobility  posy  ETV
vector 7210  IntersectionExampleScenario.node[58].veinsmobility  speed  ETV
vector 7211  IntersectionExampleScenario.node[58].veinsmobility  acceleration  ETV
vector 7212  IntersectionExampleScenario.node[58].veinsmobility  co2emission  ETV
vector 7215  IntersectionExampleScenario.node[59].veinsmobility  posx  ETV
vector 7216  IntersectionExampleScenario.node[59].veinsmobility  posy  ETV
vector 7217  IntersectionExampleScenario.node[59].veinsmobility  speed  ETV
vector 7218  IntersectionExampleScenario.node[59].veinsmobility  acceleration  ETV
vector 7219  IntersectionExampleScenario.node[59].veinsmobility  co2emission  ETV
vector 7222  IntersectionExampleScenario.node[60].veinsmobility  posx  ETV
vector 7223  IntersectionExampleScenario.node[60].veinsmobility  posy  ETV
vector 7224  IntersectionExampleScenario.node[60].veinsmobility  speed  ETV
vector 7225  IntersectionExampleScenario.node[60].veinsmobility  acceleration  ETV
vector 7226  IntersectionExampleScenario.node[60].veinsmobility  co2emission  ETV
7107	1485850 6756 13007 18779 172 227.75 224 0.973 12.099024792222 615.95941277177 3251.4899561001
7106	1492606 6287 13007 18779 172 227.75 224 -7.2880620956421 4 41.057416915894 490.95701285073
7105	1498893 6499 12986 18779 171.75 227.75 225 0 16.27499961853 2205.2847783566 32263.753704526
7104	1505392 7659 12965 18779 171.5 227.75 226 184.17810058594 486.85000610352 95130.842834473 42043840.808636
7103	1513051 7683 12965 18779 171.5 227.75 226 236.18798828125 486.85000610352 101919.79431152 47024737.274816
vector 7229  IntersectionExampleScenario.node[61].veinsmobility  posx  ETV
vector 7230  IntersectionExampleScenario.node[61].veinsmobility  posy  ETV
vector 7231  IntersectionExampleScenario.node[61].veinsmobility  speed  ETV
vector 7232  IntersectionExampleScenario.node[61].veinsmobility  acceleration  ETV
vector 7233  IntersectionExampleScenario.node[61].veinsmobility  co2emission  ETV
7128	1521130 6784 13403 18934 176 229.25 214 0.973 11.648172402475 582.94638209211 2946.4175781464
7127	1527914 6918 13403 18934 176 229.25 214 -3.6745419502258 2.5000002384186 38.850629806519 372.39945360692
7126	1534832 7150 13376 18934 175.75 229.25 215 0 15.64999961853 2243.9929646403 31198.540906575
7125	1541982 7286 13349 18934 175.5 229.25 216 177.97814941406 734.18522644043 97193.332382202 48021498.025973
7124	1549268 7344 13349 18934 175.5 229.25 216 486.85000610352 486.85000610352 105159.60131836 51196952.543686
7142	1556612 6061 14110 19141 182.75 231.25 195 0.97223939240464 11.648172402475 559.36783121516 2864.4468521181
7141	1562673 6299 14110 19141 182.75 231.25 195 -2.2070617675781 2.5 38.680875778198 299.38757992507
7140	1568972 6530 14085 19141 182.5 231.25 196 1.9313317537308 15.64999961853 2223.6010912657 29359.516973514
7139	1575502 6658 14060 19141 182.25 231.25 197 184.17810058594 735.08013916016 88074.184768677 43568506.573671
7138	1582160 6699 14060 19141 182.25 231.25 197 486.85000610352 486.85000610352 95909.451202393 46693516.90327
7149	1588859 6021 14434 19334 186.25 233.25 189 0.93438186594183 12.26218747632 579.62770340022 3249.1760466086
7148	1594880 5985 14434 19334 186.25 233.25 189 -4.5 2.5 41.057416915894 404.89896058236
7147	1600865 6096 14411 19334 186 233.25 190 3.9912710189819 16.5 2217.6958460808 29916.548119767
7146	1606961 6462 14388 19334 185.75 233.25 191 174.53436279297 483.14999389648 76314.299468994 32393086.041293
7145	1613423 6490 14388 19334 185.75 233.25 191 486.85000610352 731.58708190918 100748.41490173 54087412.287298
vector 7236  IntersectionExampleScenario.node[62].veinsmobility  posx  ETV
vector 7237  IntersectionExampleScenario.node[62].veinsmobility  posy  ETV
vector 7238  IntersectionExampleScenario.node[62].veinsmobility  speed  ETV
vector 7239  IntersectionExampleScenario.node[62].veinsmobility  acceleration  ETV
vector 7240  IntersectionExampleScenario.node[62].veinsmobility  co2emission  ETV
7177	1620309 5167 15901 19923 200.75 239.5 156 0.973 11.648172402475 494.16936800845 2656.8719726516
7176	1625476 4834 15901 19923 200.75 239.5 156 -3.60205078125 2.5 38.850629806519 244.66934339592
7175	1630310 5052 15876 19923 200.5 239.5 157 5.6500000953674 15.64999961853 2207.982670784 31998.785749373
7174	1635362 5341 15851 19923 200.25 239.5 158 184.17810058594 486.88088989258 62872.530487061 26786003.033724
7173	1640703 5370 15851 19923 200.25 239.5 158 236.74017333984 486.85000610352 68571.877685547 30709751.328194
7093	1646073 8820 12496 20274 165.5 243 311 0.973 12.553400930962 723.70807898491 3653.0642048017
7092	1654893 7817 12496 20274 165.5 243 311 -8.6418628692627 4 43.773473739624 542.62438787787
7091	1662710 8139 12477 20274 165.25 243 312 0 16.89999961853 2189.9319131374 33181.453693747
7090	1670849 10637 12458 20274 165 243 313 483.14999389648 734.88313293457 159089.82389832 81979814.361871
7089	1681486 10611 12458 20274 165 243 313 184.17810058594 486.85000610352 136412.67092896 61583403.700403
7100	1692097 9747 12557 20575 166.25 246.25 321 0.973 11.450879080643 702.98054215697 3068.5607239935
7099	1701844 9256 12557 20575 166.25 246.25 321 -4.5 2.5 38.850629806519 433.63197482111
7098	1711100 9594 12536 20575 166 246.25 322 0 15.626826286316 2297.1973989177 32210.066641521
7097	1720694 10977 12515 20575 165.75 246.25 323 483.14999389648 733.25434875488 164404.31309509 84855536.251636
7096	1731671 10951 12515 20575 165.75 246.25 323 161.1796875 487.01239013672 137595.49441528 61207139.352274
7156	1742622 7472 14737 20818 189.5 249.25 240 0.973 11.36141391502 589.51103556881 2795.3314050151
7155	1750094 7771 14737 20818 189.5 249.25 240 -3.7007176876068 2.5 37.15309715271 329.23851305063
7154	1757865 7875 14712 20818 189.25 249.25 241 0 15.25 2186.254742004 28159.243257999
7153	1765740 8218 14687 20818 189 249.25 242 236.64721679688 483.14999389648 108573.03067017 49792091.260756
7152	1773958 8191 14687 20818 189 249.25 242 184.17810058594 483.14999389648 100350.12997437 43537786.309227
vector 7243  IntersectionExampleScenario.node[63].veinsmobility  posx  ETV
vector 7244  IntersectionExampleScenario.node[63].veinsmobility  posy  ETV
vector 7245  IntersectionExampleScenario.node[63].veinsmobility  speed  ETV
vector 7246  IntersectionExampleScenario.node[63].veinsmobility  acceleration  ETV
vector 7247  IntersectionExampleScenario.node[63].veinsmobility  co2emission  ETV
vector 7250  IntersectionExampleScenario.node[64].veinsmobility  posx  ETV
vector 7251  IntersectionExampleScenario.node[64].veinsmobility  posy  ETV
vector 7252  IntersectionExampleScenario.node[64].veinsmobility  speed  ETV
vector 7253  IntersectionExampleScenario.node[64].veinsmobility  acceleration  ETV
vector 7254  IntersectionExampleScenario.node[64].veinsmobility  co2emission  ETV
vector 7257  IntersectionExampleScenario.node[65].veinsmobility  posx  ETV
vector 7258  IntersectionExampleScenario.node[65].veinsmobility  posy  ETV
vector 7259  IntersectionExampleScenario.node[65].veinsmobility  speed  ETV
vector 7260  IntersectionExampleScenario.node[65].veinsmobility  acceleration  ETV
vector 7261  IntersectionExampleScenario.node[65].veinsmobility  co2emission  ETV
vector 7264  IntersectionExampleScenario.node[66].veinsmobility  posx  ETV
vector 7265  IntersectionExampleScenario.node[66].veinsmobility  posy  ETV
vector 7266  IntersectionExampleScenario.node[66].veinsmobility  speed  ETV
7121	1783566 9916 13099 21653 173 260.25 350 0.973 11.648172402475 725.93081000455 3125.3888257356
7120	1793482 8533 13099 21653 173 260.25 350 -41.706760406494 4 38.511121749878 2077.725084134
7119	1802015 9013 13074 21653 172.75 260.25 351 0 15.64999961853 2214.1854753494 32069.451677305
7118	1811028 11954 13049 21653 172.5 260.25 352 236.02325439453 785.82187652588 178953.51078033 95170525.107065
7117	1822982 11968 13049 21653 172.5 260.25 352 483.14999389648 483.14999389648 170068.79785156 82168738.643965
vector 7267  IntersectionExampleScenario.node[66].veinsmobility  acceleration  ETV
vector 7268  IntersectionExampleScenario.node[66].veinsmobility  co2emission  ETV
7163	1835117 8389 15166 21746 193.75 261.25 271 0.973 12.099024792222 648.04111411606 3217.8641534978
7162	1843506 8822 15166 21746 193.75 261.25 271 -3.8936998844147 2.5 40.378400802612 359.25317315448
7161	1852328 8721 15139 21746 193.5 261.25 272 0 16.27499961853 2180.2164089149 29409.161863998
7160	1861049 9260 15112 21746 193.25 261.25 273 486.85000610352 785.82187652588 149247.48561859 83579892.173415
7159	1870309 9282 15112 21746 193.25 261.25 273 238.07293701172 483.14999389648 124040.29251099 57411562.249203
vector 7271  IntersectionExampleScenario.node[67].veinsmobility  posx  ETV
vector 7272  IntersectionExampleScenario.node[67].veinsmobility  posy  ETV
vector 7273  IntersectionExampleScenario.node[67].veinsmobility  speed  ETV
vector 7274  IntersectionExampleScenario.node[67].veinsmobility  acceleration  ETV
vector 7275  IntersectionExampleScenario.node[67].veinsmobility  co2emission  ETV
7170	1879987 8604 15410 22044 196 264.75 276 0.973 11.648172402475 646.11756530698 2997.3178610655
7169	1888591 9016 15410 22044 196 264.75 276 -4.5 2.5 38.001859664917 399.21625908059
7168	1897607 9037 15383 22044 195.75 264.75 277 0 15.64999961853 2247.2557065599 28857.735840181
7167	1906644 9432 15355 22044 195.5 264.75 278 486.85000610352 802.70781707764 154623.38648987 88256408.03119
7166	1916076 9450 15355 22044 195.5 264.75 278 238.02972412109 483.14999389648 126164.85992432 58346620.264488
vector 7278  IntersectionExampleScenario.node[68].veinsmobility  posx  ETV
vector 7279  IntersectionExampleScenario.node[68].veinsmobility  posy  ETV
vector 7280  IntersectionExampleScenario.node[68].veinsmobility  speed  ETV
vector 7281  IntersectionExampleScenario.node[68].veinsmobility  acceleration  ETV
vector 7282  IntersectionExampleScenario.node[68].veinsmobility  co2emission  ETV
7184	1925922 8030 15980 22195 201.5 266.5 261 0.973 11.648172402475 629.89105565492 2986.4009130517
7183	1933952 8571 15980 22195 201.5 266.5 261 -4.0914726257324 2.5 40.548154830933 356.08939317878
7182	1942523 8575 15953 22195 201.25 266.5 262 0 15.794826507568 2185.0156010278 28314.561144251
7181	1951098 8915 15926 22195 201 266.5 263 486.71722412109 785.82187652588 146254.58591461 83193874.803036
7180	1960013 8895 15926 22195 201 266.5 263 236.93841552734 483.14999389648 119136.93695068 55022961.380236
vector 7285  IntersectionExampleScenario.node[69].veinsmobility  posx  ETV
vector 7286  IntersectionExampleScenario.node[69].veinsmobility  posy  ETV
vector 7287  IntersectionExampleScenario.node[69].veinsmobility  speed  ETV
vector 7288  IntersectionExampleScenario.node[69].veinsmobility  acceleration  ETV
vector 7289  IntersectionExampleScenario.node[69].veinsmobility  co2emission  ETV
vector 7292  IntersectionExampleScenario.node[70].veinsmobility  posx  ETV
vector 7293  IntersectionExampleScenario.node[70].veinsmobility  posy  ETV
vector 7294  IntersectionExampleScenario.node[70].veinsmobility  speed  ETV
vector 7295  IntersectionExampleScenario.node[70].veinsmobility  acceleration  ETV
vector 7296  IntersectionExampleScenario.node[70].veinsmobility  co2emission  ETV
vector 7299  IntersectionExampleScenario.node[71].veinsmobility  posx  ETV
vector 7300  IntersectionExampleScenario.node[71].veinsmobility  posy  ETV
vector 7301  IntersectionExampleScenario.node[71].veinsmobility  speed  ETV
vector 7302  IntersectionExampleScenario.node[71].veinsmobility  acceleration  ETV
vector 7303  IntersectionExampleScenario.node[71].veinsmobility  co2emission  ETV
vector 7306  IntersectionExampleScenario.node[72].veinsmobility  posx  ETV
vector 7307  IntersectionExampleScenario.node[72].veinsmobility  posy  ETV
vector 7308  IntersectionExampleScenario.node[72].veinsmobility  speed  ETV
vector 7309  IntersectionExampleScenario.node[72].veinsmobility  acceleration  ETV
vector 7310  IntersectionExampleScenario.node[72].veinsmobility  co2emission  ETV
vector 7313  IntersectionExampleScenario.node[73].veinsmobility  posx  ETV
vector 7314  IntersectionExampleScenario.node[73].veinsmobility  posy  ETV
vector 7315  IntersectionExampleScenario.node[73].veinsmobility  speed  ETV
vector 7316  IntersectionExampleScenario.node[73].veinsmobility  acceleration  ETV
vector 7317  IntersectionExampleScenario.node[73].veinsmobility  co2emission  ETV
7191	1970888 8536 16110 23102 202.75 276.25 295 0.973 11.648172402475 667.29248966816 3039.8169263495
7190	1979424 7530 16110 23102 202.75 276.25 295 -6.8117866516113 4 38.850629806519 469.91515502781
7189	1986954 7978 16083 23102 202.5 276.25 296 0 15.64999961853 2207.1536474228 31385.929364603
7188	1994932 10095 16056 23102 202.25 276.25 297 235.67944335938 486.85000610352 136177.49105835 63608452.683934
7187	2005027 10091 16056 23102 202.25 276.25 297 483.14999389648 785.82187652588 159708.39694977 88047536.788019
7205	2015118 7543 17662 23202 217 277.25 242 0.973 11.648172402475 601.17601812488 2939.0450902582
7204	2022661 7970 17662 23202 217 277.25 242 -3.8898665904999 2.5 38.001859664917 345.25052097679
7203	2030631 8099 17637 23202 216.75 277.25 243 0 15.64999961853 2207.8877301887 29392.041952686
7202	2038730 8296 17612 23202 216.5 277.25 244 486.85000610352 486.85000610352 118791.40148926 57833594.54009
7201	2047026 8282 17612 23202 216.5 277.25 244 238.69952392578 785.82187652588 126549.6961441 69770340.215132
7212	2055308 7840 17784 23527 218.25 280.5 250 0.973 11.810082123732 646.60316450266 3202.7390357119
7211	2063148 8068 17784 23527 218.25 280.5 250 -4.5 2.5 39.359884262085 499.68750278701
7210	2071216 8163 17759 23527 218 280.5 251 0 15.875 2272.2678506635 30120.672653435
7209	2079379 8559 17734 23527 217.75 280.5 252 486.85000610352 733.89610290527 130796.45181274 68957131.184552
7208	2087938 8543 17734 23527 217.75 280.5 252 486.85000610352 807.09531402588 141309.25434875 81515074.256946
vector 7320  IntersectionExampleScenario.node[74].veinsmobility  posx  ETV
vector 7321  IntersectionExampleScenario.node[74].veinsmobility  posy  ETV
vector 7327  IntersectionExampleScenario.node[75].veinsmobility  posx  ETV
vector 7328  IntersectionExampleScenario.node[75].veinsmobility  posy  ETV
vector 7334  IntersectionExampleScenario.node[76].veinsmobility  posx  ETV
vector 7335  IntersectionExampleScenario.node[76].veinsmobility  posy  ETV
vector 7322  IntersectionExampleScenario.node[74].veinsmobility  speed  ETV
vector 7323  IntersectionExampleScenario.node[74].veinsmobility  acceleration  ETV
vector 7324  IntersectionExampleScenario.node[74].veinsmobility  co2emission  ETV
vector 7329  IntersectionExampleScenario.node[75].veinsmobility  speed  ETV
vector 7336  IntersectionExampleScenario.node[76].veinsmobility  speed  ETV
vector 7330  IntersectionExampleScenario.node[75].veinsmobility  acceleration  ETV
vector 7331  IntersectionExampleScenario.node[75].veinsmobility  co2emission  ETV
vector 7337  IntersectionExampleScenario.node[76].veinsmobility  acceleration  ETV
vector 7338  IntersectionExampleScenario.node[76].veinsmobility  co2emission  ETV
7219	2097669 8212 17988 23962 220.25 284.5 258 0.973 10.916047529558 604.15563615827 2589.9717487065
7218	2105881 8393 17988 23962 220.25 284.5 258 -4.5 2.5 34.437047958374 416.09559414432
7217	2114274 8441 17961 23962 220 284.5 259 0 14.625 2307.3841741495 28862.783786119
7216	2122715 8835 17934 23962 219.75 284.5 260 486.85000610352 735.31057739258 135447.16290283 71725439.394978
7215	2131550 8806 17934 23962 219.75 284.5 260 486.84130859375 814.55860137939 146947.21115112 85531029.305982
7233	2140356 7033 18934 23991 229.25 284.75 223 0.973 11.54047740176 590.65545830905 2911.960092207
7232	2147389 7018 18934 23991 229.25 284.75 223 -4.0114631652832 2.5 38.171613693237 409.26656183679
7231	2154407 7321 18907 23991 229 284.75 224 0 15.5 2218.2526377719 29183.017777497
7230	2161728 7651 18880 23991 228.75 284.75 225 486.85000610352 486.85000610352 109541.25137329 53330158.899673
7229	2169379 7625 18880 23991 228.75 284.75 225 236.79870605469 785.82187652588 118317.67787933 66421432.064406
vector 7341  IntersectionExampleScenario.node[77].veinsmobility  posx  ETV
vector 7342  IntersectionExampleScenario.node[77].veinsmobility  posy  ETV
7240	2177156 6107 19798 24281 238.25 287.25 197 0.973 11.90022389248 584.55783952087 3253.0838765686
7239	2183263 6091 19798 24281 238.25 287.25 197 -3.1874141693115 2.5000009536743 39.869146347046 385.66663672878
7238	2189354 6429 19773 24281 238 287.25 198 1.6509578227997 16 2210.6993317604 29110.833249175
7237	2195783 6763 19748 24281 237.75 287.25 199 236.38415527344 486.85000610352 88642.21963501 40517784.727196
7236	2202546 6755 19748 24281 237.75 287.25 199 483.14999389648 785.82187652588 112815.33931732 65753560.479121
vector 7343  IntersectionExampleScenario.node[77].veinsmobility  speed  ETV
vector 7344  IntersectionExampleScenario.node[77].veinsmobility  acceleration  ETV
vector 7345  IntersectionExampleScenario.node[77].veinsmobility  co2emission  ETV
7198	2209545 9654 16519 24839 206.5 291.75 342 0.973 11.810082123732 724.63537578711 3235.2465204172
7197	2219199 8719 16519 24839 206.5 291.75 342 -9.6335182189941 4 40.208654403687 577.6767970695
7196	2227918 8797 16490 24839 206.25 291.75 343 0 15.935514450073 2170.659201622 31494.300510384
7195	2236715 11673 16461 24839 206 291.75 344 184.17810058594 483.36395263672 150461.5552063 68001141.106875
7194	2248388 11622 16461 24839 206 291.75 344 486.85000610352 731.43809509277 175326.45309448 90454071.003004
vector 7348  IntersectionExampleScenario.node[78].veinsmobility  posx  ETV
vector 7349  IntersectionExampleScenario.node[78].veinsmobility  posy  ETV
vector 7350  IntersectionExampleScenario.node[78].veinsmobility  speed  ETV
vector 7351  IntersectionExampleScenario.node[78].veinsmobility  acceleration  ETV
vector 7352  IntersectionExampleScenario.node[78].veinsmobility  co2emission  ETV
vector 7355  IntersectionExampleScenario.node[79].veinsmobility  posx  ETV
vector 7356  IntersectionExampleScenario.node[79].veinsmobility  posy  ETV
vector 7357  IntersectionExampleScenario.node[79].veinsmobility  speed  ETV
vector 7358  IntersectionExampleScenario.node[79].veinsmobility  acceleration  ETV
vector 7359  IntersectionExampleScenario.node[79].veinsmobility  co2emission  ETV
vector 7362  IntersectionExampleScenario.node[80].veinsmobility  posx  ETV
vector 7363  IntersectionExampleScenario.node[80].veinsmobility  posy  ETV
vector 7364  IntersectionExampleScenario.node[80].veinsmobility  speed  ETV
vector 7369  IntersectionExampleScenario.node[81].veinsmobility  posx  ETV
vector 7370  IntersectionExampleScenario.node[81].veinsmobility  posy  ETV
vector 7365  IntersectionExampleScenario.node[80].veinsmobility  acceleration  ETV
vector 7366  IntersectionExampleScenario.node[80].veinsmobility  co2emission  ETV
vector 7371  IntersectionExampleScenario.node[81].veinsmobility  speed  ETV
vector 7372  IntersectionExampleScenario.node[81].veinsmobility  acceleration  ETV
vector 7373  IntersectionExampleScenario.node[81].veinsmobility  co2emission  ETV
vector 7376  IntersectionExampleScenario.node[82].veinsmobility  posx  ETV
vector 7377  IntersectionExampleScenario.node[82].veinsmobility  posy  ETV
vector 7378  IntersectionExampleScenario.node[82].veinsmobility  speed  ETV
vector 7383  IntersectionExampleScenario.node[83].veinsmobility  posx  ETV
vector 7384  IntersectionExampleScenario.node[83].veinsmobility  posy  ETV
vector 7390  IntersectionExampleScenario.node[84].veinsmobility  posx  ETV
vector 7391  IntersectionExampleScenario.node[84].veinsmobility  posy  ETV
vector 7379  IntersectionExampleScenario.node[82].veinsmobility  acceleration  ETV
vector 7380  IntersectionExampleScenario.node[82].veinsmobility  co2emission  ETV
vector 7385  IntersectionExampleScenario.node[83].veinsmobility  speed  ETV
vector 7392  IntersectionExampleScenario.node[84].veinsmobility  speed  ETV
vector 7386  IntersectionExampleScenario.node[83].veinsmobility  acceleration  ETV
vector 7387  IntersectionExampleScenario.node[83].veinsmobility  co2emission  ETV
vector 7393  IntersectionExampleScenario.node[84].veinsmobility  acceleration  ETV
vector 7394  IntersectionExampleScenario.node[84].veinsmobility  co2emission  ETV
7268	2262782 5206 21677 25901 260.5 299.75 158 0.973 11.810082123732 515.14967409257 2882.1995896436
7267	2267988 4791 21677 25901 260.5 299.75 158 -3.3704471588135 2.5 39.699392318726 285.64281353276
7266	2272779 5086 21653 25901 260.25 299.75 159 5.6500000953674 15.875 2191.9235644341 31701.662733053
7265	2277865 5413 21628 25901 260 299.75 160 184.17810058594 483.20288085938 63647.97744751 27051467.296588
7264	2283278 5418 21628 25901 260 299.75 160 486.85000610352 735.03129577637 86040.399887085 47195545.044659
vector 7397  IntersectionExampleScenario.node[85].veinsmobility  posx  ETV
vector 7398  IntersectionExampleScenario.node[85].veinsmobility  posy  ETV
vector 7404  IntersectionExampleScenario.node[86].veinsmobility  posx  ETV
vector 7405  IntersectionExampleScenario.node[86].veinsmobility  posy  ETV
vector 7399  IntersectionExampleScenario.node[85].veinsmobility  speed  ETV
vector 7411  IntersectionExampleScenario.node[87].veinsmobility  posx  ETV
vector 7412  IntersectionExampleScenario.node[87].veinsmobility  posy  ETV
vector 7400  IntersectionExampleScenario.node[85].veinsmobility  acceleration  ETV
vector 7401  IntersectionExampleScenario.node[85].veinsmobility  co2emission  ETV
vector 7406  IntersectionExampleScenario.node[86].veinsmobility  speed  ETV
vector 7407  IntersectionExampleScenario.node[86].veinsmobility  acceleration  ETV
vector 7408  IntersectionExampleScenario.node[86].veinsmobility  co2emission  ETV
vector 7413  IntersectionExampleScenario.node[87].veinsmobility  speed  ETV
vector 7414  IntersectionExampleScenario.node[87].veinsmobility  acceleration  ETV
vector 7415  IntersectionExampleScenario.node[87].veinsmobility  co2emission  ETV
vector 7418  IntersectionExampleScenario.node[88].veinsmobility  posx  ETV
vector 7419  IntersectionExampleScenario.node[88].veinsmobility  posy  ETV
vector 7420  IntersectionExampleScenario.node[88].veinsmobility  speed  ETV
vector 7421  IntersectionExampleScenario.node[88].veinsmobility  acceleration  ETV
vector 7422  IntersectionExampleScenario.node[88].veinsmobility  co2emission  ETV
7226	2290280 9397 18617 27269 226.25 308.5 330 0.973 11.450879080643 688.69264826173 2944.9821576787
7225	2299677 8343 18617 27269 226.25 308.5 330 -8.4870233535767 4 37.15309715271 481.82412368335
7224	2308020 8741 18590 27269 226 308.5 331 0 15.375 2210.4978749752 30840.213807405
7223	2316761 11288 18563 27269 225.75 308.5 332 483.14999389648 483.14999389648 160405.79797363 77500060.311921
7222	2328049 11262 18563 27269 225.75 308.5 332 184.17810058594 733.24285888672 152945.08610535 74702013.369524
vector 7425  IntersectionExampleScenario.node[89].veinsmobility  posx  ETV
vector 7426  IntersectionExampleScenario.node[89].veinsmobility  posy  ETV
vector 7427  IntersectionExampleScenario.node[89].veinsmobility  speed  ETV
7247	2339540 6814 21273 27521 255.75 310.25 219 0.973 11.200708441096 555.43260559346 2645.1575198631
7246	2346354 6995 21273 27521 255.75 310.25 219 -3.7475264072418 2.5 35.455564498901 324.11877631919
7245	2353349 7261 21254 27521 255.5 310.25 220 0 15.02499961853 2201.8853350263 28212.368978043
7244	2360610 7505 21235 27521 255.25 310.25 221 483.14999389648 733.04067993164 115566.41783142 61548797.492919
7243	2368115 7476 21235 27521 255.25 310.25 221 184.17810058594 486.9919128418 91207.956390381 39603600.551951
vector 7428  IntersectionExampleScenario.node[89].veinsmobility  acceleration  ETV
vector 7429  IntersectionExampleScenario.node[89].veinsmobility  co2emission  ETV
7254	2375758 6824 21410 27736 257.5 311.75 218 0.973 11.54047740176 582.61523217623 2830.8534643603
7253	2382582 6944 21410 27736 257.5 311.75 218 -4.5 2.5 37.15309715271 380.22041651879
7252	2389526 7244 21389 27736 257.25 311.75 219 1.6306767463684 15.5 2297.3813753128 29685.687024051
7251	2396770 7480 21368 27736 257 311.75 220 483.14999389648 483.14999389648 106292.99865723 51355461.652478
7250	2404250 7451 21368 27736 257 311.75 220 164.94219970703 734.29280090332 96616.028839111 47121223.56902
7261	2411701 7170 21582 28261 259.5 315.5 225 0.973 10.916047529558 589.98804664117 2784.9804870276
7260	2418871 7022 21582 28261 259.5 315.5 225 -4.5 2.5 35.455564498901 434.89595414042
7259	2425893 7380 21559 28261 259.25 315.5 226 0.76736426353455 14.985966682434 2290.4534362555 28466.118206815
7258	2433273 7653 21536 28261 259 315.5 227 238.22918701172 483.14999389648 101193.59204102 46175355.658872
7257	2440926 7681 21536 28261 259 315.5 227 156.46014404297 483.14999389648 90237.201721191 38212435.303456
7275	2448607 6766 22002 28506 264.25 317.25 213 0.973 11.200708441096 583.17605795138 2774.4931470509
7274	2455373 6786 22002 28506 264.25 317.25 213 -4.5 2.5 39.359884262085 340.34952032784
7273	2462159 6979 21980 28506 264 317.25 214 1.1707618236542 15.509713172913 2237.5410143137 28878.473290147
7272	2469138 7303 21957 28506 263.75 317.25 215 238.62915039062 483.14999389648 95909.41986084 43780882.399578
7271	2476441 7294 21957 28506 263.75 317.25 215 169.67456054688 483.14999389648 86239.907897949 36637055.540343
vector 7432  IntersectionExampleScenario.node[90].veinsmobility  posx  ETV
vector 7433  IntersectionExampleScenario.node[90].veinsmobility  posy  ETV
vector 7434  IntersectionExampleScenario.node[90].veinsmobility  speed  ETV
vector 7435  IntersectionExampleScenario.node[90].veinsmobility  acceleration  ETV
vector 7436  IntersectionExampleScenario.node[90].veinsmobility  co2emission  ETV
vector 7439  IntersectionExampleScenario.node[91].veinsmobility  posx  ETV
vector 7440  IntersectionExampleScenario.node[91].veinsmobility  posy  ETV
vector 7441  IntersectionExampleScenario.node[91].veinsmobility  speed  ETV
7289	2484360 6688 22328 29012 268 320.75 212 0.973 11.54047740176 596.3621599921 2902.265140097
7288	2491048 6662 22328 29012 268 320.75 212 -3.6176300048828 2.5000019073486 38.680875778198 337.60435678045
7287	2497710 7007 22305 29012 267.75 320.75 213 1.1297991275787 15.5 2353.8174595833 30238.5810043
7286	2504717 7277 22282 29012 267.5 320.75 214 483.14999389648 483.14999389648 103394.09869385 49954858.152865
7285	2511994 7227 22282 29012 267.5 320.75 214 151.81549072266 734.66352844238 91735.573699951 44325763.982132
7282	2519221 6946 22195 29012 266.5 320.75 218 0.973 10.756497587458 552.63144239076 2478.3730169057
7281	2526167 7122 22195 29012 266.5 320.75 218 -4.3755989074707 2.5 34.437047958374 321.29867036341
7280	2533289 7176 22172 29012 266.25 320.75 219 1.3495229482651 14.540693283081 2275.4596130848 28025.519402971
7279	2540465 7472 22149 29012 266 320.75 220 238.29412841797 483.14999389648 97676.616760254 44433613.256052
7278	2547937 7468 22149 29012 266 320.75 220 160.04040527344 483.17874145508 87267.101104736 36898480.935105
vector 7442  IntersectionExampleScenario.node[91].veinsmobility  acceleration  ETV
vector 7443  IntersectionExampleScenario.node[91].veinsmobility  co2emission  ETV
vector 7446  IntersectionExampleScenario.node[92].veinsmobility  posx  ETV
vector 7447  IntersectionExampleScenario.node[92].veinsmobility  posy  ETV
7310	2555724 6327 22839 29553 273.75 324.25 203 0.973 11.648172402475 573.39900701314 2873.8570204429
7309	2562051 5891 22839 29553 273.75 324.25 203 -7.4922199249268 4 38.171613693237 478.96476800243
7308	2567942 6175 22814 29553 273.5 324.25 204 0 15.64999961853 2208.1804227829 31244.436987406
7307	2574117 6951 22789 29553 273.25 324.25 205 237.53753662109 785.82187652588 105833.40450287 58787797.147248
7306	2581068 6971 22789 29553 273.25 324.25 205 483.14999389648 483.14999389648 99045.748748779 47853952.903445
vector 7448  IntersectionExampleScenario.node[92].veinsmobility  speed  ETV
vector 7449  IntersectionExampleScenario.node[92].veinsmobility  acceleration  ETV
vector 7450  IntersectionExampleScenario.node[92].veinsmobility  co2emission  ETV
7317	2588283 6701 22918 29784 274.5 325.75 206 0.973 11.423249024451 582.22759315395 2862.4862794225
7316	2594984 6198 22918 29784 274.5 325.75 206 -4.5 2.5000002384186 38.341367721558 443.62644554392
7315	2601182 6756 22891 29784 274.25 325.75 207 0 15.336415290833 2276.6783193387 31469.977099971
7314	2607938 7063 22864 29784 274 325.75 208 486.85000610352 808.82032012939 118099.25409698 69357743.267484
7313	2615001 7057 22864 29784 274 325.75 208 237.05786132812 483.14999389648 92323.012481689 41994143.615121
7331	2622058 5518 23816 29895 283.25 326.5 174 0.973 11.648172402475 532.14318072539 2861.8940660288
7330	2627576 5391 23816 29895 283.25 326.5 174 -2.2525444030762 2.5000019073486 39.869146347046 270.94621375632
7329	2632967 5757 23785 29895 283 326.5 175 4.15673828125 15.64999961853 2220.6644091606 30504.944679744
7328	2638724 5966 23754 29895 282.75 326.5 176 235.99456787109 785.82187652588 92248.340080261 52456999.287173
7327	2644690 5984 23754 29895 282.75 326.5 176 483.14999389648 483.14999389648 85034.398925781 41084369.321982
vector 7453  IntersectionExampleScenario.node[93].veinsmobility  posx  ETV
vector 7454  IntersectionExampleScenario.node[93].veinsmobility  posy  ETV
vector 7460  IntersectionExampleScenario.node[94].veinsmobility  posx  ETV
vector 7461  IntersectionExampleScenario.node[94].veinsmobility  posy  ETV
vector 7455  IntersectionExampleScenario.node[93].veinsmobility  speed  ETV
vector 7462  IntersectionExampleScenario.node[94].veinsmobility  speed  ETV
vector 7456  IntersectionExampleScenario.node[93].veinsmobility  acceleration  ETV
vector 7457  IntersectionExampleScenario.node[93].veinsmobility  co2emission  ETV
vector 7463  IntersectionExampleScenario.node[94].veinsmobility  acceleration  ETV
vector 7464  IntersectionExampleScenario.node[94].veinsmobility  co2emission  ETV
vector 7467  IntersectionExampleScenario.node[95].veinsmobility  posx  ETV
vector 7468  IntersectionExampleScenario.node[95].veinsmobility  posy  ETV
vector 7469  IntersectionExampleScenario.node[95].veinsmobility  speed  ETV
vector 7470  IntersectionExampleScenario.node[95].veinsmobility  acceleration  ETV
vector 7471  IntersectionExampleScenario.node[95].veinsmobility  co2emission  ETV
vector 7474  IntersectionExampleScenario.node[96].veinsmobility  posx  ETV
vector 7475  IntersectionExampleScenario.node[96].veinsmobility  posy  ETV
vector 7476  IntersectionExampleScenario.node[96].veinsmobility  speed  ETV
vector 7477  IntersectionExampleScenario.node[96].veinsmobility  acceleration  ETV
vector 7478  IntersectionExampleScenario.node[96].veinsmobility  co2emission  ETV
7296	2652258 8017 22612 31923 271.25 339.75 275 0.973 12.099024792222 663.43965660475 3276.2255789084
7295	2660275 7121 22612 31923 271.25 339.75 275 -9.4888134002686 4 40.887662887573 530.06788007151
7294	2667396 7485 22589 31923 271 339.75 276 0 16.27499961853 2180.4144985676 31701.827442564
7293	2674881 9345 22566 31923 270.75 339.75 277 486.85000610352 733.3787689209 142753.12379456 74634929.285989
7292	2684226 9412 22566 31923 270.75 339.75 277 486.63604736328 785.82187652588 149755.25614166 83044678.593871
vector 7481  IntersectionExampleScenario.node[97].veinsmobility  posx  ETV
vector 7482  IntersectionExampleScenario.node[97].veinsmobility  posy  ETV
vector 7483  IntersectionExampleScenario.node[97].veinsmobility  speed  ETV
vector 7484  IntersectionExampleScenario.node[97].veinsmobility  acceleration  ETV
vector 7485  IntersectionExampleScenario.node[97].veinsmobility  co2emission  ETV
7303	2694034 8583 22743 32212 272.75 341.75 277 0.973 11.450879080643 643.03922155023 2881.7315025092
7302	2702617 8267 22743 32212 272.75 341.75 277 -4.5 2.5 37.15309715271 429.24128708708
7301	2710884 8488 22720 32212 272.5 341.75 278 0 15.375 2280.6319027552 31325.468740723
7300	2719372 9466 22697 32212 272.25 341.75 279 238.40545654297 486.85000610352 127376.01858521 59297399.847014
7299	2728838 9476 22697 32212 272.25 341.75 279 483.13436889648 806.11563110352 153486.23862457 86923443.92636
vector 7488  IntersectionExampleScenario.node[98].veinsmobility  posx  ETV
vector 7489  IntersectionExampleScenario.node[98].veinsmobility  posy  ETV
vector 7495  IntersectionExampleScenario.node[99].veinsmobility  posx  ETV
vector 7496  IntersectionExampleScenario.node[99].veinsmobility  posy  ETV
vector 7490  IntersectionExampleScenario.node[98].veinsmobility  speed  ETV
vector 7497  IntersectionExampleScenario.node[99].veinsmobility  speed  ETV
vector 7502  IntersectionExampleScenario.node[100].veinsmobility  posx  ETV
vector 7503  IntersectionExampleScenario.node[100].veinsmobility  posy  ETV
vector 7491  IntersectionExampleScenario.node[98].veinsmobility  acceleration  ETV
vector 7492  IntersectionExampleScenario.node[98].veinsmobility  co2emission  ETV
vector 7498  IntersectionExampleScenario.node[99].veinsmobility  acceleration  ETV
vector 7499  IntersectionExampleScenario.node[99].veinsmobility  co2emission  ETV
[...]
9829	17387896 5414 163529 169448 1713.25 1753.5 162 -2.9221572875977 2.5 37.15309715271 226.50148907665
9828	17393310 5627 163485 169448 1713 1753.5 163 5.6500000953674 15.5 2211.8701334 30681.101739271
9827	17398937 5904 163442 169448 1712.75 1753.5 164 486.85000610352 486.85000610352 79843.401000977 38871760.264651
9826	17404841 5892 163442 169448 1712.75 1753.5 164 237.78649902344 785.82187652588 85778.58769989 49055081.563477
vector 9917  IntersectionExampleScenario.node[445].veinsmobility  posx  ETV
vector 9918  IntersectionExampleScenario.node[445].veinsmobility  posy  ETV
vector 9919  IntersectionExampleScenario.node[445].veinsmobility  speed  ETV
vector 9920  IntersectionExampleScenario.node[445].veinsmobility  acceleration  ETV
vector 9921  IntersectionExampleScenario.node[445].veinsmobility  co2emission  ETV
vector 9924  IntersectionExampleScenario.node[446].veinsmobility  posx  ETV
vector 9925  IntersectionExampleScenario.node[446].veinsmobility  posy  ETV
vector 9926  IntersectionExampleScenario.node[446].veinsmobility  speed  ETV
9837	17411366 5894 163572 169729 1713.5 1755.5 169 0.973 10.760565646568 496.41827187128 2315.916442242
9836	17417260 5840 163572 169729 1713.5 1755.5 169 -4.5 2.5 37.492597579956 193.89358271766
9835	17423100 5927 163529 169729 1713.25 1755.5 170 5.6500000953674 15.245407104492 2320.8998355865 32350.92546111
9834	17429027 6155 163485 169729 1713 1755.5 171 486.85000610352 486.85000610352 83251.351043701 40530920.763752
9833	17435182 6129 163485 169729 1713 1755.5 171 235.28643798828 810.23281097412 91433.487693787 53742335.471929
vector 9927  IntersectionExampleScenario.node[446].veinsmobility  acceleration  ETV
vector 9928  IntersectionExampleScenario.node[446].veinsmobility  co2emission  ETV
vector 9931  IntersectionExampleScenario.node[447].veinsmobility  posx  ETV
vector 9932  IntersectionExampleScenario.node[447].veinsmobility  posy  ETV
vector 9933  IntersectionExampleScenario.node[447].veinsmobility  speed  ETV
vector 9934  IntersectionExampleScenario.node[447].veinsmobility  acceleration  ETV
vector 9935  IntersectionExampleScenario.node[447].veinsmobility  co2emission  ETV
vector 9938  IntersectionExampleScenario.node[448].veinsmobility  posx  ETV
vector 9939  IntersectionExampleScenario.node[448].veinsmobility  posy  ETV
vector 9940  IntersectionExampleScenario.node[448].veinsmobility  speed  ETV
vector 9941  IntersectionExampleScenario.node[448].veinsmobility  acceleration  ETV
vector 9942  IntersectionExampleScenario.node[448].veinsmobility  co2emission  ETV
vector 9945  IntersectionExampleScenario.node[449].veinsmobility  posx  ETV
vector 9946  IntersectionExampleScenario.node[449].veinsmobility  posy  ETV
vector 9947  IntersectionExampleScenario.node[449].veinsmobility  speed  ETV
vector 9948  IntersectionExampleScenario.node[449].veinsmobility  acceleration  ETV
vector 9949  IntersectionExampleScenario.node[449].veinsmobility  co2emission  ETV
9725	17442683 10042 159157 170989 1680.5 1763.5 333 0.94600815583079 12.353032912318 727.24011991253 3394.850546795
9724	17452725 9014 159157 170989 1680.5 1763.5 333 -9.0364599227905 4 41.566686630249 521.77820785882
9723	17461739 9273 159128 170989 1680.25 1763.5 334 0 16.625 2197.4520976543 32387.721829703
9722	17471012 12027 159099 170989 1680 1763.5 335 184.17810058594 486.85000610352 146547.96853638 66296318.101915
9721	17483039 12059 159099 170989 1680 1763.5 335 238.00720214844 486.85000610352 155169.96115112 72999184.714537
9753	17495098 9095 161276 171440 1698.25 1766.25 273 0.973 11.90022389248 647.88808745667 3098.943991596
9752	17504193 9647 161276 171440 1698.25 1766.25 273 -3.9583501815796 2.5 39.869146347046 342.61697557261
9751	17513840 9591 161242 171440 1698 1766.25 274 0 16 2207.5486393021 29760.342477564
9750	17523431 9860 161207 171440 1697.75 1766.25 275 184.17810058594 487.09573364258 116675.67410278 51533641.585183
9749	17533291 9884 161207 171440 1697.75 1766.25 275 236.63256835938 486.85000610352 125656.29284668 58540633.909993
9809	17543175 7902 162920 171897 1709.5 1769.25 240 0.973 11.810082123732 603.39875596374 3058.3819804679
9808	17551077 8239 162920 171897 1709.5 1769.25 240 -3.9505226612091 2.5 38.511121749878 353.17441327199
9807	17559316 8325 162881 171897 1709.25 1769.25 241 0 15.875 2194.6458075773 28581.92650435
9806	17567641 8680 162842 171897 1709 1769.25 242 184.17810058594 483.19421386719 100385.58352661 43549372.525308
9805	17576321 8702 162842 171897 1709 1769.25 242 486.85000610352 735.40571594238 126128.45094299 66824395.089607
9823	17585023 7735 163319 172008 1712 1770 233 0.973 11.990504229548 615.88291544514 3116.1554801047
9822	17592758 8044 163319 172008 1712 1770 233 -4.5 2.5 40.038900375366 402.74378052682
9821	17600802 8214 163278 172008 1711.75 1770 234 0 16.125 2285.9555766135 30812.632420228
9820	17609016 8416 163237 172008 1711.5 1770 235 168.58435058594 734.6869354248 103453.96975708 50003410.160978
9819	17617432 8459 163237 172008 1711.5 1770 235 486.85000610352 486.85000610352 114409.75143433 55700388.184103
9760	17625891 9972 161379 173322 1699 1780.5 327 0.973 11.450879080643 684.32536947008 2936.6086533342
9759	17635863 8996 161379 173322 1699 1780.5 327 -6.7711095809937 4 36.98334312439 456.08186531079
9758	17644859 9349 161344 173322 1698.75 1780.5 328 0 15.375 2209.3351569176 30725.483345122
9757	17654208 11844 161309 173322 1698.5 1780.5 329 483.14999389648 483.14999389648 158956.34799194 76799758.562115
9756	17666052 11815 161309 173322 1698.5 1780.5 329 184.17810058594 732.67367553711 151491.74855042 73995712.069531
9767	17677867 10140 161652 173372 1701 1781 321 0.973 11.90022389248 719.60033519404 3186.6366245634
9766	17688007 9498 161652 173372 1701 1781 321 -4.5 2.5 41.227170944214 474.30540974025
9765	17697505 9676 161617 173372 1700.75 1781 322 0 16 2280.8281457638 32953.671519546
9764	17707181 11608 161582 173372 1700.5 1781 323 483.14999389648 732.98695373535 164097.16371155 84504284.794006
9763	17718789 11582 161582 173372 1700.5 1781 323 166.078125 486.86566162109 138213.73126221 61614609.835523
9816	17730371 9793 163041 173707 1710.25 1784.75 299 0.973 11.200708441096 641.17004591066 2702.0233519119
9815	17740164 10154 163041 173707 1710.25 1784.75 299 -3.8712913990021 2.5000009536743 35.795072555542 313.13217042409
9814	17750318 10182 163000 173707 1710 1784.75 300 0 15.02499961853 2216.0429132786 28272.744332881
9813	17760500 10831 162959 173707 1709.75 1784.75 301 483.14999389648 735.06474304199 154317.55554199 80346654.638098
9812	17771331 10801 162959 173707 1709.75 1784.75 301 184.17810058594 486.85000610352 127589.6229248 56149439.436651
vector 9952  IntersectionExampleScenario.node[450].veinsmobility  posx  ETV
vector 9953  IntersectionExampleScenario.node[450].veinsmobility  posy  ETV
vector 9954  IntersectionExampleScenario.node[450].veinsmobility  speed  ETV
9844	17782364 9399 164044 173877 1716.25 1786.75 283 0.973 11.810082123732 659.05780850046 3092.186475762
9843	17791763 9892 164044 173877 1716.25 1786.75 283 -3.8843622207642 2.5 39.359884262085 392.93559235021
9842	17801655 9837 164001 173877 1716 1786.75 284 0 15.875 2182.5412939321 28372.378082666
9841	17811492 10258 163958 173877 1715.75 1786.75 285 237.22021484375 483.14999389648 129668.03656006 60081950.630361
9840	17821750 10219 163958 173877 1715.75 1786.75 285 184.17810058594 483.14999389648 119181.13821411 51757555.133568
vector 9955  IntersectionExampleScenario.node[450].veinsmobility  acceleration  ETV
vector 9956  IntersectionExampleScenario.node[450].veinsmobility  co2emission  ETV
vector 9959  IntersectionExampleScenario.node[451].veinsmobility  posx  ETV
vector 9960  IntersectionExampleScenario.node[451].veinsmobility  posy  ETV
vector 9961  IntersectionExampleScenario.node[451].veinsmobility  speed  ETV
vector 9962  IntersectionExampleScenario.node[451].veinsmobility  acceleration  ETV
vector 9963  IntersectionExampleScenario.node[451].veinsmobility  co2emission  ETV
vector 9966  IntersectionExampleScenario.node[452].veinsmobility  posx  ETV
vector 9967  IntersectionExampleScenario.node[452].veinsmobility  posy  ETV
9879	17832693 7606 166632 174196 1733.75 1790 226 0.973 11.990504229548 593.26559682076 3011.1146349535
9878	17840299 7702 166632 174196 1733.75 1790 226 -4.5 2.5000019073486 39.869146347046 415.54986715953
9877	17848001 7917 166595 174196 1733.5 1790 227 0 16.125 2099.4285412133 28139.942264531
9876	17855918 8208 166558 174196 1733.25 1790 228 483.14999389648 483.14999389648 110158.1986084 53222932.985295
9875	17864126 8179 166558 174196 1733.25 1790 228 214.94219970703 734.05101013184 103126.15457153 50166772.341842
9851	17872305 8274 165764 174196 1727.5 1790 251 0.973 11.36141391502 593.0620153242 2760.1708962113
9850	17880579 8753 165764 174196 1727.5 1790 251 -3.9771800041199 2.5 36.134572982788 319.93593683243
9849	17889332 8727 165729 174196 1727.25 1790 252 0 15.25 2187.9782326836 27221.338181005
9848	17898059 9103 165694 174196 1727 1790 253 235.84973144531 483.14999389648 113698.20922852 52213029.253656
9847	17907162 9065 165694 174196 1727 1790 253 184.17810058594 483.16613769531 104077.01153564 44701353.95419
vector 9968  IntersectionExampleScenario.node[452].veinsmobility  speed  ETV
vector 9969  IntersectionExampleScenario.node[452].veinsmobility  acceleration  ETV
vector 9970  IntersectionExampleScenario.node[452].veinsmobility  co2emission  ETV
vector 9973  IntersectionExampleScenario.node[453].veinsmobility  posx  ETV
vector 9974  IntersectionExampleScenario.node[453].veinsmobility  posy  ETV
9865	17916628 8124 166384 174412 1732 1792 241 0.973 11.54047740176 652.75854149339 3184.1145126258
9864	17924752 8028 166384 174412 1732 1792 241 -4.5 2.5 39.869146347046 558.42606127288
9863	17932780 8244 166349 174412 1731.75 1792 242 0 16.047927856445 2220.4173519015 29192.772168147
9862	17941024 8747 166314 174412 1731.5 1792 243 483.14999389648 483.14999389648 117405.44851685 56724441.734328
9861	17949771 8710 166314 174412 1731.5 1792 243 184.17810058594 734.39414978027 105607.55117798 50361266.001486
vector 9975  IntersectionExampleScenario.node[453].veinsmobility  speed  ETV
vector 9976  IntersectionExampleScenario.node[453].veinsmobility  acceleration  ETV
vector 9977  IntersectionExampleScenario.node[453].veinsmobility  co2emission  ETV
9872	17958728 8416 166523 174731 1733 1794.75 248 0.973 11.450879080643 654.30699601554 3153.0890776298
9871	17967144 8501 166523 174731 1733 1794.75 248 -4.5 2.5 38.511121749878 481.32065718197
9870	17975645 8745 166488 174731 1732.75 1794.75 249 0.055648442357779 15.375 2290.4027545564 29578.650831432
9869	17984390 8986 166453 174731 1732.5 1794.75 250 483.14999389648 732.34436035156 129120.68725586 67794050.611296
9868	17993376 8966 166453 174731 1732.5 1794.75 250 162.00311279297 486.87634277344 98979.59375 41546467.208456
9795	18002342 10824 162365 174846 1705.75 1795.75 361 0.973 12.099024792222 779.83093101186 3680.4722653335
9794	18013166 9873 162365 174846 1705.75 1795.75 361 -25.368213653564 4 40.887662887573 1104.3787945315
9793	18023039 10099 162326 174846 1705.5 1795.75 362 0 16.27499961853 2299.610868454 32595.357113833
9792	18033138 13061 162287 174846 1705.25 1795.75 363 483.14999389648 809.68438720703 194776.14606476 107234927.39748
9791	18046199 13069 162287 174846 1705.25 1795.75 363 483.14999389648 733.30445861816 183479.28831482 93907456.736551
9802	18059268 11214 162805 175109 1708.75 1798.25 359 0.973 11.200708441096 704.15878906902 2799.3518579148
9801	18070482 10692 162805 175109 1708.75 1798.25 359 -4.5 2.5 35.795072555542 420.15503976905
9800	18081174 10790 162768 175109 1708.5 1798.25 360 0 15.02499961853 2276.4592013629 30491.358687208
9799	18091964 12983 162731 175109 1708.25 1798.25 361 486.85000610352 810.52814483643 195697.73603058 108797062.65394
9798	18104947 12987 162731 175109 1708.25 1798.25 361 238.07897949219 483.14999389648 165978.21438599 77491200.810627
9921	18117934 5934 169657 175184 1755 1799 177 0.973 12.099024792222 560.11235445835 3223.0505188049
9920	18123868 5865 169657 175184 1755 1799 177 -2.636402130127 2.5 40.887662887573 324.94913691013
9919	18129733 6108 169622 175184 1754.75 1799 178 3.7531845569611 16.27499961853 2210.5357429981 30378.11019545
9918	18135841 6430 169587 175184 1754.5 1799 179 483.14999389648 785.82187652588 101567.62247467 59407033.065784
9917	18142271 6419 169587 175184 1754.5 1799 179 483.14999389648 733.17111206055 94578.419830322 50952717.915057
9858	18148690 8361 165907 175280 1728.5 1800 287 0.973 12.553400930962 632.33844557366 3385.1081549361
9857	18157051 7454 165907 175280 1728.5 1800 287 -8.9821796417236 4 43.192052841187 530.50150347466
9856	18164505 7611 165871 175280 1728.25 1800 288 0 16.89999961853 1434.2908959389 20276.132898577
9855	18172116 10333 165834 175280 1728 1800 289 486.85000610352 547.18789672852 141298.32281494 69104964.706515
9854	18182449 10385 165834 175280 1728 1800 289 486.63604736328 785.82187652588 156059.27584076 86303277.9641
9886	18192834 7690 166923 175280 1735.75 1800 258 0.973 11.66866925236 492.39905673577 1996.8844054277
9885	18200524 7466 166923 175280 1735.75 1800 258 -7.6130228042603 2.5 -22.60000038147 585.49937715785
9884	18207990 7701 166886 175280 1735.5 1800 259 -0.59661102294922 15.678517341614 1247.6336728111 14875.532539164
9883	18215691 9360 166849 175280 1735.25 1800 260 483.14999389648 483.14999389648 125618.99841309 60692818.316565
9882	18225051 9292 166849 175280 1735.25 1800 260 158.50109863281 471.60000610352 102651.41888428 42733932.707134
9893	18234343 7281 167993 175280 1743.5 1800 227 0.973 11.200708441096 511.9356457165 2487.825535891
9892	18241624 7786 167993 175280 1743.5 1800 227 -3.712042093277 2.5 36.376752853394 327.35599471103
9891	18249410 7622 167958 175280 1743.25 1800 228 0 15.02499961853 1401.8992705364 16837.122567679
9890	18257032 8242 167923 175280 1743 1800 229 486.85000610352 486.85000610352 111488.65139771 54278250.613445
9889	18265274 8180 167923 175280 1743 1800 229 439.94027709961 785.82187652588 128076.30878448 73505737.747815
9900	18273454 6963 168487 175280 1747 1800 213 0.973 11.200708441096 427.3147360749 1701.6694626517
9899	18280417 7379 168487 175280 1747 1800 213 -4.5 2.5 10.89999961853 323.69708929669
9898	18287796 7474 168450 175280 1746.75 1800 214 0 15.02499961853 1280.3507373799 14580.885605809
9897	18295270 7737 168413 175280 1746.5 1800 215 486.85000610352 500.08120727539 104734.09417725 51020195.228499
9896	18303007 7709 168413 175280 1746.5 1800 215 486.67156982422 795.46562957764 123361.68547821 72544380.004847
9907	18310716 6775 168782 175280 1749 1800 205 0.973 11.200708441096 443.25681692846 1931.9568756958
9906	18317491 7293 168782 175280 1749 1800 205 -4.5 2.5000009536743 21.39999961853 383.93158849009
9905	18324784 7324 168745 175280 1748.75 1800 206 0 15.02499961853 1278.9932637699 15098.64193661
9904	18332108 7451 168708 175280 1748.5 1800 207 486.85000610352 486.85000610352 100777.95126343 49063746.187699
9903	18339559 7415 168708 175280 1748.5 1800 207 492.80026245117 808.74375915527 121214.34056091 72802725.491705
9914	18346974 6272 168934 175280 1750 1800 201 0.973 10.756497587458 386.87505615777 1536.9096424345
9913	18353246 6987 168934 175280 1750 1800 201 -4.4597320556641 2.5 -22.60000038147 310.95104720606
9912	18360233 6906 168895 175280 1749.75 1800 202 0 14.39999961853 1120.9170924108 11636.834532702
9911	18367139 7307 168856 175280 1749.5 1800 203 483.14999389648 483.14999389648 98079.448760986 47387085.070241
9910	18374446 7280 168856 175280 1749.5 1800 203 184.17810058594 465.20300292969 79101.139465332 32398732.222981
9928	18381726 5830 169766 175280 1755.75 1800 178 0.973 10.756497587458 349.10323942072 1418.4914570547
9927	18387556 6208 169766 175280 1755.75 1800 178 -4.5 2.5 1.410120010376 358.0545023443
9926	18393764 6324 169729 175280 1755.5 1800 179 0 14.39999961853 1075.9170036558 12508.968856811
9925	18400088 6480 169692 175280 1755.25 1800 180 486.85000610352 486.85000610352 87633.001098633 42664127.119739
9924	18406568 6461 169692 175280 1755.25 1800 180 518.93173217773 785.82187652588 106266.05081177 64067547.558515
9935	18413029 5641 170251 175280 1759 1800 165 0.973 10.756497587458 337.21733119453 1327.5554522035
9934	18418670 5872 170251 175280 1759 1800 165 -4.5 2.5 -15.170794010162 347.87523797085
9933	18424542 5934 170212 175280 1758.75 1800 166 0 15.295022964478 1067.7764565498 14010.715438666
9932	18430476 6011 170173 175280 1758.5 1800 167 486.85000610352 486.85000610352 81303.951019287 39582829.04998
9931	18436487 5986 170173 175280 1758.5 1800 167 531.12002563477 797.07032012939 100223.07763672 61482584.601518
9942	18442473 4944 170606 175280 1761.25 1800 156 0.973 11.854027149606 359.72241688116 2084.3396188988
9941	18447417 5511 170606 175280 1761.25 1800 156 -4.5 2.5 -22.471175268292 294.64741438403
9940	18452928 5615 170565 175280 1761 1800 157 0 15.935962677002 1096.9296314809 14037.757600596
9939	18458543 5687 170524 175280 1760.75 1800 158 483.14999389648 483.14999389648 76337.699035645 36882558.823143
9938	18464230 5660 170524 175280 1760.75 1800 158 184.17810058594 458.65460205078 60198.742462158 24313496.039316
9949	18469890 4784 170774 175280 1762.25 1800 152 0.973 11.648172402475 326.02331764899 1504.2165190077
9948	18474674 4817 170774 175280 1762.25 1800 152 -4.5 2.5 -17.786187648773 357.25052504799
9947	18479491 4911 170731 175280 1762 1800 153 0 15.721280097961 1055.1088658571 14225.54059971
9946	18484402 5543 170688 175280 1761.75 1800 154 486.85000610352 486.85000610352 74974.900939941 36501530.980221
9945	18489945 5528 170688 175280 1761.75 1800 154 539.31457519531 802.69454193115 94091.126434326 58732420.800411
9956	18495473 1879 173900 175280 1787 1800 53 0.973 11.200708441096 196.40176237355 1200.0182881178
9955	18497352 1878 173900 175280 1787 1800 53 -0.46867370605469 2.5 35.625345230103 94.252055527835
9954	18499230 1931 173877 175280 1786.75 1800 54 5.6500000953674 15.02499961853 719.94644069672 9935.5431715319
9953	18501161 1975 173854 175280 1786.5 1800 55 610.69122314453 785.82187652588 38877.455909729 27646007.583732
9952	18503136 1979 173854 175280 1786.5 1800 55 483.14999389648 483.14999389648 26573.249664307 12838865.413119
9963	18505115 1734 173996 175280 1788 1800 49 0.973 10.687534609723 183.99760738439 1111.4833265736
9962	18506849 1755 173996 175280 1788 1800 49 -0.45218658447266 2.5 34.776647567749 89.977755865435
9961	18508604 1792 173971 175280 1787.75 1800 50 5.6500000953674 14.796321868896 653.86949920654 8860.9669598176
9960	18510396 1830 173946 175280 1787.5 1800 51 649.28559875488 807.99687957764 37577.504112244 27813883.536399
9959	18512226 1835 173946 175280 1787.5 1800 51 483.14999389648 483.14999389648 24640.649688721 11905129.746711
9970	18514061 1369 174250 175280 1790.5 1800 39 0.973 12.099024792222 187.36700951153 1416.0199661671
9969	18515430 1260 174250 175280 1790.5 1800 39 -0.5 2.5 40.042921066284 107.0502934678
9968	18516690 1422 174223 175280 1790.25 1800 40 5.6500000953674 16.27499961853 543.7819776535 7808.8304002176
9967	18518112 1474 174196 175280 1790 1800 41 483.14999389648 483.14999389648 19809.149749756 9570790.5806891
9966	18519586 1456 174196 175280 1790 1800 41 184.17810058594 314.92602539062 9852.9144287109 2438105.2785626
9977	18521042 1102 174470 175280 1792.5 1800 31 0.973 11.648172402475 161.20404754255 1239.527694456
9976	18522144 977 174470 175280 1792.5 1800 31 -0.41465759277344 2.5 38.363527297974 100.39293166374
9975	18523121 1142 174441 175280 1792.25 1800 32 5.6500000953674 15.64999961853 410.80745220184 5606.9105861652
9974	18524263 1186 174412 175280 1792 1800 33 486.85000610352 486.85000610352 16066.050201416 7821756.6386188
9973	18525449 1184 174412 175280 1792 1800 33 688.23742675781 785.82187652588 24581.838737488 18342718.4336
6798	18526633 602 0 175279 0 1800 31 0 24 475 8063
6799	18527235 622 0 175279 0 1800 31 0 221 3404 500474
