version 2
run nodebug-25-20200606-20:19:15-18208
attr configname nodebug
attr datetime 20200606-20:19:15
attr experiment nodebug
attr inifile omnetpp.ini
attr iterationvars ""
attr iterationvars2 $repetition=25
attr measurement ""
attr network "\"org.car2x.veins.modules.application.ExtTraCIScenarioManagerLaunchd.IntersectionExampleScenario\""
attr processid 18208
attr repetition 25
attr replication #25
attr resultdir results
attr runnumber 25
attr seedset 25
param **.coreDebug false
param **.debug false
param *.**.nic.mac1609_4.bitrate 18Mbps
param *.**.nic.mac1609_4.txPower 20mW
param *.**.nic.mac1609_4.useServiceChannel false
param *.**.nic.phy80211p.analogueModels "xmldoc(\"config.xml\")"
param *.**.nic.phy80211p.decider "xmldoc(\"config.xml\")"
param *.**.nic.phy80211p.sensitivity -89dBm
param *.**.nic.phy80211p.thermalNoise -110dBm
param *.**.nic.phy80211p.usePropagationDelay true
param *.**.nic.phy80211p.useThermalNoise true
param *.annotations.draw false
param *.connectionManager.alpha 2.0
param *.connectionManager.carrierFrequency "5.890e9 Hz"
param *.connectionManager.pMax 20mW
param *.connectionManager.sat -89dBm
param *.connectionManager.sendDirect true
param *.manager.autoShutdown true
param *.manager.host "\"localhost\""
param *.manager.launchConfig "xmldoc(\"paramics.launchd.xml\")"
param *.manager.margin 25
param *.manager.moduleDisplayString "\"\""
param *.manager.moduleName "\"node\""
param *.manager.moduleType "\"org.car2x.veins.nodes.Car\""
param *.manager.port 9999
param *.manager.updateInterval 250ms
param *.node[*0].veinsmobility.accidentCount 0
param *.node[*0].veinsmobility.accidentDuration 30s
param *.node[*0].veinsmobility.accidentStart 75s
param *.node[*].appl.LiderSelectZoneRadio 55.0
param *.node[*].appl.ShareDataZoneRadio 110.0
param *.node[*].appl.TiempoSemaforo 30.0
param *.node[*].appl.beaconInterval 1s
param *.node[*].appl.beaconPriority 3
param *.node[*].appl.dataOnSch false
param *.node[*].appl.dataPriority 2
param *.node[*].appl.debug false
param *.node[*].appl.headerLength "256 bit"
param *.node[*].appl.maxOffset 0.005s
param *.node[*].appl.sendBeacons false
param *.node[*].appl.sendData true
param *.node[*].applType "\"Dummy\""
param *.node[*].mobilityType "\"TraCIMobility\""
param *.node[*].mobilityType.debug true
param *.node[*].veinsmobility.x 0
param *.node[*].veinsmobility.y 0
param *.node[*].veinsmobility.z 1.895
param *.node[*].veinsmobilityType "\"org.car2x.veins.modules.mobility.traci.TraCIMobility\""
param *.node[*].veinsmobilityType.debug true
param *.playgroundSizeX 8500m
param *.playgroundSizeY 8500m
param *.playgroundSizeZ 50m
param *.world.use2D false
param *.world.useTorus false

scalar IntersectionExampleScenario.node[5].appl 	VehicleRemoved 	0
scalar IntersectionExampleScenario.node[5].appl 	ArrivedAtDest 	1
scalar IntersectionExampleScenario.node[5].appl 	IntersectionEnterTime 	9.25
scalar IntersectionExampleScenario.node[5].appl 	IntersectionExitTime 	36.374692611425
scalar IntersectionExampleScenario.node[5].appl 	NumberOfCollisions 	0
scalar IntersectionExampleScenario.node[5].nic.phy80211p 	busyTime 	0
scalar IntersectionExampleScenario.node[5].nic.mac1609_4 	ReceivedUnicastPackets 	0
scalar IntersectionExampleScenario.node[5].nic.mac1609_4 	ReceivedBroadcasts 	0
scalar IntersectionExampleScenario.node[5].nic.mac1609_4 	SentPackets 	0
scalar IntersectionExampleScenario.node[5].nic.mac1609_4 	SNIRLostPackets 	0
scalar IntersectionExampleScenario.node[5].nic.mac1609_4 	RXTXLostPackets 	0
scalar IntersectionExampleScenario.node[5].nic.mac1609_4 	TotalLostPackets 	0
scalar IntersectionExampleScenario.node[5].nic.mac1609_4 	DroppedPacketsInMac 	0
scalar IntersectionExampleScenario.node[5].nic.mac1609_4 	TooLittleTime 	0
scalar IntersectionExampleScenario.node[5].nic.mac1609_4 	TimesIntoBackoff 	0
scalar IntersectionExampleScenario.node[5].nic.mac1609_4 	SlotsBackoff 	0
scalar IntersectionExampleScenario.node[5].nic.mac1609_4 	NumInternalContention 	0
scalar IntersectionExampleScenario.node[5].nic.mac1609_4 	totalBusyTime 	0
scalar IntersectionExampleScenario.node[5].veinsmobility 	startTime 	9.25
scalar IntersectionExampleScenario.node[5].veinsmobility 	totalTime 	43
scalar IntersectionExampleScenario.node[5].veinsmobility 	stopTime 	52.5
scalar IntersectionExampleScenario.node[5].veinsmobility 	minSpeed 	0
scalar IntersectionExampleScenario.node[5].veinsmobility 	maxSpeed 	15.64999961853
scalar IntersectionExampleScenario.node[5].veinsmobility 	totalDistance 	553.04893493652
scalar IntersectionExampleScenario.node[5].veinsmobility 	totalCO2Emission 	136.03947809001
scalar IntersectionExampleScenario.node[0].appl 	VehicleRemoved 	0
scalar IntersectionExampleScenario.node[0].appl 	ArrivedAtDest 	1
scalar IntersectionExampleScenario.node[0].appl 	IntersectionEnterTime 	1.25
scalar IntersectionExampleScenario.node[0].appl 	IntersectionExitTime 	52.273238904745
scalar IntersectionExampleScenario.node[0].appl 	NumberOfCollisions 	0
scalar IntersectionExampleScenario.node[0].nic.phy80211p 	busyTime 	0
scalar IntersectionExampleScenario.node[0].nic.mac1609_4 	ReceivedUnicastPackets 	0
scalar IntersectionExampleScenario.node[0].nic.mac1609_4 	ReceivedBroadcasts 	0
scalar IntersectionExampleScenario.node[0].nic.mac1609_4 	SentPackets 	0
scalar IntersectionExampleScenario.node[0].nic.mac1609_4 	SNIRLostPackets 	0
scalar IntersectionExampleScenario.node[0].nic.mac1609_4 	RXTXLostPackets 	0
scalar IntersectionExampleScenario.node[0].nic.mac1609_4 	TotalLostPackets 	0
scalar IntersectionExampleScenario.node[0].nic.mac1609_4 	DroppedPacketsInMac 	0
scalar IntersectionExampleScenario.node[0].nic.mac1609_4 	TooLittleTime 	0
scalar IntersectionExampleScenario.node[0].nic.mac1609_4 	TimesIntoBackoff 	0
scalar IntersectionExampleScenario.node[0].nic.mac1609_4 	SlotsBackoff 	0
scalar IntersectionExampleScenario.node[0].nic.mac1609_4 	NumInternalContention 	0
scalar IntersectionExampleScenario.node[0].nic.mac1609_4 	totalBusyTime 	0
scalar IntersectionExampleScenario.node[0].veinsmobility 	startTime 	1.25
scalar IntersectionExampleScenario.node[0].veinsmobility 	totalTime 	67.75
scalar IntersectionExampleScenario.node[0].veinsmobility 	stopTime 	69.25
scalar IntersectionExampleScenario.node[0].veinsmobility 	minSpeed 	0
scalar IntersectionExampleScenario.node[0].veinsmobility 	maxSpeed 	15.02499961853
scalar IntersectionExampleScenario.node[0].veinsmobility 	totalDistance 	551.50496019473
scalar IntersectionExampleScenario.node[0].veinsmobility 	totalCO2Emission 	154.89086682839
scalar IntersectionExampleScenario.node[1].appl 	VehicleRemoved 	0
scalar IntersectionExampleScenario.node[1].appl 	ArrivedAtDest 	1
scalar IntersectionExampleScenario.node[1].appl 	IntersectionEnterTime 	2.75
scalar IntersectionExampleScenario.node[1].appl 	IntersectionExitTime 	54.054701383022
scalar IntersectionExampleScenario.node[1].appl 	NumberOfCollisions 	0
scalar IntersectionExampleScenario.node[1].nic.phy80211p 	busyTime 	0
scalar IntersectionExampleScenario.node[1].nic.mac1609_4 	ReceivedUnicastPackets 	0
scalar IntersectionExampleScenario.node[1].nic.mac1609_4 	ReceivedBroadcasts 	0
scalar IntersectionExampleScenario.node[1].nic.mac1609_4 	SentPackets 	0
scalar IntersectionExampleScenario.node[1].nic.mac1609_4 	SNIRLostPackets 	0
scalar IntersectionExampleScenario.node[1].nic.mac1609_4 	RXTXLostPackets 	0
scalar IntersectionExampleScenario.node[1].nic.mac1609_4 	TotalLostPackets 	0
scalar IntersectionExampleScenario.node[1].nic.mac1609_4 	DroppedPacketsInMac 	0
scalar IntersectionExampleScenario.node[1].nic.mac1609_4 	TooLittleTime 	0
scalar IntersectionExampleScenario.node[1].nic.mac1609_4 	TimesIntoBackoff 	0
scalar IntersectionExampleScenario.node[1].nic.mac1609_4 	SlotsBackoff 	0
scalar IntersectionExampleScenario.node[1].nic.mac1609_4 	NumInternalContention 	0
scalar IntersectionExampleScenario.node[1].nic.mac1609_4 	totalBusyTime 	0
scalar IntersectionExampleScenario.node[1].veinsmobility 	startTime 	2.75
scalar IntersectionExampleScenario.node[1].veinsmobility 	totalTime 	67.5
scalar IntersectionExampleScenario.node[1].veinsmobility 	stopTime 	70.5
scalar IntersectionExampleScenario.node[1].veinsmobility 	minSpeed 	0
scalar IntersectionExampleScenario.node[1].veinsmobility 	maxSpeed 	15.996564865112
scalar IntersectionExampleScenario.node[1].veinsmobility 	totalDistance 	572.34779806132
scalar IntersectionExampleScenario.node[1].veinsmobility 	totalCO2Emission 	165.45365721188
scalar IntersectionExampleScenario.node[4].appl 	VehicleRemoved 	0
scalar IntersectionExampleScenario.node[4].appl 	ArrivedAtDest 	1
scalar IntersectionExampleScenario.node[4].appl 	IntersectionEnterTime 	8.5
scalar IntersectionExampleScenario.node[4].appl 	IntersectionExitTime 	56.354546813905
scalar IntersectionExampleScenario.node[4].appl 	NumberOfCollisions 	0
scalar IntersectionExampleScenario.node[4].nic.phy80211p 	busyTime 	0
scalar IntersectionExampleScenario.node[4].nic.mac1609_4 	ReceivedUnicastPackets 	0
scalar IntersectionExampleScenario.node[4].nic.mac1609_4 	ReceivedBroadcasts 	0
scalar IntersectionExampleScenario.node[4].nic.mac1609_4 	SentPackets 	0
scalar IntersectionExampleScenario.node[4].nic.mac1609_4 	SNIRLostPackets 	0
scalar IntersectionExampleScenario.node[4].nic.mac1609_4 	RXTXLostPackets 	0
scalar IntersectionExampleScenario.node[4].nic.mac1609_4 	TotalLostPackets 	0
scalar IntersectionExampleScenario.node[4].nic.mac1609_4 	DroppedPacketsInMac 	0
scalar IntersectionExampleScenario.node[4].nic.mac1609_4 	TooLittleTime 	0
scalar IntersectionExampleScenario.node[4].nic.mac1609_4 	TimesIntoBackoff 	0
scalar IntersectionExampleScenario.node[4].nic.mac1609_4 	SlotsBackoff 	0
scalar IntersectionExampleScenario.node[4].nic.mac1609_4 	NumInternalContention 	0
scalar IntersectionExampleScenario.node[4].nic.mac1609_4 	totalBusyTime 	0
scalar IntersectionExampleScenario.node[4].veinsmobility 	startTime 	8.5
scalar IntersectionExampleScenario.node[4].veinsmobility 	totalTime 	64
scalar IntersectionExampleScenario.node[4].veinsmobility 	stopTime 	72.75
scalar IntersectionExampleScenario.node[4].veinsmobility 	minSpeed 	0
scalar IntersectionExampleScenario.node[4].veinsmobility 	maxSpeed 	15.64999961853
scalar IntersectionExampleScenario.node[4].veinsmobility 	totalDistance 	518.67389508106
scalar IntersectionExampleScenario.node[4].veinsmobility 	totalCO2Emission 	153.93700866647
scalar IntersectionExampleScenario.node[2].appl 	VehicleRemoved 	0
scalar IntersectionExampleScenario.node[2].appl 	ArrivedAtDest 	1
scalar IntersectionExampleScenario.node[2].appl 	IntersectionEnterTime 	3.75
scalar IntersectionExampleScenario.node[2].appl 	IntersectionExitTime 	58.264130088268
scalar IntersectionExampleScenario.node[2].appl 	NumberOfCollisions 	0
scalar IntersectionExampleScenario.node[2].nic.phy80211p 	busyTime 	0
scalar IntersectionExampleScenario.node[2].nic.mac1609_4 	ReceivedUnicastPackets 	0
scalar IntersectionExampleScenario.node[2].nic.mac1609_4 	ReceivedBroadcasts 	0
scalar IntersectionExampleScenario.node[2].nic.mac1609_4 	SentPackets 	0
scalar IntersectionExampleScenario.node[2].nic.mac1609_4 	SNIRLostPackets 	0
scalar IntersectionExampleScenario.node[2].nic.mac1609_4 	RXTXLostPackets 	0
scalar IntersectionExampleScenario.node[2].nic.mac1609_4 	TotalLostPackets 	0
scalar IntersectionExampleScenario.node[2].nic.mac1609_4 	DroppedPacketsInMac 	0
scalar IntersectionExampleScenario.node[2].nic.mac1609_4 	TooLittleTime 	0
scalar IntersectionExampleScenario.node[2].nic.mac1609_4 	TimesIntoBackoff 	0
scalar IntersectionExampleScenario.node[2].nic.mac1609_4 	SlotsBackoff 	0
scalar IntersectionExampleScenario.node[2].nic.mac1609_4 	NumInternalContention 	0
scalar IntersectionExampleScenario.node[2].nic.mac1609_4 	totalBusyTime 	0
scalar IntersectionExampleScenario.node[2].veinsmobility 	startTime 	3.75
scalar IntersectionExampleScenario.node[2].veinsmobility 	totalTime 	70.5
scalar IntersectionExampleScenario.node[2].veinsmobility 	stopTime 	74.5
scalar IntersectionExampleScenario.node[2].veinsmobility 	minSpeed 	0
scalar IntersectionExampleScenario.node[2].veinsmobility 	maxSpeed 	15.5
scalar IntersectionExampleScenario.node[2].veinsmobility 	totalDistance 	583.97396087646
scalar IntersectionExampleScenario.node[2].veinsmobility 	totalCO2Emission 	180.11027629023
scalar IntersectionExampleScenario.node[3].appl 	VehicleRemoved 	0
scalar IntersectionExampleScenario.node[3].appl 	ArrivedAtDest 	1
scalar IntersectionExampleScenario.node[3].appl 	IntersectionEnterTime 	8.25
scalar IntersectionExampleScenario.node[3].appl 	IntersectionExitTime 	60.815089848795
scalar IntersectionExampleScenario.node[3].appl 	NumberOfCollisions 	0
scalar IntersectionExampleScenario.node[3].nic.phy80211p 	busyTime 	0
scalar IntersectionExampleScenario.node[3].nic.mac1609_4 	ReceivedUnicastPackets 	0
scalar IntersectionExampleScenario.node[3].nic.mac1609_4 	ReceivedBroadcasts 	0
scalar IntersectionExampleScenario.node[3].nic.mac1609_4 	SentPackets 	0
scalar IntersectionExampleScenario.node[3].nic.mac1609_4 	SNIRLostPackets 	0
scalar IntersectionExampleScenario.node[3].nic.mac1609_4 	RXTXLostPackets 	0
scalar IntersectionExampleScenario.node[3].nic.mac1609_4 	TotalLostPackets 	0
scalar IntersectionExampleScenario.node[3].nic.mac1609_4 	DroppedPacketsInMac 	0
scalar IntersectionExampleScenario.node[3].nic.mac1609_4 	TooLittleTime 	0
scalar IntersectionExampleScenario.node[3].nic.mac1609_4 	TimesIntoBackoff 	0
scalar IntersectionExampleScenario.node[3].nic.mac1609_4 	SlotsBackoff 	0
scalar IntersectionExampleScenario.node[3].nic.mac1609_4 	NumInternalContention 	0
scalar IntersectionExampleScenario.node[3].nic.mac1609_4 	totalBusyTime 	0
scalar IntersectionExampleScenario.node[3].veinsmobility 	startTime 	8.25
scalar IntersectionExampleScenario.node[3].veinsmobility 	totalTime 	69.25
scalar IntersectionExampleScenario.node[3].veinsmobility 	stopTime 	77.75
scalar IntersectionExampleScenario.node[3].veinsmobility 	minSpeed 	0
scalar IntersectionExampleScenario.node[3].veinsmobility 	maxSpeed 	14.875
scalar IntersectionExampleScenario.node[3].veinsmobility 	totalDistance 	572.99978637695
scalar IntersectionExampleScenario.node[3].veinsmobility 	totalCO2Emission 	159.06469692594
scalar IntersectionExampleScenario.node[7].appl 	VehicleRemoved 	0
scalar IntersectionExampleScenario.node[7].appl 	ArrivedAtDest 	1
scalar IntersectionExampleScenario.node[7].appl 	IntersectionEnterTime 	30.5
scalar IntersectionExampleScenario.node[7].appl 	IntersectionExitTime 	63.112534292188
scalar IntersectionExampleScenario.node[7].appl 	NumberOfCollisions 	0
scalar IntersectionExampleScenario.node[7].nic.phy80211p 	busyTime 	0
scalar IntersectionExampleScenario.node[7].nic.mac1609_4 	ReceivedUnicastPackets 	0
scalar IntersectionExampleScenario.node[7].nic.mac1609_4 	ReceivedBroadcasts 	0
scalar IntersectionExampleScenario.node[7].nic.mac1609_4 	SentPackets 	0
scalar IntersectionExampleScenario.node[7].nic.mac1609_4 	SNIRLostPackets 	0
scalar IntersectionExampleScenario.node[7].nic.mac1609_4 	RXTXLostPackets 	0
scalar IntersectionExampleScenario.node[7].nic.mac1609_4 	TotalLostPackets 	0
scalar IntersectionExampleScenario.node[7].nic.mac1609_4 	DroppedPacketsInMac 	0
scalar IntersectionExampleScenario.node[7].nic.mac1609_4 	TooLittleTime 	0
scalar IntersectionExampleScenario.node[7].nic.mac1609_4 	TimesIntoBackoff 	0
scalar IntersectionExampleScenario.node[7].nic.mac1609_4 	SlotsBackoff 	0
scalar IntersectionExampleScenario.node[7].nic.mac1609_4 	NumInternalContention 	0
scalar IntersectionExampleScenario.node[7].nic.mac1609_4 	totalBusyTime 	0
scalar IntersectionExampleScenario.node[7].veinsmobility 	startTime 	30.5
scalar IntersectionExampleScenario.node[7].veinsmobility 	totalTime 	48.75
scalar IntersectionExampleScenario.node[7].veinsmobility 	stopTime 	79.5
scalar IntersectionExampleScenario.node[7].veinsmobility 	minSpeed 	2.5674817562103
scalar IntersectionExampleScenario.node[7].veinsmobility 	maxSpeed 	16.27499961853
scalar IntersectionExampleScenario.node[7].veinsmobility 	totalDistance 	544.45406625774
scalar IntersectionExampleScenario.node[7].veinsmobility 	totalCO2Emission 	148.07281339831
scalar IntersectionExampleScenario.node[6].appl 	VehicleRemoved 	0
scalar IntersectionExampleScenario.node[6].appl 	ArrivedAtDest 	1
scalar IntersectionExampleScenario.node[6].appl 	IntersectionEnterTime 	17.25
scalar IntersectionExampleScenario.node[6].appl 	IntersectionExitTime 	68.339991253742
scalar IntersectionExampleScenario.node[6].appl 	NumberOfCollisions 	0
scalar IntersectionExampleScenario.node[6].nic.phy80211p 	busyTime 	0
scalar IntersectionExampleScenario.node[6].nic.mac1609_4 	ReceivedUnicastPackets 	0
scalar IntersectionExampleScenario.node[6].nic.mac1609_4 	ReceivedBroadcasts 	0
scalar IntersectionExampleScenario.node[6].nic.mac1609_4 	SentPackets 	0
scalar IntersectionExampleScenario.node[6].nic.mac1609_4 	SNIRLostPackets 	0
scalar IntersectionExampleScenario.node[6].nic.mac1609_4 	RXTXLostPackets 	0
scalar IntersectionExampleScenario.node[6].nic.mac1609_4 	TotalLostPackets 	0
scalar IntersectionExampleScenario.node[6].nic.mac1609_4 	DroppedPacketsInMac 	0
scalar IntersectionExampleScenario.node[6].nic.mac1609_4 	TooLittleTime 	0
scalar IntersectionExampleScenario.node[6].nic.mac1609_4 	TimesIntoBackoff 	0
scalar IntersectionExampleScenario.node[6].nic.mac1609_4 	SlotsBackoff 	0
scalar IntersectionExampleScenario.node[6].nic.mac1609_4 	NumInternalContention 	0
scalar IntersectionExampleScenario.node[6].nic.mac1609_4 	totalBusyTime 	0
scalar IntersectionExampleScenario.node[6].veinsmobility 	startTime 	17.25
scalar IntersectionExampleScenario.node[6].veinsmobility 	totalTime 	68.25
scalar IntersectionExampleScenario.node[6].veinsmobility 	stopTime 	85.75
scalar IntersectionExampleScenario.node[6].veinsmobility 	minSpeed 	0
scalar IntersectionExampleScenario.node[6].veinsmobility 	maxSpeed 	14.39999961853
scalar IntersectionExampleScenario.node[6].veinsmobility 	totalDistance 	549.61311449161
scalar IntersectionExampleScenario.node[6].veinsmobility 	totalCO2Emission 	150.60145026437
scalar IntersectionExampleScenario.node[9].appl 	VehicleRemoved 	0
scalar IntersectionExampleScenario.node[9].appl 	ArrivedAtDest 	1
scalar IntersectionExampleScenario.node[9].appl 	IntersectionEnterTime 	40.5
scalar IntersectionExampleScenario.node[9].appl 	IntersectionExitTime 	70.352961805795
scalar IntersectionExampleScenario.node[9].appl 	NumberOfCollisions 	0
scalar IntersectionExampleScenario.node[9].nic.phy80211p 	busyTime 	0
scalar IntersectionExampleScenario.node[9].nic.mac1609_4 	ReceivedUnicastPackets 	0
scalar IntersectionExampleScenario.node[9].nic.mac1609_4 	ReceivedBroadcasts 	0
scalar IntersectionExampleScenario.node[9].nic.mac1609_4 	SentPackets 	0
scalar IntersectionExampleScenario.node[9].nic.mac1609_4 	SNIRLostPackets 	0
scalar IntersectionExampleScenario.node[9].nic.mac1609_4 	RXTXLostPackets 	0
scalar IntersectionExampleScenario.node[9].nic.mac1609_4 	TotalLostPackets 	0
scalar IntersectionExampleScenario.node[9].nic.mac1609_4 	DroppedPacketsInMac 	0
scalar IntersectionExampleScenario.node[9].nic.mac1609_4 	TooLittleTime 	0
scalar IntersectionExampleScenario.node[9].nic.mac1609_4 	TimesIntoBackoff 	0
scalar IntersectionExampleScenario.node[9].nic.mac1609_4 	SlotsBackoff 	0
scalar IntersectionExampleScenario.node[9].nic.mac1609_4 	NumInternalContention 	0
scalar IntersectionExampleScenario.node[9].nic.mac1609_4 	totalBusyTime 	0
scalar IntersectionExampleScenario.node[9].veinsmobility 	startTime 	40.5
scalar IntersectionExampleScenario.node[9].veinsmobility 	totalTime 	46.25
scalar IntersectionExampleScenario.node[9].veinsmobility 	stopTime 	87
scalar IntersectionExampleScenario.node[9].veinsmobility 	minSpeed 	3.1077423095703
scalar IntersectionExampleScenario.node[9].veinsmobility 	maxSpeed 	15.64999961853
scalar IntersectionExampleScenario.node[9].veinsmobility 	totalDistance 	548.59589541185
scalar IntersectionExampleScenario.node[9].veinsmobility 	totalCO2Emission 	139.33658915342
scalar IntersectionExampleScenario.node[12].appl 	VehicleRemoved 	0
scalar IntersectionExampleScenario.node[12].appl 	ArrivedAtDest 	1
scalar IntersectionExampleScenario.node[12].appl 	IntersectionEnterTime 	51
scalar IntersectionExampleScenario.node[12].appl 	IntersectionExitTime 	74.607459427876
scalar IntersectionExampleScenario.node[12].appl 	NumberOfCollisions 	0
scalar IntersectionExampleScenario.node[12].nic.phy80211p 	busyTime 	0
scalar IntersectionExampleScenario.node[12].nic.mac1609_4 	ReceivedUnicastPackets 	0
scalar IntersectionExampleScenario.node[12].nic.mac1609_4 	ReceivedBroadcasts 	0
scalar IntersectionExampleScenario.node[12].nic.mac1609_4 	SentPackets 	0
scalar IntersectionExampleScenario.node[12].nic.mac1609_4 	SNIRLostPackets 	0
scalar IntersectionExampleScenario.node[12].nic.mac1609_4 	RXTXLostPackets 	0
scalar IntersectionExampleScenario.node[12].nic.mac1609_4 	TotalLostPackets 	0
scalar IntersectionExampleScenario.node[12].nic.mac1609_4 	DroppedPacketsInMac 	0
scalar IntersectionExampleScenario.node[12].nic.mac1609_4 	TooLittleTime 	0
scalar IntersectionExampleScenario.node[12].nic.mac1609_4 	TimesIntoBackoff 	0
scalar IntersectionExampleScenario.node[12].nic.mac1609_4 	SlotsBackoff 	0
scalar IntersectionExampleScenario.node[12].nic.mac1609_4 	NumInternalContention 	0
scalar IntersectionExampleScenario.node[12].nic.mac1609_4 	totalBusyTime 	0
scalar IntersectionExampleScenario.node[12].veinsmobility 	startTime 	51
scalar IntersectionExampleScenario.node[12].veinsmobility 	totalTime 	39.75
scalar IntersectionExampleScenario.node[12].veinsmobility 	stopTime 	91
scalar IntersectionExampleScenario.node[12].veinsmobility 	minSpeed 	5.6500000953674
scalar IntersectionExampleScenario.node[12].veinsmobility 	maxSpeed 	15.739252090454
scalar IntersectionExampleScenario.node[12].veinsmobility 	totalDistance 	550.6794420931
scalar IntersectionExampleScenario.node[12].veinsmobility 	totalCO2Emission 	131.12637160978
scalar IntersectionExampleScenario.node[8].appl 	VehicleRemoved 	0
scalar IntersectionExampleScenario.node[8].appl 	ArrivedAtDest 	1
scalar IntersectionExampleScenario.node[8].appl 	IntersectionEnterTime 	34.5
scalar IntersectionExampleScenario.node[8].appl 	IntersectionExitTime 	84.315727370617
scalar IntersectionExampleScenario.node[8].appl 	NumberOfCollisions 	0
scalar IntersectionExampleScenario.node[8].nic.phy80211p 	busyTime 	0
scalar IntersectionExampleScenario.node[8].nic.mac1609_4 	ReceivedUnicastPackets 	0
scalar IntersectionExampleScenario.node[8].nic.mac1609_4 	ReceivedBroadcasts 	0
scalar IntersectionExampleScenario.node[8].nic.mac1609_4 	SentPackets 	0
scalar IntersectionExampleScenario.node[8].nic.mac1609_4 	SNIRLostPackets 	0
scalar IntersectionExampleScenario.node[8].nic.mac1609_4 	RXTXLostPackets 	0
scalar IntersectionExampleScenario.node[8].nic.mac1609_4 	TotalLostPackets 	0
scalar IntersectionExampleScenario.node[8].nic.mac1609_4 	DroppedPacketsInMac 	0
scalar IntersectionExampleScenario.node[8].nic.mac1609_4 	TooLittleTime 	0
scalar IntersectionExampleScenario.node[8].nic.mac1609_4 	TimesIntoBackoff 	0
scalar IntersectionExampleScenario.node[8].nic.mac1609_4 	SlotsBackoff 	0
scalar IntersectionExampleScenario.node[8].nic.mac1609_4 	NumInternalContention 	0
scalar IntersectionExampleScenario.node[8].nic.mac1609_4 	totalBusyTime 	0
scalar IntersectionExampleScenario.node[8].veinsmobility 	startTime 	34.5
scalar IntersectionExampleScenario.node[8].veinsmobility 	totalTime 	66
scalar IntersectionExampleScenario.node[8].veinsmobility 	stopTime 	100.75
scalar IntersectionExampleScenario.node[8].veinsmobility 	minSpeed 	0
scalar IntersectionExampleScenario.node[8].veinsmobility 	maxSpeed 	15.375
scalar IntersectionExampleScenario.node[8].veinsmobility 	totalDistance 	549.30344499698
scalar IntersectionExampleScenario.node[8].veinsmobility 	totalCO2Emission 	155.58775936613
scalar IntersectionExampleScenario.node[14].appl 	VehicleRemoved 	0
scalar IntersectionExampleScenario.node[14].appl 	ArrivedAtDest 	1
scalar IntersectionExampleScenario.node[14].appl 	IntersectionEnterTime 	53.25
scalar IntersectionExampleScenario.node[14].appl 	IntersectionExitTime 	86.252778408234
scalar IntersectionExampleScenario.node[14].appl 	NumberOfCollisions 	0
scalar IntersectionExampleScenario.node[14].nic.phy80211p 	busyTime 	0
scalar IntersectionExampleScenario.node[14].nic.mac1609_4 	ReceivedUnicastPackets 	0
scalar IntersectionExampleScenario.node[14].nic.mac1609_4 	ReceivedBroadcasts 	0
scalar IntersectionExampleScenario.node[14].nic.mac1609_4 	SentPackets 	0
scalar IntersectionExampleScenario.node[14].nic.mac1609_4 	SNIRLostPackets 	0
scalar IntersectionExampleScenario.node[14].nic.mac1609_4 	RXTXLostPackets 	0
scalar IntersectionExampleScenario.node[14].nic.mac1609_4 	TotalLostPackets 	0
scalar IntersectionExampleScenario.node[14].nic.mac1609_4 	DroppedPacketsInMac 	0
scalar IntersectionExampleScenario.node[14].nic.mac1609_4 	TooLittleTime 	0
scalar IntersectionExampleScenario.node[14].nic.mac1609_4 	TimesIntoBackoff 	0
scalar IntersectionExampleScenario.node[14].nic.mac1609_4 	SlotsBackoff 	0
scalar IntersectionExampleScenario.node[14].nic.mac1609_4 	NumInternalContention 	0
scalar IntersectionExampleScenario.node[14].nic.mac1609_4 	totalBusyTime 	0
scalar IntersectionExampleScenario.node[14].veinsmobility 	startTime 	53.25
scalar IntersectionExampleScenario.node[14].veinsmobility 	totalTime 	49
scalar IntersectionExampleScenario.node[14].veinsmobility 	stopTime 	102.5
scalar IntersectionExampleScenario.node[14].veinsmobility 	minSpeed 	1.5202888250351
scalar IntersectionExampleScenario.node[14].veinsmobility 	maxSpeed 	15.64999961853
scalar IntersectionExampleScenario.node[14].veinsmobility 	totalDistance 	549.66215347764
scalar IntersectionExampleScenario.node[14].veinsmobility 	totalCO2Emission 	140.03547592931
scalar IntersectionExampleScenario.node[15].appl 	VehicleRemoved 	0
scalar IntersectionExampleScenario.node[15].appl 	ArrivedAtDest 	1
scalar IntersectionExampleScenario.node[15].appl 	IntersectionEnterTime 	57.25
scalar IntersectionExampleScenario.node[15].appl 	IntersectionExitTime 	88.557312533754
scalar IntersectionExampleScenario.node[15].appl 	NumberOfCollisions 	0
scalar IntersectionExampleScenario.node[15].nic.phy80211p 	busyTime 	0
scalar IntersectionExampleScenario.node[15].nic.mac1609_4 	ReceivedUnicastPackets 	0
scalar IntersectionExampleScenario.node[15].nic.mac1609_4 	ReceivedBroadcasts 	0
scalar IntersectionExampleScenario.node[15].nic.mac1609_4 	SentPackets 	0
scalar IntersectionExampleScenario.node[15].nic.mac1609_4 	SNIRLostPackets 	0
scalar IntersectionExampleScenario.node[15].nic.mac1609_4 	RXTXLostPackets 	0
scalar IntersectionExampleScenario.node[15].nic.mac1609_4 	TotalLostPackets 	0
scalar IntersectionExampleScenario.node[15].nic.mac1609_4 	DroppedPacketsInMac 	0
scalar IntersectionExampleScenario.node[15].nic.mac1609_4 	TooLittleTime 	0
scalar IntersectionExampleScenario.node[15].nic.mac1609_4 	TimesIntoBackoff 	0
scalar IntersectionExampleScenario.node[15].nic.mac1609_4 	SlotsBackoff 	0
scalar IntersectionExampleScenario.node[15].nic.mac1609_4 	NumInternalContention 	0
scalar IntersectionExampleScenario.node[15].nic.mac1609_4 	totalBusyTime 	0
scalar IntersectionExampleScenario.node[15].veinsmobility 	startTime 	57.25
scalar IntersectionExampleScenario.node[15].veinsmobility 	totalTime 	47.5
scalar IntersectionExampleScenario.node[15].veinsmobility 	stopTime 	105
scalar IntersectionExampleScenario.node[15].veinsmobility 	minSpeed 	4.098744392395
scalar IntersectionExampleScenario.node[15].veinsmobility 	maxSpeed 	15.64999961853
scalar IntersectionExampleScenario.node[15].veinsmobility 	totalDistance 	555.27623360204
scalar IntersectionExampleScenario.node[15].veinsmobility 	totalCO2Emission 	136.39711006927
scalar IntersectionExampleScenario.node[20].appl 	VehicleRemoved 	0
scalar IntersectionExampleScenario.node[20].appl 	ArrivedAtDest 	1
scalar IntersectionExampleScenario.node[20].appl 	IntersectionEnterTime 	65.5
scalar IntersectionExampleScenario.node[20].appl 	IntersectionExitTime 	91.094900957192
scalar IntersectionExampleScenario.node[20].appl 	NumberOfCollisions 	0
scalar IntersectionExampleScenario.node[20].nic.phy80211p 	busyTime 	0
scalar IntersectionExampleScenario.node[20].nic.mac1609_4 	ReceivedUnicastPackets 	0
scalar IntersectionExampleScenario.node[20].nic.mac1609_4 	ReceivedBroadcasts 	0
scalar IntersectionExampleScenario.node[20].nic.mac1609_4 	SentPackets 	0
scalar IntersectionExampleScenario.node[20].nic.mac1609_4 	SNIRLostPackets 	0
scalar IntersectionExampleScenario.node[20].nic.mac1609_4 	RXTXLostPackets 	0
scalar IntersectionExampleScenario.node[20].nic.mac1609_4 	TotalLostPackets 	0
scalar IntersectionExampleScenario.node[20].nic.mac1609_4 	DroppedPacketsInMac 	0
scalar IntersectionExampleScenario.node[20].nic.mac1609_4 	TooLittleTime 	0
scalar IntersectionExampleScenario.node[20].nic.mac1609_4 	TimesIntoBackoff 	0
scalar IntersectionExampleScenario.node[20].nic.mac1609_4 	SlotsBackoff 	0
scalar IntersectionExampleScenario.node[20].nic.mac1609_4 	NumInternalContention 	0
scalar IntersectionExampleScenario.node[20].nic.mac1609_4 	totalBusyTime 	0
scalar IntersectionExampleScenario.node[20].veinsmobility 	startTime 	65.5
scalar IntersectionExampleScenario.node[20].veinsmobility 	totalTime 	41.5
scalar IntersectionExampleScenario.node[20].veinsmobility 	stopTime 	107.25
scalar IntersectionExampleScenario.node[20].veinsmobility 	minSpeed 	5.6500000953674
scalar IntersectionExampleScenario.node[20].veinsmobility 	maxSpeed 	15.64999961853
scalar IntersectionExampleScenario.node[20].veinsmobility 	totalDistance 	550.92814363356
scalar IntersectionExampleScenario.node[20].veinsmobility 	totalCO2Emission 	124.69100378195
scalar IntersectionExampleScenario.node[24].appl 	VehicleRemoved 	0
scalar IntersectionExampleScenario.node[24].appl 	ArrivedAtDest 	1
scalar IntersectionExampleScenario.node[24].appl 	IntersectionEnterTime 	74.75
scalar IntersectionExampleScenario.node[24].appl 	IntersectionExitTime 	97.760545277968
scalar IntersectionExampleScenario.node[24].appl 	NumberOfCollisions 	0
scalar IntersectionExampleScenario.node[24].nic.phy80211p 	busyTime 	0
scalar IntersectionExampleScenario.node[24].nic.mac1609_4 	ReceivedUnicastPackets 	0
scalar IntersectionExampleScenario.node[24].nic.mac1609_4 	ReceivedBroadcasts 	0
scalar IntersectionExampleScenario.node[24].nic.mac1609_4 	SentPackets 	0
scalar IntersectionExampleScenario.node[24].nic.mac1609_4 	SNIRLostPackets 	0
scalar IntersectionExampleScenario.node[24].nic.mac1609_4 	RXTXLostPackets 	0
scalar IntersectionExampleScenario.node[24].nic.mac1609_4 	TotalLostPackets 	0
scalar IntersectionExampleScenario.node[24].nic.mac1609_4 	DroppedPacketsInMac 	0
scalar IntersectionExampleScenario.node[24].nic.mac1609_4 	TooLittleTime 	0
scalar IntersectionExampleScenario.node[24].nic.mac1609_4 	TimesIntoBackoff 	0
scalar IntersectionExampleScenario.node[24].nic.mac1609_4 	SlotsBackoff 	0
scalar IntersectionExampleScenario.node[24].nic.mac1609_4 	NumInternalContention 	0
scalar IntersectionExampleScenario.node[24].nic.mac1609_4 	totalBusyTime 	0
scalar IntersectionExampleScenario.node[24].veinsmobility 	startTime 	74.75
scalar IntersectionExampleScenario.node[24].veinsmobility 	totalTime 	39.5
scalar IntersectionExampleScenario.node[24].veinsmobility 	stopTime 	114.5
scalar IntersectionExampleScenario.node[24].veinsmobility 	minSpeed 	5.6500000953674
scalar IntersectionExampleScenario.node[24].veinsmobility 	maxSpeed 	15.875
scalar IntersectionExampleScenario.node[24].veinsmobility 	totalDistance 	545.34242807971
scalar IntersectionExampleScenario.node[24].veinsmobility 	totalCO2Emission 	128.46329070845
scalar IntersectionExampleScenario.node[17].appl 	VehicleRemoved 	0
scalar IntersectionExampleScenario.node[17].appl 	ArrivedAtDest 	1
scalar IntersectionExampleScenario.node[17].appl 	IntersectionEnterTime 	60.75
scalar IntersectionExampleScenario.node[17].appl 	IntersectionExitTime 	99.873809313693
scalar IntersectionExampleScenario.node[17].appl 	NumberOfCollisions 	0
scalar IntersectionExampleScenario.node[17].nic.phy80211p 	busyTime 	0
scalar IntersectionExampleScenario.node[17].nic.mac1609_4 	ReceivedUnicastPackets 	0
scalar IntersectionExampleScenario.node[17].nic.mac1609_4 	ReceivedBroadcasts 	0
scalar IntersectionExampleScenario.node[17].nic.mac1609_4 	SentPackets 	0
scalar IntersectionExampleScenario.node[17].nic.mac1609_4 	SNIRLostPackets 	0
scalar IntersectionExampleScenario.node[17].nic.mac1609_4 	RXTXLostPackets 	0
scalar IntersectionExampleScenario.node[17].nic.mac1609_4 	TotalLostPackets 	0
scalar IntersectionExampleScenario.node[17].nic.mac1609_4 	DroppedPacketsInMac 	0
scalar IntersectionExampleScenario.node[17].nic.mac1609_4 	TooLittleTime 	0
scalar IntersectionExampleScenario.node[17].nic.mac1609_4 	TimesIntoBackoff 	0
scalar IntersectionExampleScenario.node[17].nic.mac1609_4 	SlotsBackoff 	0
scalar IntersectionExampleScenario.node[17].nic.mac1609_4 	NumInternalContention 	0
scalar IntersectionExampleScenario.node[17].nic.mac1609_4 	totalBusyTime 	0
scalar IntersectionExampleScenario.node[17].veinsmobility 	startTime 	60.75
scalar IntersectionExampleScenario.node[17].veinsmobility 	totalTime 	54.75
scalar IntersectionExampleScenario.node[17].veinsmobility 	stopTime 	115.75
scalar IntersectionExampleScenario.node[17].veinsmobility 	minSpeed 	0
scalar IntersectionExampleScenario.node[17].veinsmobility 	maxSpeed 	16.27499961853
scalar IntersectionExampleScenario.node[17].veinsmobility 	totalDistance 	552.05103426408
scalar IntersectionExampleScenario.node[17].veinsmobility 	totalCO2Emission 	152.63050083453
scalar IntersectionExampleScenario.node[23].appl 	VehicleRemoved 	0
scalar IntersectionExampleScenario.node[23].appl 	ArrivedAtDest 	1
scalar IntersectionExampleScenario.node[23].appl 	IntersectionEnterTime 	67.25
scalar IntersectionExampleScenario.node[23].appl 	IntersectionExitTime 	101.58617965918
scalar IntersectionExampleScenario.node[23].appl 	NumberOfCollisions 	0
scalar IntersectionExampleScenario.node[23].nic.phy80211p 	busyTime 	0
scalar IntersectionExampleScenario.node[23].nic.mac1609_4 	ReceivedUnicastPackets 	0
scalar IntersectionExampleScenario.node[23].nic.mac1609_4 	ReceivedBroadcasts 	0
scalar IntersectionExampleScenario.node[23].nic.mac1609_4 	SentPackets 	0
scalar IntersectionExampleScenario.node[23].nic.mac1609_4 	SNIRLostPackets 	0
scalar IntersectionExampleScenario.node[23].nic.mac1609_4 	RXTXLostPackets 	0
scalar IntersectionExampleScenario.node[23].nic.mac1609_4 	TotalLostPackets 	0
scalar IntersectionExampleScenario.node[23].nic.mac1609_4 	DroppedPacketsInMac 	0
scalar IntersectionExampleScenario.node[23].nic.mac1609_4 	TooLittleTime 	0
scalar IntersectionExampleScenario.node[23].nic.mac1609_4 	TimesIntoBackoff 	0
scalar IntersectionExampleScenario.node[23].nic.mac1609_4 	SlotsBackoff 	0
scalar IntersectionExampleScenario.node[23].nic.mac1609_4 	NumInternalContention 	0
scalar IntersectionExampleScenario.node[23].nic.mac1609_4 	totalBusyTime 	0
scalar IntersectionExampleScenario.node[23].veinsmobility 	startTime 	67.25
scalar IntersectionExampleScenario.node[23].veinsmobility 	totalTime 	50.25
scalar IntersectionExampleScenario.node[23].veinsmobility 	stopTime 	117.75
scalar IntersectionExampleScenario.node[23].veinsmobility 	minSpeed 	0
scalar IntersectionExampleScenario.node[23].veinsmobility 	maxSpeed 	15.64999961853
scalar IntersectionExampleScenario.node[23].veinsmobility 	totalDistance 	554.79161071777
scalar IntersectionExampleScenario.node[23].veinsmobility 	totalCO2Emission 	139.07992821298
scalar IntersectionExampleScenario.node[26].appl 	VehicleRemoved 	0
scalar IntersectionExampleScenario.node[26].appl 	ArrivedAtDest 	1
scalar IntersectionExampleScenario.node[26].appl 	IntersectionEnterTime 	80
scalar IntersectionExampleScenario.node[26].appl 	IntersectionExitTime 	104.28163052924
scalar IntersectionExampleScenario.node[26].appl 	NumberOfCollisions 	0
scalar IntersectionExampleScenario.node[26].nic.phy80211p 	busyTime 	0
scalar IntersectionExampleScenario.node[26].nic.mac1609_4 	ReceivedUnicastPackets 	0
scalar IntersectionExampleScenario.node[26].nic.mac1609_4 	ReceivedBroadcasts 	0
scalar IntersectionExampleScenario.node[26].nic.mac1609_4 	SentPackets 	0
scalar IntersectionExampleScenario.node[26].nic.mac1609_4 	SNIRLostPackets 	0
scalar IntersectionExampleScenario.node[26].nic.mac1609_4 	RXTXLostPackets 	0
scalar IntersectionExampleScenario.node[26].nic.mac1609_4 	TotalLostPackets 	0
scalar IntersectionExampleScenario.node[26].nic.mac1609_4 	DroppedPacketsInMac 	0
scalar IntersectionExampleScenario.node[26].nic.mac1609_4 	TooLittleTime 	0
scalar IntersectionExampleScenario.node[26].nic.mac1609_4 	TimesIntoBackoff 	0
scalar IntersectionExampleScenario.node[26].nic.mac1609_4 	SlotsBackoff 	0
scalar IntersectionExampleScenario.node[26].nic.mac1609_4 	NumInternalContention 	0
scalar IntersectionExampleScenario.node[26].nic.mac1609_4 	totalBusyTime 	0
scalar IntersectionExampleScenario.node[26].veinsmobility 	startTime 	80
scalar IntersectionExampleScenario.node[26].veinsmobility 	totalTime 	40.75
scalar IntersectionExampleScenario.node[26].veinsmobility 	stopTime 	121
scalar IntersectionExampleScenario.node[26].veinsmobility 	minSpeed 	5.6500000953674
scalar IntersectionExampleScenario.node[26].veinsmobility 	maxSpeed 	15.64999961853
scalar IntersectionExampleScenario.node[26].veinsmobility 	totalDistance 	552.6684941432
scalar IntersectionExampleScenario.node[26].veinsmobility 	totalCO2Emission 	136.47143072446
scalar IntersectionExampleScenario.node[29].appl 	VehicleRemoved 	0
scalar IntersectionExampleScenario.node[29].appl 	ArrivedAtDest 	1
scalar IntersectionExampleScenario.node[29].appl 	IntersectionEnterTime 	87.5
scalar IntersectionExampleScenario.node[29].appl 	IntersectionExitTime 	110.29477183052
scalar IntersectionExampleScenario.node[29].appl 	NumberOfCollisions 	0
scalar IntersectionExampleScenario.node[29].nic.phy80211p 	busyTime 	0
scalar IntersectionExampleScenario.node[29].nic.mac1609_4 	ReceivedUnicastPackets 	0
scalar IntersectionExampleScenario.node[29].nic.mac1609_4 	ReceivedBroadcasts 	0
scalar IntersectionExampleScenario.node[29].nic.mac1609_4 	SentPackets 	0
scalar IntersectionExampleScenario.node[29].nic.mac1609_4 	SNIRLostPackets 	0
scalar IntersectionExampleScenario.node[29].nic.mac1609_4 	RXTXLostPackets 	0
scalar IntersectionExampleScenario.node[29].nic.mac1609_4 	TotalLostPackets 	0
scalar IntersectionExampleScenario.node[29].nic.mac1609_4 	DroppedPacketsInMac 	0
scalar IntersectionExampleScenario.node[29].nic.mac1609_4 	TooLittleTime 	0
scalar IntersectionExampleScenario.node[29].nic.mac1609_4 	TimesIntoBackoff 	0
scalar IntersectionExampleScenario.node[29].nic.mac1609_4 	SlotsBackoff 	0
scalar IntersectionExampleScenario.node[29].nic.mac1609_4 	NumInternalContention 	0
scalar IntersectionExampleScenario.node[29].nic.mac1609_4 	totalBusyTime 	0
scalar IntersectionExampleScenario.node[29].veinsmobility 	startTime 	87.5
scalar IntersectionExampleScenario.node[29].veinsmobility 	totalTime 	38.75
scalar IntersectionExampleScenario.node[29].veinsmobility 	stopTime 	126.5
scalar IntersectionExampleScenario.node[29].veinsmobility 	minSpeed 	5.6500000953674
scalar IntersectionExampleScenario.node[29].veinsmobility 	maxSpeed 	15.869058609009
scalar IntersectionExampleScenario.node[29].veinsmobility 	totalDistance 	550.42753224567
scalar IntersectionExampleScenario.node[29].veinsmobility 	totalCO2Emission 	125.24496771816
scalar IntersectionExampleScenario.node[10].appl 	VehicleRemoved 	0
scalar IntersectionExampleScenario.node[10].appl 	ArrivedAtDest 	1
scalar IntersectionExampleScenario.node[10].appl 	IntersectionEnterTime 	43.25
scalar IntersectionExampleScenario.node[10].appl 	IntersectionExitTime 	115.56386285083
scalar IntersectionExampleScenario.node[10].appl 	NumberOfCollisions 	0
scalar IntersectionExampleScenario.node[10].nic.phy80211p 	busyTime 	0
scalar IntersectionExampleScenario.node[10].nic.mac1609_4 	ReceivedUnicastPackets 	0
scalar IntersectionExampleScenario.node[10].nic.mac1609_4 	ReceivedBroadcasts 	0
scalar IntersectionExampleScenario.node[10].nic.mac1609_4 	SentPackets 	0
scalar IntersectionExampleScenario.node[10].nic.mac1609_4 	SNIRLostPackets 	0
scalar IntersectionExampleScenario.node[10].nic.mac1609_4 	RXTXLostPackets 	0
scalar IntersectionExampleScenario.node[10].nic.mac1609_4 	TotalLostPackets 	0
scalar IntersectionExampleScenario.node[10].nic.mac1609_4 	DroppedPacketsInMac 	0
scalar IntersectionExampleScenario.node[10].nic.mac1609_4 	TooLittleTime 	0
scalar IntersectionExampleScenario.node[10].nic.mac1609_4 	TimesIntoBackoff 	0
scalar IntersectionExampleScenario.node[10].nic.mac1609_4 	SlotsBackoff 	0
scalar IntersectionExampleScenario.node[10].nic.mac1609_4 	NumInternalContention 	0
scalar IntersectionExampleScenario.node[10].nic.mac1609_4 	totalBusyTime 	0
scalar IntersectionExampleScenario.node[10].veinsmobility 	startTime 	43.25
scalar IntersectionExampleScenario.node[10].veinsmobility 	totalTime 	89
scalar IntersectionExampleScenario.node[10].veinsmobility 	stopTime 	132.5
scalar IntersectionExampleScenario.node[10].veinsmobility 	minSpeed 	0
scalar IntersectionExampleScenario.node[10].veinsmobility 	maxSpeed 	15.64999961853
scalar IntersectionExampleScenario.node[10].veinsmobility 	totalDistance 	544.42739774138
scalar IntersectionExampleScenario.node[10].veinsmobility 	totalCO2Emission 	182.69773853904
scalar IntersectionExampleScenario.node[11].appl 	VehicleRemoved 	0
scalar IntersectionExampleScenario.node[11].appl 	ArrivedAtDest 	1
scalar IntersectionExampleScenario.node[11].appl 	IntersectionEnterTime 	50.75
scalar IntersectionExampleScenario.node[11].appl 	IntersectionExitTime 	118.00909474082
scalar IntersectionExampleScenario.node[11].appl 	NumberOfCollisions 	0
scalar IntersectionExampleScenario.node[11].nic.phy80211p 	busyTime 	0
scalar IntersectionExampleScenario.node[11].nic.mac1609_4 	ReceivedUnicastPackets 	0
scalar IntersectionExampleScenario.node[11].nic.mac1609_4 	ReceivedBroadcasts 	0
scalar IntersectionExampleScenario.node[11].nic.mac1609_4 	SentPackets 	0
scalar IntersectionExampleScenario.node[11].nic.mac1609_4 	SNIRLostPackets 	0
scalar IntersectionExampleScenario.node[11].nic.mac1609_4 	RXTXLostPackets 	0
scalar IntersectionExampleScenario.node[11].nic.mac1609_4 	TotalLostPackets 	0
scalar IntersectionExampleScenario.node[11].nic.mac1609_4 	DroppedPacketsInMac 	0
scalar IntersectionExampleScenario.node[11].nic.mac1609_4 	TooLittleTime 	0
scalar IntersectionExampleScenario.node[11].nic.mac1609_4 	TimesIntoBackoff 	0
scalar IntersectionExampleScenario.node[11].nic.mac1609_4 	SlotsBackoff 	0
scalar IntersectionExampleScenario.node[11].nic.mac1609_4 	NumInternalContention 	0
scalar IntersectionExampleScenario.node[11].nic.mac1609_4 	totalBusyTime 	0
scalar IntersectionExampleScenario.node[11].veinsmobility 	startTime 	50.75
scalar IntersectionExampleScenario.node[11].veinsmobility 	totalTime 	84
scalar IntersectionExampleScenario.node[11].veinsmobility 	stopTime 	135
scalar IntersectionExampleScenario.node[11].veinsmobility 	minSpeed 	0
scalar IntersectionExampleScenario.node[11].veinsmobility 	maxSpeed 	15.64999961853
scalar IntersectionExampleScenario.node[11].veinsmobility 	totalDistance 	545.38309556286
scalar IntersectionExampleScenario.node[11].veinsmobility 	totalCO2Emission 	173.57482656076
scalar IntersectionExampleScenario.node[13].appl 	VehicleRemoved 	0
scalar IntersectionExampleScenario.node[13].appl 	ArrivedAtDest 	1
scalar IntersectionExampleScenario.node[13].appl 	IntersectionEnterTime 	52.25
scalar IntersectionExampleScenario.node[13].appl 	IntersectionExitTime 	120.30111499902
scalar IntersectionExampleScenario.node[13].appl 	NumberOfCollisions 	0
scalar IntersectionExampleScenario.node[13].nic.phy80211p 	busyTime 	0
scalar IntersectionExampleScenario.node[13].nic.mac1609_4 	ReceivedUnicastPackets 	0
scalar IntersectionExampleScenario.node[13].nic.mac1609_4 	ReceivedBroadcasts 	0
scalar IntersectionExampleScenario.node[13].nic.mac1609_4 	SentPackets 	0
scalar IntersectionExampleScenario.node[13].nic.mac1609_4 	SNIRLostPackets 	0
scalar IntersectionExampleScenario.node[13].nic.mac1609_4 	RXTXLostPackets 	0
scalar IntersectionExampleScenario.node[13].nic.mac1609_4 	TotalLostPackets 	0
scalar IntersectionExampleScenario.node[13].nic.mac1609_4 	DroppedPacketsInMac 	0
scalar IntersectionExampleScenario.node[13].nic.mac1609_4 	TooLittleTime 	0
scalar IntersectionExampleScenario.node[13].nic.mac1609_4 	TimesIntoBackoff 	0
scalar IntersectionExampleScenario.node[13].nic.mac1609_4 	SlotsBackoff 	0
scalar IntersectionExampleScenario.node[13].nic.mac1609_4 	NumInternalContention 	0
scalar IntersectionExampleScenario.node[13].nic.mac1609_4 	totalBusyTime 	0
scalar IntersectionExampleScenario.node[13].veinsmobility 	startTime 	52.25
scalar IntersectionExampleScenario.node[13].veinsmobility 	totalTime 	85
scalar IntersectionExampleScenario.node[13].veinsmobility 	stopTime 	137.5
scalar IntersectionExampleScenario.node[13].veinsmobility 	minSpeed 	0
scalar IntersectionExampleScenario.node[13].veinsmobility 	maxSpeed 	15.222585678101
scalar IntersectionExampleScenario.node[13].veinsmobility 	totalDistance 	566.16906422627
scalar IntersectionExampleScenario.node[13].veinsmobility 	totalCO2Emission 	176.17263270965
scalar IntersectionExampleScenario.node[16].appl 	VehicleRemoved 	0
scalar IntersectionExampleScenario.node[16].appl 	ArrivedAtDest 	1
scalar IntersectionExampleScenario.node[16].appl 	IntersectionEnterTime 	60.5
scalar IntersectionExampleScenario.node[16].appl 	IntersectionExitTime 	122.58275956902
scalar IntersectionExampleScenario.node[16].appl 	NumberOfCollisions 	0
scalar IntersectionExampleScenario.node[16].nic.phy80211p 	busyTime 	0
scalar IntersectionExampleScenario.node[16].nic.mac1609_4 	ReceivedUnicastPackets 	0
scalar IntersectionExampleScenario.node[16].nic.mac1609_4 	ReceivedBroadcasts 	0
scalar IntersectionExampleScenario.node[16].nic.mac1609_4 	SentPackets 	0
scalar IntersectionExampleScenario.node[16].nic.mac1609_4 	SNIRLostPackets 	0
scalar IntersectionExampleScenario.node[16].nic.mac1609_4 	RXTXLostPackets 	0
scalar IntersectionExampleScenario.node[16].nic.mac1609_4 	TotalLostPackets 	0
scalar IntersectionExampleScenario.node[16].nic.mac1609_4 	DroppedPacketsInMac 	0
scalar IntersectionExampleScenario.node[16].nic.mac1609_4 	TooLittleTime 	0
scalar IntersectionExampleScenario.node[16].nic.mac1609_4 	TimesIntoBackoff 	0
scalar IntersectionExampleScenario.node[16].nic.mac1609_4 	SlotsBackoff 	0
scalar IntersectionExampleScenario.node[16].nic.mac1609_4 	NumInternalContention 	0
scalar IntersectionExampleScenario.node[16].nic.mac1609_4 	totalBusyTime 	0
scalar IntersectionExampleScenario.node[16].veinsmobility 	startTime 	60.5
scalar IntersectionExampleScenario.node[16].veinsmobility 	totalTime 	78.25
scalar IntersectionExampleScenario.node[16].veinsmobility 	stopTime 	139
scalar IntersectionExampleScenario.node[16].veinsmobility 	minSpeed 	0
scalar IntersectionExampleScenario.node[16].veinsmobility 	maxSpeed 	15.392042160034
scalar IntersectionExampleScenario.node[16].veinsmobility 	totalDistance 	550.33011078715
scalar IntersectionExampleScenario.node[16].veinsmobility 	totalCO2Emission 	166.18128341814
scalar IntersectionExampleScenario.node[18].appl 	VehicleRemoved 	0
scalar IntersectionExampleScenario.node[18].appl 	ArrivedAtDest 	1
scalar IntersectionExampleScenario.node[18].appl 	IntersectionEnterTime 	61.5
scalar IntersectionExampleScenario.node[18].appl 	IntersectionExitTime 	124.58258550102
scalar IntersectionExampleScenario.node[18].appl 	NumberOfCollisions 	0
scalar IntersectionExampleScenario.node[18].nic.phy80211p 	busyTime 	0
scalar IntersectionExampleScenario.node[18].nic.mac1609_4 	ReceivedUnicastPackets 	0
scalar IntersectionExampleScenario.node[18].nic.mac1609_4 	ReceivedBroadcasts 	0
scalar IntersectionExampleScenario.node[18].nic.mac1609_4 	SentPackets 	0
scalar IntersectionExampleScenario.node[18].nic.mac1609_4 	SNIRLostPackets 	0
scalar IntersectionExampleScenario.node[18].nic.mac1609_4 	RXTXLostPackets 	0
scalar IntersectionExampleScenario.node[18].nic.mac1609_4 	TotalLostPackets 	0
scalar IntersectionExampleScenario.node[18].nic.mac1609_4 	DroppedPacketsInMac 	0
scalar IntersectionExampleScenario.node[18].nic.mac1609_4 	TooLittleTime 	0
scalar IntersectionExampleScenario.node[18].nic.mac1609_4 	TimesIntoBackoff 	0
scalar IntersectionExampleScenario.node[18].nic.mac1609_4 	SlotsBackoff 	0
scalar IntersectionExampleScenario.node[18].nic.mac1609_4 	NumInternalContention 	0
scalar IntersectionExampleScenario.node[18].nic.mac1609_4 	totalBusyTime 	0
scalar IntersectionExampleScenario.node[18].veinsmobility 	startTime 	61.5
scalar IntersectionExampleScenario.node[18].veinsmobility 	totalTime 	78.75
scalar IntersectionExampleScenario.node[18].veinsmobility 	stopTime 	140.5
scalar IntersectionExampleScenario.node[18].veinsmobility 	minSpeed 	0
scalar IntersectionExampleScenario.node[18].veinsmobility 	maxSpeed 	16.125
scalar IntersectionExampleScenario.node[18].veinsmobility 	totalDistance 	575.56334686279
scalar IntersectionExampleScenario.node[18].veinsmobility 	totalCO2Emission 	175.45547318674
scalar IntersectionExampleScenario.node[19].appl 	VehicleRemoved 	0
scalar IntersectionExampleScenario.node[19].appl 	ArrivedAtDest 	1
scalar IntersectionExampleScenario.node[19].appl 	IntersectionEnterTime 	62.75
scalar IntersectionExampleScenario.node[19].appl 	IntersectionExitTime 	127.03884099305
scalar IntersectionExampleScenario.node[19].appl 	NumberOfCollisions 	0
scalar IntersectionExampleScenario.node[19].nic.phy80211p 	busyTime 	0
scalar IntersectionExampleScenario.node[19].nic.mac1609_4 	ReceivedUnicastPackets 	0
scalar IntersectionExampleScenario.node[19].nic.mac1609_4 	ReceivedBroadcasts 	0
scalar IntersectionExampleScenario.node[19].nic.mac1609_4 	SentPackets 	0
scalar IntersectionExampleScenario.node[19].nic.mac1609_4 	SNIRLostPackets 	0
scalar IntersectionExampleScenario.node[19].nic.mac1609_4 	RXTXLostPackets 	0
scalar IntersectionExampleScenario.node[19].nic.mac1609_4 	TotalLostPackets 	0
scalar IntersectionExampleScenario.node[19].nic.mac1609_4 	DroppedPacketsInMac 	0
scalar IntersectionExampleScenario.node[19].nic.mac1609_4 	TooLittleTime 	0
scalar IntersectionExampleScenario.node[19].nic.mac1609_4 	TimesIntoBackoff 	0
scalar IntersectionExampleScenario.node[19].nic.mac1609_4 	SlotsBackoff 	0
scalar IntersectionExampleScenario.node[19].nic.mac1609_4 	NumInternalContention 	0
scalar IntersectionExampleScenario.node[19].nic.mac1609_4 	totalBusyTime 	0
scalar IntersectionExampleScenario.node[19].veinsmobility 	startTime 	62.75
scalar IntersectionExampleScenario.node[19].veinsmobility 	totalTime 	80.5
scalar IntersectionExampleScenario.node[19].veinsmobility 	stopTime 	143.5
scalar IntersectionExampleScenario.node[19].veinsmobility 	minSpeed 	0
scalar IntersectionExampleScenario.node[19].veinsmobility 	maxSpeed 	15.413623809814
scalar IntersectionExampleScenario.node[19].veinsmobility 	totalDistance 	583.86354910745
scalar IntersectionExampleScenario.node[19].veinsmobility 	totalCO2Emission 	181.63136451595
scalar IntersectionExampleScenario.node[21].appl 	VehicleRemoved 	0
scalar IntersectionExampleScenario.node[21].appl 	ArrivedAtDest 	1
scalar IntersectionExampleScenario.node[21].appl 	IntersectionEnterTime 	66
scalar IntersectionExampleScenario.node[21].appl 	IntersectionExitTime 	128.76180494903
scalar IntersectionExampleScenario.node[21].appl 	NumberOfCollisions 	0
scalar IntersectionExampleScenario.node[21].nic.phy80211p 	busyTime 	0
scalar IntersectionExampleScenario.node[21].nic.mac1609_4 	ReceivedUnicastPackets 	0
scalar IntersectionExampleScenario.node[21].nic.mac1609_4 	ReceivedBroadcasts 	0
scalar IntersectionExampleScenario.node[21].nic.mac1609_4 	SentPackets 	0
scalar IntersectionExampleScenario.node[21].nic.mac1609_4 	SNIRLostPackets 	0
scalar IntersectionExampleScenario.node[21].nic.mac1609_4 	RXTXLostPackets 	0
scalar IntersectionExampleScenario.node[21].nic.mac1609_4 	TotalLostPackets 	0
scalar IntersectionExampleScenario.node[21].nic.mac1609_4 	DroppedPacketsInMac 	0
scalar IntersectionExampleScenario.node[21].nic.mac1609_4 	TooLittleTime 	0
scalar IntersectionExampleScenario.node[21].nic.mac1609_4 	TimesIntoBackoff 	0
scalar IntersectionExampleScenario.node[21].nic.mac1609_4 	SlotsBackoff 	0
scalar IntersectionExampleScenario.node[21].nic.mac1609_4 	NumInternalContention 	0
scalar IntersectionExampleScenario.node[21].nic.mac1609_4 	totalBusyTime 	0
scalar IntersectionExampleScenario.node[21].veinsmobility 	startTime 	66
scalar IntersectionExampleScenario.node[21].veinsmobility 	totalTime 	78
scalar IntersectionExampleScenario.node[21].veinsmobility 	stopTime 	144.25
scalar IntersectionExampleScenario.node[21].veinsmobility 	minSpeed 	0
scalar IntersectionExampleScenario.node[21].veinsmobility 	maxSpeed 	16.125
scalar IntersectionExampleScenario.node[21].veinsmobility 	totalDistance 	578.95151519775
scalar IntersectionExampleScenario.node[21].veinsmobility 	totalCO2Emission 	179.84357190638
scalar IntersectionExampleScenario.node[22].appl 	VehicleRemoved 	0
scalar IntersectionExampleScenario.node[22].appl 	ArrivedAtDest 	1
scalar IntersectionExampleScenario.node[22].appl 	IntersectionEnterTime 	67
scalar IntersectionExampleScenario.node[22].appl 	IntersectionExitTime 	131.52182826027
scalar IntersectionExampleScenario.node[22].appl 	NumberOfCollisions 	0
scalar IntersectionExampleScenario.node[22].nic.phy80211p 	busyTime 	0
scalar IntersectionExampleScenario.node[22].nic.mac1609_4 	ReceivedUnicastPackets 	0
scalar IntersectionExampleScenario.node[22].nic.mac1609_4 	ReceivedBroadcasts 	0
scalar IntersectionExampleScenario.node[22].nic.mac1609_4 	SentPackets 	0
scalar IntersectionExampleScenario.node[22].nic.mac1609_4 	SNIRLostPackets 	0
scalar IntersectionExampleScenario.node[22].nic.mac1609_4 	RXTXLostPackets 	0
scalar IntersectionExampleScenario.node[22].nic.mac1609_4 	TotalLostPackets 	0
scalar IntersectionExampleScenario.node[22].nic.mac1609_4 	DroppedPacketsInMac 	0
scalar IntersectionExampleScenario.node[22].nic.mac1609_4 	TooLittleTime 	0
scalar IntersectionExampleScenario.node[22].nic.mac1609_4 	TimesIntoBackoff 	0
scalar IntersectionExampleScenario.node[22].nic.mac1609_4 	SlotsBackoff 	0
scalar IntersectionExampleScenario.node[22].nic.mac1609_4 	NumInternalContention 	0
scalar IntersectionExampleScenario.node[22].nic.mac1609_4 	totalBusyTime 	0
scalar IntersectionExampleScenario.node[22].veinsmobility 	startTime 	67
scalar IntersectionExampleScenario.node[22].veinsmobility 	totalTime 	81.25
scalar IntersectionExampleScenario.node[22].veinsmobility 	stopTime 	148.5
scalar IntersectionExampleScenario.node[22].veinsmobility 	minSpeed 	0
scalar IntersectionExampleScenario.node[22].veinsmobility 	maxSpeed 	15.64999961853
scalar IntersectionExampleScenario.node[22].veinsmobility 	totalDistance 	544.42738248259
scalar IntersectionExampleScenario.node[22].veinsmobility 	totalCO2Emission 	172.47874088446
scalar IntersectionExampleScenario.node[25].appl 	VehicleRemoved 	0
scalar IntersectionExampleScenario.node[25].appl 	ArrivedAtDest 	1
scalar IntersectionExampleScenario.node[25].appl 	IntersectionEnterTime 	79.75
scalar IntersectionExampleScenario.node[25].appl 	IntersectionExitTime 	133.28054743959
scalar IntersectionExampleScenario.node[25].appl 	NumberOfCollisions 	0
scalar IntersectionExampleScenario.node[25].nic.phy80211p 	busyTime 	0
scalar IntersectionExampleScenario.node[25].nic.mac1609_4 	ReceivedUnicastPackets 	0
scalar IntersectionExampleScenario.node[25].nic.mac1609_4 	ReceivedBroadcasts 	0
scalar IntersectionExampleScenario.node[25].nic.mac1609_4 	SentPackets 	0
scalar IntersectionExampleScenario.node[25].nic.mac1609_4 	SNIRLostPackets 	0
scalar IntersectionExampleScenario.node[25].nic.mac1609_4 	RXTXLostPackets 	0
scalar IntersectionExampleScenario.node[25].nic.mac1609_4 	TotalLostPackets 	0
scalar IntersectionExampleScenario.node[25].nic.mac1609_4 	DroppedPacketsInMac 	0
scalar IntersectionExampleScenario.node[25].nic.mac1609_4 	TooLittleTime 	0
scalar IntersectionExampleScenario.node[25].nic.mac1609_4 	TimesIntoBackoff 	0
scalar IntersectionExampleScenario.node[25].nic.mac1609_4 	SlotsBackoff 	0
scalar IntersectionExampleScenario.node[25].nic.mac1609_4 	NumInternalContention 	0
scalar IntersectionExampleScenario.node[25].nic.mac1609_4 	totalBusyTime 	0
scalar IntersectionExampleScenario.node[25].veinsmobility 	startTime 	79.75
scalar IntersectionExampleScenario.node[25].veinsmobility 	totalTime 	69.75
scalar IntersectionExampleScenario.node[25].veinsmobility 	stopTime 	149.75
scalar IntersectionExampleScenario.node[25].veinsmobility 	minSpeed 	0
scalar IntersectionExampleScenario.node[25].veinsmobility 	maxSpeed 	15.64999961853
scalar IntersectionExampleScenario.node[25].veinsmobility 	totalDistance 	550.55320013059
scalar IntersectionExampleScenario.node[25].veinsmobility 	totalCO2Emission 	160.99071865521
scalar IntersectionExampleScenario.node[31].appl 	VehicleRemoved 	0
scalar IntersectionExampleScenario.node[31].appl 	ArrivedAtDest 	1
scalar IntersectionExampleScenario.node[31].appl 	IntersectionEnterTime 	93.25
scalar IntersectionExampleScenario.node[31].appl 	IntersectionExitTime 	136.04109240894
scalar IntersectionExampleScenario.node[31].appl 	NumberOfCollisions 	0
scalar IntersectionExampleScenario.node[31].nic.phy80211p 	busyTime 	0
scalar IntersectionExampleScenario.node[31].nic.mac1609_4 	ReceivedUnicastPackets 	0
scalar IntersectionExampleScenario.node[31].nic.mac1609_4 	ReceivedBroadcasts 	0
scalar IntersectionExampleScenario.node[31].nic.mac1609_4 	SentPackets 	0
scalar IntersectionExampleScenario.node[31].nic.mac1609_4 	SNIRLostPackets 	0
scalar IntersectionExampleScenario.node[31].nic.mac1609_4 	RXTXLostPackets 	0
scalar IntersectionExampleScenario.node[31].nic.mac1609_4 	TotalLostPackets 	0
scalar IntersectionExampleScenario.node[31].nic.mac1609_4 	DroppedPacketsInMac 	0
scalar IntersectionExampleScenario.node[31].nic.mac1609_4 	TooLittleTime 	0
scalar IntersectionExampleScenario.node[31].nic.mac1609_4 	TimesIntoBackoff 	0
scalar IntersectionExampleScenario.node[31].nic.mac1609_4 	SlotsBackoff 	0
scalar IntersectionExampleScenario.node[31].nic.mac1609_4 	NumInternalContention 	0
scalar IntersectionExampleScenario.node[31].nic.mac1609_4 	totalBusyTime 	0
scalar IntersectionExampleScenario.node[31].veinsmobility 	startTime 	93.25
scalar IntersectionExampleScenario.node[31].veinsmobility 	totalTime 	58.75
scalar IntersectionExampleScenario.node[31].veinsmobility 	stopTime 	152.25
scalar IntersectionExampleScenario.node[31].veinsmobility 	minSpeed 	0
scalar IntersectionExampleScenario.node[31].veinsmobility 	maxSpeed 	15.64999961853
scalar IntersectionExampleScenario.node[31].veinsmobility 	totalDistance 	552.29831695557
scalar IntersectionExampleScenario.node[31].veinsmobility 	totalCO2Emission 	147.58902692792
scalar IntersectionExampleScenario.node[34].appl 	VehicleRemoved 	0
scalar IntersectionExampleScenario.node[34].appl 	ArrivedAtDest 	1
scalar IntersectionExampleScenario.node[34].appl 	IntersectionEnterTime 	101.5
scalar IntersectionExampleScenario.node[34].appl 	IntersectionExitTime 	138.615288573
scalar IntersectionExampleScenario.node[34].appl 	NumberOfCollisions 	0
scalar IntersectionExampleScenario.node[34].nic.phy80211p 	busyTime 	0
scalar IntersectionExampleScenario.node[34].nic.mac1609_4 	ReceivedUnicastPackets 	0
scalar IntersectionExampleScenario.node[34].nic.mac1609_4 	ReceivedBroadcasts 	0
scalar IntersectionExampleScenario.node[34].nic.mac1609_4 	SentPackets 	0
scalar IntersectionExampleScenario.node[34].nic.mac1609_4 	SNIRLostPackets 	0
scalar IntersectionExampleScenario.node[34].nic.mac1609_4 	RXTXLostPackets 	0
scalar IntersectionExampleScenario.node[34].nic.mac1609_4 	TotalLostPackets 	0
scalar IntersectionExampleScenario.node[34].nic.mac1609_4 	DroppedPacketsInMac 	0
scalar IntersectionExampleScenario.node[34].nic.mac1609_4 	TooLittleTime 	0
scalar IntersectionExampleScenario.node[34].nic.mac1609_4 	TimesIntoBackoff 	0
scalar IntersectionExampleScenario.node[34].nic.mac1609_4 	SlotsBackoff 	0
scalar IntersectionExampleScenario.node[34].nic.mac1609_4 	NumInternalContention 	0
scalar IntersectionExampleScenario.node[34].nic.mac1609_4 	totalBusyTime 	0
scalar IntersectionExampleScenario.node[34].veinsmobility 	startTime 	101.5
scalar IntersectionExampleScenario.node[34].veinsmobility 	totalTime 	53.5
scalar IntersectionExampleScenario.node[34].veinsmobility 	stopTime 	155.25
scalar IntersectionExampleScenario.node[34].veinsmobility 	minSpeed 	0
scalar IntersectionExampleScenario.node[34].veinsmobility 	maxSpeed 	15.375
scalar IntersectionExampleScenario.node[34].veinsmobility 	totalDistance 	549.35022680168
scalar IntersectionExampleScenario.node[34].veinsmobility 	totalCO2Emission 	140.59175847013
scalar IntersectionExampleScenario.node[35].appl 	VehicleRemoved 	0
scalar IntersectionExampleScenario.node[35].appl 	ArrivedAtDest 	1
scalar IntersectionExampleScenario.node[35].appl 	IntersectionEnterTime 	105.75
scalar IntersectionExampleScenario.node[35].appl 	IntersectionExitTime 	141.33282435962
scalar IntersectionExampleScenario.node[35].appl 	NumberOfCollisions 	0
scalar IntersectionExampleScenario.node[35].nic.phy80211p 	busyTime 	0
scalar IntersectionExampleScenario.node[35].nic.mac1609_4 	ReceivedUnicastPackets 	0
scalar IntersectionExampleScenario.node[35].nic.mac1609_4 	ReceivedBroadcasts 	0
scalar IntersectionExampleScenario.node[35].nic.mac1609_4 	SentPackets 	0
scalar IntersectionExampleScenario.node[35].nic.mac1609_4 	SNIRLostPackets 	0
scalar IntersectionExampleScenario.node[35].nic.mac1609_4 	RXTXLostPackets 	0
scalar IntersectionExampleScenario.node[35].nic.mac1609_4 	TotalLostPackets 	0
scalar IntersectionExampleScenario.node[35].nic.mac1609_4 	DroppedPacketsInMac 	0
scalar IntersectionExampleScenario.node[35].nic.mac1609_4 	TooLittleTime 	0
scalar IntersectionExampleScenario.node[35].nic.mac1609_4 	TimesIntoBackoff 	0
scalar IntersectionExampleScenario.node[35].nic.mac1609_4 	SlotsBackoff 	0
scalar IntersectionExampleScenario.node[35].nic.mac1609_4 	NumInternalContention 	0
scalar IntersectionExampleScenario.node[35].nic.mac1609_4 	totalBusyTime 	0
scalar IntersectionExampleScenario.node[35].veinsmobility 	startTime 	105.75
scalar IntersectionExampleScenario.node[35].veinsmobility 	totalTime 	52.5
scalar IntersectionExampleScenario.node[35].veinsmobility 	stopTime 	158.5
scalar IntersectionExampleScenario.node[35].veinsmobility 	minSpeed 	0
scalar IntersectionExampleScenario.node[35].veinsmobility 	maxSpeed 	15.25
scalar IntersectionExampleScenario.node[35].veinsmobility 	totalDistance 	548.31277657074
scalar IntersectionExampleScenario.node[35].veinsmobility 	totalCO2Emission 	142.95706994435
scalar IntersectionExampleScenario.node[27].appl 	VehicleRemoved 	0
scalar IntersectionExampleScenario.node[27].appl 	ArrivedAtDest 	1
scalar IntersectionExampleScenario.node[27].appl 	IntersectionEnterTime 	81.25
scalar IntersectionExampleScenario.node[27].appl 	IntersectionExitTime 	147.54000089102
scalar IntersectionExampleScenario.node[27].appl 	NumberOfCollisions 	0
scalar IntersectionExampleScenario.node[27].nic.phy80211p 	busyTime 	0
scalar IntersectionExampleScenario.node[27].nic.mac1609_4 	ReceivedUnicastPackets 	0
scalar IntersectionExampleScenario.node[27].nic.mac1609_4 	ReceivedBroadcasts 	0
scalar IntersectionExampleScenario.node[27].nic.mac1609_4 	SentPackets 	0
scalar IntersectionExampleScenario.node[27].nic.mac1609_4 	SNIRLostPackets 	0
scalar IntersectionExampleScenario.node[27].nic.mac1609_4 	RXTXLostPackets 	0
scalar IntersectionExampleScenario.node[27].nic.mac1609_4 	TotalLostPackets 	0
scalar IntersectionExampleScenario.node[27].nic.mac1609_4 	DroppedPacketsInMac 	0
scalar IntersectionExampleScenario.node[27].nic.mac1609_4 	TooLittleTime 	0
scalar IntersectionExampleScenario.node[27].nic.mac1609_4 	TimesIntoBackoff 	0
scalar IntersectionExampleScenario.node[27].nic.mac1609_4 	SlotsBackoff 	0
scalar IntersectionExampleScenario.node[27].nic.mac1609_4 	NumInternalContention 	0
scalar IntersectionExampleScenario.node[27].nic.mac1609_4 	totalBusyTime 	0
scalar IntersectionExampleScenario.node[27].veinsmobility 	startTime 	81.25
scalar IntersectionExampleScenario.node[27].veinsmobility 	totalTime 	83.5
scalar IntersectionExampleScenario.node[27].veinsmobility 	stopTime 	165
scalar IntersectionExampleScenario.node[27].veinsmobility 	minSpeed 	0
scalar IntersectionExampleScenario.node[27].veinsmobility 	maxSpeed 	15.25
scalar IntersectionExampleScenario.node[27].veinsmobility 	totalDistance 	544.38074399382
scalar IntersectionExampleScenario.node[27].veinsmobility 	totalCO2Emission 	172.53380150286
scalar IntersectionExampleScenario.node[28].appl 	VehicleRemoved 	0
scalar IntersectionExampleScenario.node[28].appl 	ArrivedAtDest 	1
scalar IntersectionExampleScenario.node[28].appl 	IntersectionEnterTime 	87
scalar IntersectionExampleScenario.node[28].appl 	IntersectionExitTime 	149.32524515098
scalar IntersectionExampleScenario.node[28].appl 	NumberOfCollisions 	0
scalar IntersectionExampleScenario.node[28].nic.phy80211p 	busyTime 	0
scalar IntersectionExampleScenario.node[28].nic.mac1609_4 	ReceivedUnicastPackets 	0
scalar IntersectionExampleScenario.node[28].nic.mac1609_4 	ReceivedBroadcasts 	0
scalar IntersectionExampleScenario.node[28].nic.mac1609_4 	SentPackets 	0
scalar IntersectionExampleScenario.node[28].nic.mac1609_4 	SNIRLostPackets 	0
scalar IntersectionExampleScenario.node[28].nic.mac1609_4 	RXTXLostPackets 	0
scalar IntersectionExampleScenario.node[28].nic.mac1609_4 	TotalLostPackets 	0
scalar IntersectionExampleScenario.node[28].nic.mac1609_4 	DroppedPacketsInMac 	0
scalar IntersectionExampleScenario.node[28].nic.mac1609_4 	TooLittleTime 	0
scalar IntersectionExampleScenario.node[28].nic.mac1609_4 	TimesIntoBackoff 	0
scalar IntersectionExampleScenario.node[28].nic.mac1609_4 	SlotsBackoff 	0
scalar IntersectionExampleScenario.node[28].nic.mac1609_4 	NumInternalContention 	0
scalar IntersectionExampleScenario.node[28].nic.mac1609_4 	totalBusyTime 	0
scalar IntersectionExampleScenario.node[28].veinsmobility 	startTime 	87
scalar IntersectionExampleScenario.node[28].veinsmobility 	totalTime 	78.75
scalar IntersectionExampleScenario.node[28].veinsmobility 	stopTime 	166
scalar IntersectionExampleScenario.node[28].veinsmobility 	minSpeed 	0
scalar IntersectionExampleScenario.node[28].veinsmobility 	maxSpeed 	15.375
scalar IntersectionExampleScenario.node[28].veinsmobility 	totalDistance 	549.45563335276
scalar IntersectionExampleScenario.node[28].veinsmobility 	totalCO2Emission 	167.04522448142
scalar IntersectionExampleScenario.node[30].appl 	VehicleRemoved 	0
scalar IntersectionExampleScenario.node[30].appl 	ArrivedAtDest 	1
scalar IntersectionExampleScenario.node[30].appl 	IntersectionEnterTime 	90.5
scalar IntersectionExampleScenario.node[30].appl 	IntersectionExitTime 	151.83876013034
scalar IntersectionExampleScenario.node[30].appl 	NumberOfCollisions 	0
scalar IntersectionExampleScenario.node[30].nic.phy80211p 	busyTime 	0
scalar IntersectionExampleScenario.node[30].nic.mac1609_4 	ReceivedUnicastPackets 	0
scalar IntersectionExampleScenario.node[30].nic.mac1609_4 	ReceivedBroadcasts 	0
scalar IntersectionExampleScenario.node[30].nic.mac1609_4 	SentPackets 	0
scalar IntersectionExampleScenario.node[30].nic.mac1609_4 	SNIRLostPackets 	0
scalar IntersectionExampleScenario.node[30].nic.mac1609_4 	RXTXLostPackets 	0
scalar IntersectionExampleScenario.node[30].nic.mac1609_4 	TotalLostPackets 	0
scalar IntersectionExampleScenario.node[30].nic.mac1609_4 	DroppedPacketsInMac 	0
scalar IntersectionExampleScenario.node[30].nic.mac1609_4 	TooLittleTime 	0
scalar IntersectionExampleScenario.node[30].nic.mac1609_4 	TimesIntoBackoff 	0
scalar IntersectionExampleScenario.node[30].nic.mac1609_4 	SlotsBackoff 	0
scalar IntersectionExampleScenario.node[30].nic.mac1609_4 	NumInternalContention 	0
scalar IntersectionExampleScenario.node[30].nic.mac1609_4 	totalBusyTime 	0
scalar IntersectionExampleScenario.node[30].veinsmobility 	startTime 	90.5
scalar IntersectionExampleScenario.node[30].veinsmobility 	totalTime 	78.25
scalar IntersectionExampleScenario.node[30].veinsmobility 	stopTime 	169
scalar IntersectionExampleScenario.node[30].veinsmobility 	minSpeed 	0
scalar IntersectionExampleScenario.node[30].veinsmobility 	maxSpeed 	15.02499961853
scalar IntersectionExampleScenario.node[30].veinsmobility 	totalDistance 	560.066029575
scalar IntersectionExampleScenario.node[30].veinsmobility 	totalCO2Emission 	165.07060420455
scalar IntersectionExampleScenario.node[32].appl 	VehicleRemoved 	0
scalar IntersectionExampleScenario.node[32].appl 	ArrivedAtDest 	1
scalar IntersectionExampleScenario.node[32].appl 	IntersectionEnterTime 	93.25
scalar IntersectionExampleScenario.node[32].appl 	IntersectionExitTime 	154.08693572215
scalar IntersectionExampleScenario.node[32].appl 	NumberOfCollisions 	0
scalar IntersectionExampleScenario.node[32].nic.phy80211p 	busyTime 	0
scalar IntersectionExampleScenario.node[32].nic.mac1609_4 	ReceivedUnicastPackets 	0
scalar IntersectionExampleScenario.node[32].nic.mac1609_4 	ReceivedBroadcasts 	0
scalar IntersectionExampleScenario.node[32].nic.mac1609_4 	SentPackets 	0
scalar IntersectionExampleScenario.node[32].nic.mac1609_4 	SNIRLostPackets 	0
scalar IntersectionExampleScenario.node[32].nic.mac1609_4 	RXTXLostPackets 	0
scalar IntersectionExampleScenario.node[32].nic.mac1609_4 	TotalLostPackets 	0
scalar IntersectionExampleScenario.node[32].nic.mac1609_4 	DroppedPacketsInMac 	0
scalar IntersectionExampleScenario.node[32].nic.mac1609_4 	TooLittleTime 	0
scalar IntersectionExampleScenario.node[32].nic.mac1609_4 	TimesIntoBackoff 	0
scalar IntersectionExampleScenario.node[32].nic.mac1609_4 	SlotsBackoff 	0
scalar IntersectionExampleScenario.node[32].nic.mac1609_4 	NumInternalContention 	0
scalar IntersectionExampleScenario.node[32].nic.mac1609_4 	totalBusyTime 	0
scalar IntersectionExampleScenario.node[32].veinsmobility 	startTime 	93.25
scalar IntersectionExampleScenario.node[32].veinsmobility 	totalTime 	77.5
scalar IntersectionExampleScenario.node[32].veinsmobility 	stopTime 	171
scalar IntersectionExampleScenario.node[32].veinsmobility 	minSpeed 	0
scalar IntersectionExampleScenario.node[32].veinsmobility 	maxSpeed 	15.372184753418
scalar IntersectionExampleScenario.node[32].veinsmobility 	totalDistance 	565.1006451559
scalar IntersectionExampleScenario.node[32].veinsmobility 	totalCO2Emission 	173.9233591191
scalar IntersectionExampleScenario.node[33].appl 	VehicleRemoved 	0
scalar IntersectionExampleScenario.node[33].appl 	ArrivedAtDest 	1
scalar IntersectionExampleScenario.node[33].appl 	IntersectionEnterTime 	99.75
scalar IntersectionExampleScenario.node[33].appl 	IntersectionExitTime 	156.35548512603
scalar IntersectionExampleScenario.node[33].appl 	NumberOfCollisions 	0
scalar IntersectionExampleScenario.node[33].nic.phy80211p 	busyTime 	0
scalar IntersectionExampleScenario.node[33].nic.mac1609_4 	ReceivedUnicastPackets 	0
scalar IntersectionExampleScenario.node[33].nic.mac1609_4 	ReceivedBroadcasts 	0
scalar IntersectionExampleScenario.node[33].nic.mac1609_4 	SentPackets 	0
scalar IntersectionExampleScenario.node[33].nic.mac1609_4 	SNIRLostPackets 	0
scalar IntersectionExampleScenario.node[33].nic.mac1609_4 	RXTXLostPackets 	0
scalar IntersectionExampleScenario.node[33].nic.mac1609_4 	TotalLostPackets 	0
scalar IntersectionExampleScenario.node[33].nic.mac1609_4 	DroppedPacketsInMac 	0
scalar IntersectionExampleScenario.node[33].nic.mac1609_4 	TooLittleTime 	0
scalar IntersectionExampleScenario.node[33].nic.mac1609_4 	TimesIntoBackoff 	0
scalar IntersectionExampleScenario.node[33].nic.mac1609_4 	SlotsBackoff 	0
scalar IntersectionExampleScenario.node[33].nic.mac1609_4 	NumInternalContention 	0
scalar IntersectionExampleScenario.node[33].nic.mac1609_4 	totalBusyTime 	0
scalar IntersectionExampleScenario.node[33].veinsmobility 	startTime 	99.75
scalar IntersectionExampleScenario.node[33].veinsmobility 	totalTime 	72.5
scalar IntersectionExampleScenario.node[33].veinsmobility 	stopTime 	172.5
scalar IntersectionExampleScenario.node[33].veinsmobility 	minSpeed 	0
scalar IntersectionExampleScenario.node[33].veinsmobility 	maxSpeed 	15.66548538208
scalar IntersectionExampleScenario.node[33].veinsmobility 	totalDistance 	550.35459051046
scalar IntersectionExampleScenario.node[33].veinsmobility 	totalCO2Emission 	168.1706119103
scalar IntersectionExampleScenario.node[40].appl 	VehicleRemoved 	0
scalar IntersectionExampleScenario.node[40].appl 	ArrivedAtDest 	1
scalar IntersectionExampleScenario.node[40].appl 	IntersectionEnterTime 	129.75
scalar IntersectionExampleScenario.node[40].appl 	IntersectionExitTime 	158.10803024674
scalar IntersectionExampleScenario.node[40].appl 	NumberOfCollisions 	0
scalar IntersectionExampleScenario.node[40].nic.phy80211p 	busyTime 	0
scalar IntersectionExampleScenario.node[40].nic.mac1609_4 	ReceivedUnicastPackets 	0
scalar IntersectionExampleScenario.node[40].nic.mac1609_4 	ReceivedBroadcasts 	0
scalar IntersectionExampleScenario.node[40].nic.mac1609_4 	SentPackets 	0
scalar IntersectionExampleScenario.node[40].nic.mac1609_4 	SNIRLostPackets 	0
scalar IntersectionExampleScenario.node[40].nic.mac1609_4 	RXTXLostPackets 	0
scalar IntersectionExampleScenario.node[40].nic.mac1609_4 	TotalLostPackets 	0
scalar IntersectionExampleScenario.node[40].nic.mac1609_4 	DroppedPacketsInMac 	0
scalar IntersectionExampleScenario.node[40].nic.mac1609_4 	TooLittleTime 	0
scalar IntersectionExampleScenario.node[40].nic.mac1609_4 	TimesIntoBackoff 	0
scalar IntersectionExampleScenario.node[40].nic.mac1609_4 	SlotsBackoff 	0
scalar IntersectionExampleScenario.node[40].nic.mac1609_4 	NumInternalContention 	0
scalar IntersectionExampleScenario.node[40].nic.mac1609_4 	totalBusyTime 	0
scalar IntersectionExampleScenario.node[40].veinsmobility 	startTime 	129.75
scalar IntersectionExampleScenario.node[40].veinsmobility 	totalTime 	45.25
scalar IntersectionExampleScenario.node[40].veinsmobility 	stopTime 	175.25
scalar IntersectionExampleScenario.node[40].veinsmobility 	minSpeed 	5.6500000953674
scalar IntersectionExampleScenario.node[40].veinsmobility 	maxSpeed 	14.875
scalar IntersectionExampleScenario.node[40].veinsmobility 	totalDistance 	554.22839355469
scalar IntersectionExampleScenario.node[40].veinsmobility 	totalCO2Emission 	132.37565984348
scalar IntersectionExampleScenario.node[41].appl 	VehicleRemoved 	0
scalar IntersectionExampleScenario.node[41].appl 	ArrivedAtDest 	1
scalar IntersectionExampleScenario.node[41].appl 	IntersectionEnterTime 	130.25
scalar IntersectionExampleScenario.node[41].appl 	IntersectionExitTime 	160.01614014187
scalar IntersectionExampleScenario.node[41].appl 	NumberOfCollisions 	0
scalar IntersectionExampleScenario.node[41].nic.phy80211p 	busyTime 	0
scalar IntersectionExampleScenario.node[41].nic.mac1609_4 	ReceivedUnicastPackets 	0
scalar IntersectionExampleScenario.node[41].nic.mac1609_4 	ReceivedBroadcasts 	0
scalar IntersectionExampleScenario.node[41].nic.mac1609_4 	SentPackets 	0
scalar IntersectionExampleScenario.node[41].nic.mac1609_4 	SNIRLostPackets 	0
scalar IntersectionExampleScenario.node[41].nic.mac1609_4 	RXTXLostPackets 	0
scalar IntersectionExampleScenario.node[41].nic.mac1609_4 	TotalLostPackets 	0
scalar IntersectionExampleScenario.node[41].nic.mac1609_4 	DroppedPacketsInMac 	0
scalar IntersectionExampleScenario.node[41].nic.mac1609_4 	TooLittleTime 	0
scalar IntersectionExampleScenario.node[41].nic.mac1609_4 	TimesIntoBackoff 	0
scalar IntersectionExampleScenario.node[41].nic.mac1609_4 	SlotsBackoff 	0
scalar IntersectionExampleScenario.node[41].nic.mac1609_4 	NumInternalContention 	0
scalar IntersectionExampleScenario.node[41].nic.mac1609_4 	totalBusyTime 	0
scalar IntersectionExampleScenario.node[41].veinsmobility 	startTime 	130.25
scalar IntersectionExampleScenario.node[41].veinsmobility 	totalTime 	45.75
scalar IntersectionExampleScenario.node[41].veinsmobility 	stopTime 	176.25
scalar IntersectionExampleScenario.node[41].veinsmobility 	minSpeed 	5.6500000953674
scalar IntersectionExampleScenario.node[41].veinsmobility 	maxSpeed 	16.375375747681
scalar IntersectionExampleScenario.node[41].veinsmobility 	totalDistance 	570.45097727126
scalar IntersectionExampleScenario.node[41].veinsmobility 	totalCO2Emission 	152.13036642698
scalar IntersectionExampleScenario.node[43].appl 	VehicleRemoved 	0
scalar IntersectionExampleScenario.node[43].appl 	ArrivedAtDest 	1
scalar IntersectionExampleScenario.node[43].appl 	IntersectionEnterTime 	138.5
scalar IntersectionExampleScenario.node[43].appl 	IntersectionExitTime 	162.26458989581
scalar IntersectionExampleScenario.node[43].appl 	NumberOfCollisions 	0
scalar IntersectionExampleScenario.node[43].nic.phy80211p 	busyTime 	0
scalar IntersectionExampleScenario.node[43].nic.mac1609_4 	ReceivedUnicastPackets 	0
scalar IntersectionExampleScenario.node[43].nic.mac1609_4 	ReceivedBroadcasts 	0
scalar IntersectionExampleScenario.node[43].nic.mac1609_4 	SentPackets 	0
scalar IntersectionExampleScenario.node[43].nic.mac1609_4 	SNIRLostPackets 	0
scalar IntersectionExampleScenario.node[43].nic.mac1609_4 	RXTXLostPackets 	0
scalar IntersectionExampleScenario.node[43].nic.mac1609_4 	TotalLostPackets 	0
scalar IntersectionExampleScenario.node[43].nic.mac1609_4 	DroppedPacketsInMac 	0
scalar IntersectionExampleScenario.node[43].nic.mac1609_4 	TooLittleTime 	0
scalar IntersectionExampleScenario.node[43].nic.mac1609_4 	TimesIntoBackoff 	0
scalar IntersectionExampleScenario.node[43].nic.mac1609_4 	SlotsBackoff 	0
scalar IntersectionExampleScenario.node[43].nic.mac1609_4 	NumInternalContention 	0
scalar IntersectionExampleScenario.node[43].nic.mac1609_4 	totalBusyTime 	0
scalar IntersectionExampleScenario.node[43].veinsmobility 	startTime 	138.5
scalar IntersectionExampleScenario.node[43].veinsmobility 	totalTime 	39.75
scalar IntersectionExampleScenario.node[43].veinsmobility 	stopTime 	178.5
scalar IntersectionExampleScenario.node[43].veinsmobility 	minSpeed 	5.6500000953674
scalar IntersectionExampleScenario.node[43].veinsmobility 	maxSpeed 	15.64999961853
scalar IntersectionExampleScenario.node[43].veinsmobility 	totalDistance 	553.34399414062
scalar IntersectionExampleScenario.node[43].veinsmobility 	totalCO2Emission 	124.33863744931
scalar IntersectionExampleScenario.node[37].appl 	VehicleRemoved 	0
scalar IntersectionExampleScenario.node[37].appl 	ArrivedAtDest 	1
scalar IntersectionExampleScenario.node[37].appl 	IntersectionEnterTime 	117
scalar IntersectionExampleScenario.node[37].appl 	IntersectionExitTime 	165.03681467078
scalar IntersectionExampleScenario.node[37].appl 	NumberOfCollisions 	0
scalar IntersectionExampleScenario.node[37].nic.phy80211p 	busyTime 	0
scalar IntersectionExampleScenario.node[37].nic.mac1609_4 	ReceivedUnicastPackets 	0
scalar IntersectionExampleScenario.node[37].nic.mac1609_4 	ReceivedBroadcasts 	0
scalar IntersectionExampleScenario.node[37].nic.mac1609_4 	SentPackets 	0
scalar IntersectionExampleScenario.node[37].nic.mac1609_4 	SNIRLostPackets 	0
scalar IntersectionExampleScenario.node[37].nic.mac1609_4 	RXTXLostPackets 	0
scalar IntersectionExampleScenario.node[37].nic.mac1609_4 	TotalLostPackets 	0
scalar IntersectionExampleScenario.node[37].nic.mac1609_4 	DroppedPacketsInMac 	0
scalar IntersectionExampleScenario.node[37].nic.mac1609_4 	TooLittleTime 	0
scalar IntersectionExampleScenario.node[37].nic.mac1609_4 	TimesIntoBackoff 	0
scalar IntersectionExampleScenario.node[37].nic.mac1609_4 	SlotsBackoff 	0
[...]
scalar IntersectionExampleScenario.node[498].veinsmobility 	totalDistance 	394.05689731675
scalar IntersectionExampleScenario.node[498].veinsmobility 	totalCO2Emission 	106.539416125
scalar IntersectionExampleScenario.node[499].appl 	VehicleRemoved 	0
scalar IntersectionExampleScenario.node[499].appl 	ArrivedAtDest 	0
scalar IntersectionExampleScenario.node[499].appl 	IntersectionEnterTime 	1769.75
scalar IntersectionExampleScenario.node[499].appl 	IntersectionExitTime 	-1
scalar IntersectionExampleScenario.node[499].appl 	NumberOfCollisions 	0
scalar IntersectionExampleScenario.node[499].nic.phy80211p 	busyTime 	0
scalar IntersectionExampleScenario.node[499].nic.mac1609_4 	ReceivedUnicastPackets 	0
scalar IntersectionExampleScenario.node[499].nic.mac1609_4 	ReceivedBroadcasts 	0
scalar IntersectionExampleScenario.node[499].nic.mac1609_4 	SentPackets 	0
scalar IntersectionExampleScenario.node[499].nic.mac1609_4 	SNIRLostPackets 	0
scalar IntersectionExampleScenario.node[499].nic.mac1609_4 	RXTXLostPackets 	0
scalar IntersectionExampleScenario.node[499].nic.mac1609_4 	TotalLostPackets 	0
scalar IntersectionExampleScenario.node[499].nic.mac1609_4 	DroppedPacketsInMac 	0
scalar IntersectionExampleScenario.node[499].nic.mac1609_4 	TooLittleTime 	0
scalar IntersectionExampleScenario.node[499].nic.mac1609_4 	TimesIntoBackoff 	0
scalar IntersectionExampleScenario.node[499].nic.mac1609_4 	SlotsBackoff 	0
scalar IntersectionExampleScenario.node[499].nic.mac1609_4 	NumInternalContention 	0
scalar IntersectionExampleScenario.node[499].nic.mac1609_4 	totalBusyTime 	0
scalar IntersectionExampleScenario.node[499].veinsmobility 	startTime 	1769.75
scalar IntersectionExampleScenario.node[499].veinsmobility 	totalTime 	30.25
scalar IntersectionExampleScenario.node[499].veinsmobility 	stopTime 	1800
scalar IntersectionExampleScenario.node[499].veinsmobility 	minSpeed 	0
scalar IntersectionExampleScenario.node[499].veinsmobility 	maxSpeed 	15.64999961853
scalar IntersectionExampleScenario.node[499].veinsmobility 	totalDistance 	272.88864135742
scalar IntersectionExampleScenario.node[499].veinsmobility 	totalCO2Emission 	70.978393914189
scalar IntersectionExampleScenario.node[500].appl 	VehicleRemoved 	0
scalar IntersectionExampleScenario.node[500].appl 	ArrivedAtDest 	0
scalar IntersectionExampleScenario.node[500].appl 	IntersectionEnterTime 	1771.75
scalar IntersectionExampleScenario.node[500].appl 	IntersectionExitTime 	-1
scalar IntersectionExampleScenario.node[500].appl 	NumberOfCollisions 	0
scalar IntersectionExampleScenario.node[500].nic.phy80211p 	busyTime 	0
scalar IntersectionExampleScenario.node[500].nic.mac1609_4 	ReceivedUnicastPackets 	0
scalar IntersectionExampleScenario.node[500].nic.mac1609_4 	ReceivedBroadcasts 	0
scalar IntersectionExampleScenario.node[500].nic.mac1609_4 	SentPackets 	0
scalar IntersectionExampleScenario.node[500].nic.mac1609_4 	SNIRLostPackets 	0
scalar IntersectionExampleScenario.node[500].nic.mac1609_4 	RXTXLostPackets 	0
scalar IntersectionExampleScenario.node[500].nic.mac1609_4 	TotalLostPackets 	0
scalar IntersectionExampleScenario.node[500].nic.mac1609_4 	DroppedPacketsInMac 	0
scalar IntersectionExampleScenario.node[500].nic.mac1609_4 	TooLittleTime 	0
scalar IntersectionExampleScenario.node[500].nic.mac1609_4 	TimesIntoBackoff 	0
scalar IntersectionExampleScenario.node[500].nic.mac1609_4 	SlotsBackoff 	0
scalar IntersectionExampleScenario.node[500].nic.mac1609_4 	NumInternalContention 	0
scalar IntersectionExampleScenario.node[500].nic.mac1609_4 	totalBusyTime 	0
scalar IntersectionExampleScenario.node[500].veinsmobility 	startTime 	1771.75
scalar IntersectionExampleScenario.node[500].veinsmobility 	totalTime 	28.25
scalar IntersectionExampleScenario.node[500].veinsmobility 	stopTime 	1800
scalar IntersectionExampleScenario.node[500].veinsmobility 	minSpeed 	1.1120485067368
scalar IntersectionExampleScenario.node[500].veinsmobility 	maxSpeed 	15.02499961853
scalar IntersectionExampleScenario.node[500].veinsmobility 	totalDistance 	272.50686645508
scalar IntersectionExampleScenario.node[500].veinsmobility 	totalCO2Emission 	65.039939852842
scalar IntersectionExampleScenario.node[501].appl 	VehicleRemoved 	0
scalar IntersectionExampleScenario.node[501].appl 	ArrivedAtDest 	0
scalar IntersectionExampleScenario.node[501].appl 	IntersectionEnterTime 	1772
scalar IntersectionExampleScenario.node[501].appl 	IntersectionExitTime 	-1
scalar IntersectionExampleScenario.node[501].appl 	NumberOfCollisions 	0
scalar IntersectionExampleScenario.node[501].nic.phy80211p 	busyTime 	0
scalar IntersectionExampleScenario.node[501].nic.mac1609_4 	ReceivedUnicastPackets 	0
scalar IntersectionExampleScenario.node[501].nic.mac1609_4 	ReceivedBroadcasts 	0
scalar IntersectionExampleScenario.node[501].nic.mac1609_4 	SentPackets 	0
scalar IntersectionExampleScenario.node[501].nic.mac1609_4 	SNIRLostPackets 	0
scalar IntersectionExampleScenario.node[501].nic.mac1609_4 	RXTXLostPackets 	0
scalar IntersectionExampleScenario.node[501].nic.mac1609_4 	TotalLostPackets 	0
scalar IntersectionExampleScenario.node[501].nic.mac1609_4 	DroppedPacketsInMac 	0
scalar IntersectionExampleScenario.node[501].nic.mac1609_4 	TooLittleTime 	0
scalar IntersectionExampleScenario.node[501].nic.mac1609_4 	TimesIntoBackoff 	0
scalar IntersectionExampleScenario.node[501].nic.mac1609_4 	SlotsBackoff 	0
scalar IntersectionExampleScenario.node[501].nic.mac1609_4 	NumInternalContention 	0
scalar IntersectionExampleScenario.node[501].nic.mac1609_4 	totalBusyTime 	0
scalar IntersectionExampleScenario.node[501].veinsmobility 	startTime 	1772
scalar IntersectionExampleScenario.node[501].veinsmobility 	totalTime 	28
scalar IntersectionExampleScenario.node[501].veinsmobility 	stopTime 	1800
scalar IntersectionExampleScenario.node[501].veinsmobility 	minSpeed 	1.9140785932541
scalar IntersectionExampleScenario.node[501].veinsmobility 	maxSpeed 	15.515982627869
scalar IntersectionExampleScenario.node[501].veinsmobility 	totalDistance 	284.35342407227
scalar IntersectionExampleScenario.node[501].veinsmobility 	totalCO2Emission 	72.654852847606
scalar IntersectionExampleScenario.node[502].appl 	VehicleRemoved 	0
scalar IntersectionExampleScenario.node[502].appl 	ArrivedAtDest 	0
scalar IntersectionExampleScenario.node[502].appl 	IntersectionEnterTime 	1772.5
scalar IntersectionExampleScenario.node[502].appl 	IntersectionExitTime 	-1
scalar IntersectionExampleScenario.node[502].appl 	NumberOfCollisions 	0
scalar IntersectionExampleScenario.node[502].nic.phy80211p 	busyTime 	0
scalar IntersectionExampleScenario.node[502].nic.mac1609_4 	ReceivedUnicastPackets 	0
scalar IntersectionExampleScenario.node[502].nic.mac1609_4 	ReceivedBroadcasts 	0
scalar IntersectionExampleScenario.node[502].nic.mac1609_4 	SentPackets 	0
scalar IntersectionExampleScenario.node[502].nic.mac1609_4 	SNIRLostPackets 	0
scalar IntersectionExampleScenario.node[502].nic.mac1609_4 	RXTXLostPackets 	0
scalar IntersectionExampleScenario.node[502].nic.mac1609_4 	TotalLostPackets 	0
scalar IntersectionExampleScenario.node[502].nic.mac1609_4 	DroppedPacketsInMac 	0
scalar IntersectionExampleScenario.node[502].nic.mac1609_4 	TooLittleTime 	0
scalar IntersectionExampleScenario.node[502].nic.mac1609_4 	TimesIntoBackoff 	0
scalar IntersectionExampleScenario.node[502].nic.mac1609_4 	SlotsBackoff 	0
scalar IntersectionExampleScenario.node[502].nic.mac1609_4 	NumInternalContention 	0
scalar IntersectionExampleScenario.node[502].nic.mac1609_4 	totalBusyTime 	0
scalar IntersectionExampleScenario.node[502].veinsmobility 	startTime 	1772.5
scalar IntersectionExampleScenario.node[502].veinsmobility 	totalTime 	27.5
scalar IntersectionExampleScenario.node[502].veinsmobility 	stopTime 	1800
scalar IntersectionExampleScenario.node[502].veinsmobility 	minSpeed 	0
scalar IntersectionExampleScenario.node[502].veinsmobility 	maxSpeed 	15.376802444458
scalar IntersectionExampleScenario.node[502].veinsmobility 	totalDistance 	310.97025299072
scalar IntersectionExampleScenario.node[502].veinsmobility 	totalCO2Emission 	71.466760479081
scalar IntersectionExampleScenario.node[503].appl 	VehicleRemoved 	0
scalar IntersectionExampleScenario.node[503].appl 	ArrivedAtDest 	0
scalar IntersectionExampleScenario.node[503].appl 	IntersectionEnterTime 	1775.5
scalar IntersectionExampleScenario.node[503].appl 	IntersectionExitTime 	-1
scalar IntersectionExampleScenario.node[503].appl 	NumberOfCollisions 	0
scalar IntersectionExampleScenario.node[503].nic.phy80211p 	busyTime 	0
scalar IntersectionExampleScenario.node[503].nic.mac1609_4 	ReceivedUnicastPackets 	0
scalar IntersectionExampleScenario.node[503].nic.mac1609_4 	ReceivedBroadcasts 	0
scalar IntersectionExampleScenario.node[503].nic.mac1609_4 	SentPackets 	0
scalar IntersectionExampleScenario.node[503].nic.mac1609_4 	SNIRLostPackets 	0
scalar IntersectionExampleScenario.node[503].nic.mac1609_4 	RXTXLostPackets 	0
scalar IntersectionExampleScenario.node[503].nic.mac1609_4 	TotalLostPackets 	0
scalar IntersectionExampleScenario.node[503].nic.mac1609_4 	DroppedPacketsInMac 	0
scalar IntersectionExampleScenario.node[503].nic.mac1609_4 	TooLittleTime 	0
scalar IntersectionExampleScenario.node[503].nic.mac1609_4 	TimesIntoBackoff 	0
scalar IntersectionExampleScenario.node[503].nic.mac1609_4 	SlotsBackoff 	0
scalar IntersectionExampleScenario.node[503].nic.mac1609_4 	NumInternalContention 	0
scalar IntersectionExampleScenario.node[503].nic.mac1609_4 	totalBusyTime 	0
scalar IntersectionExampleScenario.node[503].veinsmobility 	startTime 	1775.5
scalar IntersectionExampleScenario.node[503].veinsmobility 	totalTime 	24.5
scalar IntersectionExampleScenario.node[503].veinsmobility 	stopTime 	1800
scalar IntersectionExampleScenario.node[503].veinsmobility 	minSpeed 	3.2978825569153
scalar IntersectionExampleScenario.node[503].veinsmobility 	maxSpeed 	15.027034759521
scalar IntersectionExampleScenario.node[503].veinsmobility 	totalDistance 	274.31811523534
scalar IntersectionExampleScenario.node[503].veinsmobility 	totalCO2Emission 	65.01054703149
scalar IntersectionExampleScenario.node[504].appl 	VehicleRemoved 	0
scalar IntersectionExampleScenario.node[504].appl 	ArrivedAtDest 	0
scalar IntersectionExampleScenario.node[504].appl 	IntersectionEnterTime 	1777.75
scalar IntersectionExampleScenario.node[504].appl 	IntersectionExitTime 	-1
scalar IntersectionExampleScenario.node[504].appl 	NumberOfCollisions 	0
scalar IntersectionExampleScenario.node[504].nic.phy80211p 	busyTime 	0
scalar IntersectionExampleScenario.node[504].nic.mac1609_4 	ReceivedUnicastPackets 	0
scalar IntersectionExampleScenario.node[504].nic.mac1609_4 	ReceivedBroadcasts 	0
scalar IntersectionExampleScenario.node[504].nic.mac1609_4 	SentPackets 	0
scalar IntersectionExampleScenario.node[504].nic.mac1609_4 	SNIRLostPackets 	0
scalar IntersectionExampleScenario.node[504].nic.mac1609_4 	RXTXLostPackets 	0
scalar IntersectionExampleScenario.node[504].nic.mac1609_4 	TotalLostPackets 	0
scalar IntersectionExampleScenario.node[504].nic.mac1609_4 	DroppedPacketsInMac 	0
scalar IntersectionExampleScenario.node[504].nic.mac1609_4 	TooLittleTime 	0
scalar IntersectionExampleScenario.node[504].nic.mac1609_4 	TimesIntoBackoff 	0
scalar IntersectionExampleScenario.node[504].nic.mac1609_4 	SlotsBackoff 	0
scalar IntersectionExampleScenario.node[504].nic.mac1609_4 	NumInternalContention 	0
scalar IntersectionExampleScenario.node[504].nic.mac1609_4 	totalBusyTime 	0
scalar IntersectionExampleScenario.node[504].veinsmobility 	startTime 	1777.75
scalar IntersectionExampleScenario.node[504].veinsmobility 	totalTime 	22.25
scalar IntersectionExampleScenario.node[504].veinsmobility 	stopTime 	1800
scalar IntersectionExampleScenario.node[504].veinsmobility 	minSpeed 	1.8346300125122
scalar IntersectionExampleScenario.node[504].veinsmobility 	maxSpeed 	15.949360847473
scalar IntersectionExampleScenario.node[504].veinsmobility 	totalDistance 	287.8279800415
scalar IntersectionExampleScenario.node[504].veinsmobility 	totalCO2Emission 	67.117026432796
scalar IntersectionExampleScenario.node[505].appl 	VehicleRemoved 	0
scalar IntersectionExampleScenario.node[505].appl 	ArrivedAtDest 	0
scalar IntersectionExampleScenario.node[505].appl 	IntersectionEnterTime 	1778.75
scalar IntersectionExampleScenario.node[505].appl 	IntersectionExitTime 	-1
scalar IntersectionExampleScenario.node[505].appl 	NumberOfCollisions 	0
scalar IntersectionExampleScenario.node[505].nic.phy80211p 	busyTime 	0
scalar IntersectionExampleScenario.node[505].nic.mac1609_4 	ReceivedUnicastPackets 	0
scalar IntersectionExampleScenario.node[505].nic.mac1609_4 	ReceivedBroadcasts 	0
scalar IntersectionExampleScenario.node[505].nic.mac1609_4 	SentPackets 	0
scalar IntersectionExampleScenario.node[505].nic.mac1609_4 	SNIRLostPackets 	0
scalar IntersectionExampleScenario.node[505].nic.mac1609_4 	RXTXLostPackets 	0
scalar IntersectionExampleScenario.node[505].nic.mac1609_4 	TotalLostPackets 	0
scalar IntersectionExampleScenario.node[505].nic.mac1609_4 	DroppedPacketsInMac 	0
scalar IntersectionExampleScenario.node[505].nic.mac1609_4 	TooLittleTime 	0
scalar IntersectionExampleScenario.node[505].nic.mac1609_4 	TimesIntoBackoff 	0
scalar IntersectionExampleScenario.node[505].nic.mac1609_4 	SlotsBackoff 	0
scalar IntersectionExampleScenario.node[505].nic.mac1609_4 	NumInternalContention 	0
scalar IntersectionExampleScenario.node[505].nic.mac1609_4 	totalBusyTime 	0
scalar IntersectionExampleScenario.node[505].veinsmobility 	startTime 	1778.75
scalar IntersectionExampleScenario.node[505].veinsmobility 	totalTime 	21.25
scalar IntersectionExampleScenario.node[505].veinsmobility 	stopTime 	1800
scalar IntersectionExampleScenario.node[505].veinsmobility 	minSpeed 	4.8590321540833
scalar IntersectionExampleScenario.node[505].veinsmobility 	maxSpeed 	15.02499961853
scalar IntersectionExampleScenario.node[505].veinsmobility 	totalDistance 	245.21350097656
scalar IntersectionExampleScenario.node[505].veinsmobility 	totalCO2Emission 	57.355434342386
scalar IntersectionExampleScenario.node[506].appl 	VehicleRemoved 	0
scalar IntersectionExampleScenario.node[506].appl 	ArrivedAtDest 	0
scalar IntersectionExampleScenario.node[506].appl 	IntersectionEnterTime 	1788.75
scalar IntersectionExampleScenario.node[506].appl 	IntersectionExitTime 	-1
scalar IntersectionExampleScenario.node[506].appl 	NumberOfCollisions 	0
scalar IntersectionExampleScenario.node[506].nic.phy80211p 	busyTime 	0
scalar IntersectionExampleScenario.node[506].nic.mac1609_4 	ReceivedUnicastPackets 	0
scalar IntersectionExampleScenario.node[506].nic.mac1609_4 	ReceivedBroadcasts 	0
scalar IntersectionExampleScenario.node[506].nic.mac1609_4 	SentPackets 	0
scalar IntersectionExampleScenario.node[506].nic.mac1609_4 	SNIRLostPackets 	0
scalar IntersectionExampleScenario.node[506].nic.mac1609_4 	RXTXLostPackets 	0
scalar IntersectionExampleScenario.node[506].nic.mac1609_4 	TotalLostPackets 	0
scalar IntersectionExampleScenario.node[506].nic.mac1609_4 	DroppedPacketsInMac 	0
scalar IntersectionExampleScenario.node[506].nic.mac1609_4 	TooLittleTime 	0
scalar IntersectionExampleScenario.node[506].nic.mac1609_4 	TimesIntoBackoff 	0
scalar IntersectionExampleScenario.node[506].nic.mac1609_4 	SlotsBackoff 	0
scalar IntersectionExampleScenario.node[506].nic.mac1609_4 	NumInternalContention 	0
scalar IntersectionExampleScenario.node[506].nic.mac1609_4 	totalBusyTime 	0
scalar IntersectionExampleScenario.node[506].veinsmobility 	startTime 	1788.75
scalar IntersectionExampleScenario.node[506].veinsmobility 	totalTime 	11.25
scalar IntersectionExampleScenario.node[506].veinsmobility 	stopTime 	1800
scalar IntersectionExampleScenario.node[506].veinsmobility 	minSpeed 	5.6500000953674
scalar IntersectionExampleScenario.node[506].veinsmobility 	maxSpeed 	15.02499961853
scalar IntersectionExampleScenario.node[506].veinsmobility 	totalDistance 	148.20079803467
scalar IntersectionExampleScenario.node[506].veinsmobility 	totalCO2Emission 	45.666735883605
scalar IntersectionExampleScenario.node[507].appl 	VehicleRemoved 	0
scalar IntersectionExampleScenario.node[507].appl 	ArrivedAtDest 	0
scalar IntersectionExampleScenario.node[507].appl 	IntersectionEnterTime 	1792.25
scalar IntersectionExampleScenario.node[507].appl 	IntersectionExitTime 	-1
scalar IntersectionExampleScenario.node[507].appl 	NumberOfCollisions 	0
scalar IntersectionExampleScenario.node[507].nic.phy80211p 	busyTime 	0
scalar IntersectionExampleScenario.node[507].nic.mac1609_4 	ReceivedUnicastPackets 	0
scalar IntersectionExampleScenario.node[507].nic.mac1609_4 	ReceivedBroadcasts 	0
scalar IntersectionExampleScenario.node[507].nic.mac1609_4 	SentPackets 	0
scalar IntersectionExampleScenario.node[507].nic.mac1609_4 	SNIRLostPackets 	0
scalar IntersectionExampleScenario.node[507].nic.mac1609_4 	RXTXLostPackets 	0
scalar IntersectionExampleScenario.node[507].nic.mac1609_4 	TotalLostPackets 	0
scalar IntersectionExampleScenario.node[507].nic.mac1609_4 	DroppedPacketsInMac 	0
scalar IntersectionExampleScenario.node[507].nic.mac1609_4 	TooLittleTime 	0
scalar IntersectionExampleScenario.node[507].nic.mac1609_4 	TimesIntoBackoff 	0
scalar IntersectionExampleScenario.node[507].nic.mac1609_4 	SlotsBackoff 	0
scalar IntersectionExampleScenario.node[507].nic.mac1609_4 	NumInternalContention 	0
scalar IntersectionExampleScenario.node[507].nic.mac1609_4 	totalBusyTime 	0
scalar IntersectionExampleScenario.node[507].veinsmobility 	startTime 	1792.25
scalar IntersectionExampleScenario.node[507].veinsmobility 	totalTime 	7.75
scalar IntersectionExampleScenario.node[507].veinsmobility 	stopTime 	1800
scalar IntersectionExampleScenario.node[507].veinsmobility 	minSpeed 	5.6500000953674
scalar IntersectionExampleScenario.node[507].veinsmobility 	maxSpeed 	15.02499961853
scalar IntersectionExampleScenario.node[507].veinsmobility 	totalDistance 	96.313484191895
scalar IntersectionExampleScenario.node[507].veinsmobility 	totalCO2Emission 	38.533423775783
scalar IntersectionExampleScenario.node[508].appl 	VehicleRemoved 	0
scalar IntersectionExampleScenario.node[508].appl 	ArrivedAtDest 	0
scalar IntersectionExampleScenario.node[508].appl 	IntersectionEnterTime 	1799
scalar IntersectionExampleScenario.node[508].appl 	IntersectionExitTime 	-1
scalar IntersectionExampleScenario.node[508].appl 	NumberOfCollisions 	0
scalar IntersectionExampleScenario.node[508].nic.phy80211p 	busyTime 	0
scalar IntersectionExampleScenario.node[508].nic.mac1609_4 	ReceivedUnicastPackets 	0
scalar IntersectionExampleScenario.node[508].nic.mac1609_4 	ReceivedBroadcasts 	0
scalar IntersectionExampleScenario.node[508].nic.mac1609_4 	SentPackets 	0
scalar IntersectionExampleScenario.node[508].nic.mac1609_4 	SNIRLostPackets 	0
scalar IntersectionExampleScenario.node[508].nic.mac1609_4 	RXTXLostPackets 	0
scalar IntersectionExampleScenario.node[508].nic.mac1609_4 	TotalLostPackets 	0
scalar IntersectionExampleScenario.node[508].nic.mac1609_4 	DroppedPacketsInMac 	0
scalar IntersectionExampleScenario.node[508].nic.mac1609_4 	TooLittleTime 	0
scalar IntersectionExampleScenario.node[508].nic.mac1609_4 	TimesIntoBackoff 	0
scalar IntersectionExampleScenario.node[508].nic.mac1609_4 	SlotsBackoff 	0
scalar IntersectionExampleScenario.node[508].nic.mac1609_4 	NumInternalContention 	0
scalar IntersectionExampleScenario.node[508].nic.mac1609_4 	totalBusyTime 	0
scalar IntersectionExampleScenario.node[508].veinsmobility 	startTime 	1799
scalar IntersectionExampleScenario.node[508].veinsmobility 	totalTime 	1
scalar IntersectionExampleScenario.node[508].veinsmobility 	stopTime 	1800
scalar IntersectionExampleScenario.node[508].veinsmobility 	minSpeed 	5.6500000953674
scalar IntersectionExampleScenario.node[508].veinsmobility 	maxSpeed 	7.5250000953674
scalar IntersectionExampleScenario.node[508].veinsmobility 	totalDistance 	6.2750244140625
scalar IntersectionExampleScenario.node[508].veinsmobility 	totalCO2Emission 	4.2232135025359
