file 20733747 1591489112                                        
version 2
run nodebug-22-20200606-20:14:49-18208
attr configname nodebug
attr datetime 20200606-20:14:49
attr experiment nodebug
attr inifile omnetpp.ini
attr iterationvars ""
attr iterationvars2 $repetition=22
attr measurement ""
attr network "\"org.car2x.veins.modules.application.ExtTraCIScenarioManagerLaunchd.IntersectionExampleScenario\""
attr processid 18208
attr repetition 22
attr replication #22
attr resultdir results
attr runnumber 22
attr seedset 22
param **.coreDebug false
param **.debug false
param *.**.nic.mac1609_4.bitrate 18Mbps
param *.**.nic.mac1609_4.txPower 20mW
param *.**.nic.mac1609_4.useServiceChannel false
param *.**.nic.phy80211p.analogueModels "xmldoc(\"config.xml\")"
param *.**.nic.phy80211p.decider "xmldoc(\"config.xml\")"
param *.**.nic.phy80211p.sensitivity -89dBm
param *.**.nic.phy80211p.thermalNoise -110dBm
param *.**.nic.phy80211p.usePropagationDelay true
param *.**.nic.phy80211p.useThermalNoise true
param *.annotations.draw false
param *.connectionManager.alpha 2.0
param *.connectionManager.carrierFrequency "5.890e9 Hz"
param *.connectionManager.pMax 20mW
param *.connectionManager.sat -89dBm
param *.connectionManager.sendDirect true
param *.manager.autoShutdown true
param *.manager.host "\"localhost\""
param *.manager.launchConfig "xmldoc(\"paramics.launchd.xml\")"
param *.manager.margin 25
param *.manager.moduleDisplayString "\"\""
param *.manager.moduleName "\"node\""
param *.manager.moduleType "\"org.car2x.veins.nodes.Car\""
param *.manager.port 9999
param *.manager.updateInterval 250ms
param *.node[*0].veinsmobility.accidentCount 0
param *.node[*0].veinsmobility.accidentDuration 30s
param *.node[*0].veinsmobility.accidentStart 75s
param *.node[*].appl.LiderSelectZoneRadio 55.0
param *.node[*].appl.ShareDataZoneRadio 110.0
param *.node[*].appl.TiempoSemaforo 30.0
param *.node[*].appl.beaconInterval 1s
param *.node[*].appl.beaconPriority 3
param *.node[*].appl.dataOnSch false
param *.node[*].appl.dataPriority 2
param *.node[*].appl.debug false
param *.node[*].appl.headerLength "256 bit"
param *.node[*].appl.maxOffset 0.005s
param *.node[*].appl.sendBeacons false
param *.node[*].appl.sendData true
param *.node[*].applType "\"Dummy\""
param *.node[*].mobilityType "\"TraCIMobility\""
param *.node[*].mobilityType.debug true
param *.node[*].veinsmobility.x 0
param *.node[*].veinsmobility.y 0
param *.node[*].veinsmobility.z 1.895
param *.node[*].veinsmobilityType "\"org.car2x.veins.modules.mobility.traci.TraCIMobility\""
param *.node[*].veinsmobilityType.debug true
param *.playgroundSizeX 8500m
param *.playgroundSizeY 8500m
param *.playgroundSizeZ 50m
param *.world.use2D false
param *.world.useTorus false

vector 20281  IntersectionExampleScenario.manager  vehiclesinsim  ETV
attr type  int
vector 20282  IntersectionExampleScenario.manager  realtime  ETV
attr type  int
attr unit  s
vector 20285  IntersectionExampleScenario.node[0].veinsmobility  posx  ETV
vector 20286  IntersectionExampleScenario.node[0].veinsmobility  posy  ETV
vector 20287  IntersectionExampleScenario.node[0].veinsmobility  speed  ETV
vector 20288  IntersectionExampleScenario.node[0].veinsmobility  acceleration  ETV
vector 20289  IntersectionExampleScenario.node[0].veinsmobility  co2emission  ETV
vector 20292  IntersectionExampleScenario.node[1].veinsmobility  posx  ETV
vector 20293  IntersectionExampleScenario.node[1].veinsmobility  posy  ETV
vector 20294  IntersectionExampleScenario.node[1].veinsmobility  speed  ETV
vector 20295  IntersectionExampleScenario.node[1].veinsmobility  acceleration  ETV
vector 20296  IntersectionExampleScenario.node[1].veinsmobility  co2emission  ETV
vector 20299  IntersectionExampleScenario.node[2].veinsmobility  posx  ETV
vector 20300  IntersectionExampleScenario.node[2].veinsmobility  posy  ETV
vector 20301  IntersectionExampleScenario.node[2].veinsmobility  speed  ETV
vector 20302  IntersectionExampleScenario.node[2].veinsmobility  acceleration  ETV
vector 20303  IntersectionExampleScenario.node[2].veinsmobility  co2emission  ETV
vector 20306  IntersectionExampleScenario.node[3].veinsmobility  posx  ETV
vector 20307  IntersectionExampleScenario.node[3].veinsmobility  posy  ETV
vector 20308  IntersectionExampleScenario.node[3].veinsmobility  speed  ETV
vector 20309  IntersectionExampleScenario.node[3].veinsmobility  acceleration  ETV
vector 20310  IntersectionExampleScenario.node[3].veinsmobility  co2emission  ETV
vector 20313  IntersectionExampleScenario.node[4].veinsmobility  posx  ETV
vector 20314  IntersectionExampleScenario.node[4].veinsmobility  posy  ETV
vector 20315  IntersectionExampleScenario.node[4].veinsmobility  speed  ETV
vector 20316  IntersectionExampleScenario.node[4].veinsmobility  acceleration  ETV
vector 20317  IntersectionExampleScenario.node[4].veinsmobility  co2emission  ETV
vector 20320  IntersectionExampleScenario.node[5].veinsmobility  posx  ETV
vector 20321  IntersectionExampleScenario.node[5].veinsmobility  posy  ETV
vector 20322  IntersectionExampleScenario.node[5].veinsmobility  speed  ETV
vector 20323  IntersectionExampleScenario.node[5].veinsmobility  acceleration  ETV
vector 20324  IntersectionExampleScenario.node[5].veinsmobility  co2emission  ETV
vector 20327  IntersectionExampleScenario.node[6].veinsmobility  posx  ETV
vector 20328  IntersectionExampleScenario.node[6].veinsmobility  posy  ETV
vector 20329  IntersectionExampleScenario.node[6].veinsmobility  speed  ETV
vector 20330  IntersectionExampleScenario.node[6].veinsmobility  acceleration  ETV
vector 20331  IntersectionExampleScenario.node[6].veinsmobility  co2emission  ETV
vector 20334  IntersectionExampleScenario.node[7].veinsmobility  posx  ETV
vector 20335  IntersectionExampleScenario.node[7].veinsmobility  posy  ETV
vector 20341  IntersectionExampleScenario.node[8].veinsmobility  posx  ETV
vector 20342  IntersectionExampleScenario.node[8].veinsmobility  posy  ETV
vector 20336  IntersectionExampleScenario.node[7].veinsmobility  speed  ETV
vector 20337  IntersectionExampleScenario.node[7].veinsmobility  acceleration  ETV
vector 20338  IntersectionExampleScenario.node[7].veinsmobility  co2emission  ETV
vector 20343  IntersectionExampleScenario.node[8].veinsmobility  speed  ETV
vector 20344  IntersectionExampleScenario.node[8].veinsmobility  acceleration  ETV
vector 20345  IntersectionExampleScenario.node[8].veinsmobility  co2emission  ETV
vector 20348  IntersectionExampleScenario.node[9].veinsmobility  posx  ETV
vector 20349  IntersectionExampleScenario.node[9].veinsmobility  posy  ETV
vector 20350  IntersectionExampleScenario.node[9].veinsmobility  speed  ETV
vector 20351  IntersectionExampleScenario.node[9].veinsmobility  acceleration  ETV
vector 20352  IntersectionExampleScenario.node[9].veinsmobility  co2emission  ETV
20296	6896 4758 60 1751 5.25 43 152 0.973 11.990504229548 480.56587504167 2612.2460010431
20295	11654 4322 60 1751 5.25 43 152 -3.0983085632324 2.5 39.699392318726 198.74124400146
20294	15976 4665 55 1751 5 43 153 5.6500000953674 16.125 2223.7700643539 33036.011175474
20293	20641 4907 50 1751 4.75 43 154 184.17810058594 734.81689453125 69104.698577881 35120460.892283
20292	25548 4946 50 1751 4.75 43 154 486.85000610352 486.85000610352 74974.900939941 36501530.980221
vector 20355  IntersectionExampleScenario.node[10].veinsmobility  posx  ETV
vector 20356  IntersectionExampleScenario.node[10].veinsmobility  posy  ETV
vector 20362  IntersectionExampleScenario.node[11].veinsmobility  posx  ETV
vector 20363  IntersectionExampleScenario.node[11].veinsmobility  posy  ETV
vector 20357  IntersectionExampleScenario.node[10].veinsmobility  speed  ETV
vector 20358  IntersectionExampleScenario.node[10].veinsmobility  acceleration  ETV
vector 20359  IntersectionExampleScenario.node[10].veinsmobility  co2emission  ETV
vector 20364  IntersectionExampleScenario.node[11].veinsmobility  speed  ETV
vector 20365  IntersectionExampleScenario.node[11].veinsmobility  acceleration  ETV
vector 20366  IntersectionExampleScenario.node[11].veinsmobility  co2emission  ETV
20310	31296 4810 226 2291 11.75 49.5 152 0.973 11.90022389248 511.07197680249 2843.9065176347
20309	36106 4016 226 2291 11.75 49.5 152 -3.4545745849609 2.5 41.396924972534 255.29053257645
20308	40122 4671 217 2291 11.5 49.5 153 5.6500000953674 16.016492843628 2210.7840003967 33078.602886128
20307	44793 4980 208 2291 11.25 49.5 154 184.17810058594 486.87588500977 61235.738372803 26087124.619582
20306	49773 4996 208 2291 11.25 49.5 154 236.24584960938 486.85000610352 66904.405883789 29988500.091581
vector 20369  IntersectionExampleScenario.node[12].veinsmobility  posx  ETV
vector 20370  IntersectionExampleScenario.node[12].veinsmobility  posy  ETV
vector 20371  IntersectionExampleScenario.node[12].veinsmobility  speed  ETV
vector 20372  IntersectionExampleScenario.node[12].veinsmobility  acceleration  ETV
vector 20373  IntersectionExampleScenario.node[12].veinsmobility  co2emission  ETV
vector 20376  IntersectionExampleScenario.node[13].veinsmobility  posx  ETV
vector 20377  IntersectionExampleScenario.node[13].veinsmobility  posy  ETV
vector 20378  IntersectionExampleScenario.node[13].veinsmobility  speed  ETV
vector 20379  IntersectionExampleScenario.node[13].veinsmobility  acceleration  ETV
vector 20380  IntersectionExampleScenario.node[13].veinsmobility  co2emission  ETV
vector 20383  IntersectionExampleScenario.node[14].veinsmobility  posx  ETV
vector 20384  IntersectionExampleScenario.node[14].veinsmobility  posy  ETV
vector 20385  IntersectionExampleScenario.node[14].veinsmobility  speed  ETV
vector 20386  IntersectionExampleScenario.node[14].veinsmobility  acceleration  ETV
vector 20387  IntersectionExampleScenario.node[14].veinsmobility  co2emission  ETV
20303	55972 6780 124 3733 8.25 67.75 239 0.973 12.099024792222 625.11557379842 3263.31851063
20302	62752 6296 124 3733 8.25 67.75 239 -7.8776445388794 4 40.038900375366 513.03881719338
20301	69048 6482 117 3733 8 67.75 240 0 16.27499961853 2205.5864975452 32071.414867027
20300	75530 7827 110 3733 7.75 67.75 241 238.29949951172 785.82187652588 123843.91825104 67696343.226881
20299	83357 7853 110 3733 7.75 67.75 241 483.14999389648 483.14999389648 116439.14852905 56257573.901123
vector 20390  IntersectionExampleScenario.node[15].veinsmobility  posx  ETV
vector 20391  IntersectionExampleScenario.node[15].veinsmobility  posy  ETV
vector 20397  IntersectionExampleScenario.node[16].veinsmobility  posx  ETV
vector 20398  IntersectionExampleScenario.node[16].veinsmobility  posy  ETV
vector 20392  IntersectionExampleScenario.node[15].veinsmobility  speed  ETV
vector 20393  IntersectionExampleScenario.node[15].veinsmobility  acceleration  ETV
vector 20394  IntersectionExampleScenario.node[15].veinsmobility  co2emission  ETV
vector 20399  IntersectionExampleScenario.node[16].veinsmobility  speed  ETV
vector 20400  IntersectionExampleScenario.node[16].veinsmobility  acceleration  ETV
vector 20401  IntersectionExampleScenario.node[16].veinsmobility  co2emission  ETV
vector 20404  IntersectionExampleScenario.node[17].veinsmobility  posx  ETV
vector 20405  IntersectionExampleScenario.node[17].veinsmobility  posy  ETV
vector 20406  IntersectionExampleScenario.node[17].veinsmobility  speed  ETV
vector 20407  IntersectionExampleScenario.node[17].veinsmobility  acceleration  ETV
vector 20408  IntersectionExampleScenario.node[17].veinsmobility  co2emission  ETV
vector 20411  IntersectionExampleScenario.node[18].veinsmobility  posx  ETV
vector 20412  IntersectionExampleScenario.node[18].veinsmobility  posy  ETV
vector 20413  IntersectionExampleScenario.node[18].veinsmobility  speed  ETV
vector 20414  IntersectionExampleScenario.node[18].veinsmobility  acceleration  ETV
vector 20415  IntersectionExampleScenario.node[18].veinsmobility  co2emission  ETV
20338	92814 5106 1173 4219 33.75 73.25 159 0.973 11.200708441096 467.50965965232 2391.8141312001
20337	97920 4922 1173 4219 33.75 73.25 159 -3.8278007507324 2.5 35.795072555542 196.80951299455
20336	102842 5063 1156 4219 33.5 73.25 160 5.6500000953674 15.02499961853 2213.1072826385 31119.840467923
20335	107905 5297 1141 4219 33.25 73.25 161 237.53631591797 785.82187652588 83869.514289856 47941684.832118
20334	113202 5314 1141 4219 33.25 73.25 161 483.14999389648 483.14999389648 77787.149017334 37582860.57295
20345	118516 5471 1189 4518 34 76.5 171 0.973 11.36141391502 511.21749082689 2594.7335601793
20344	123987 5078 1189 4518 34 76.5 171 -3.3948402404785 2.5 36.813589096069 261.9927026594
20343	129065 5367 1173 4518 33.75 76.5 172 5.6500000953674 15.25 2280.4032897949 31548.759483929
20342	134432 5697 1156 4518 33.5 76.5 173 486.85000610352 810.23281097412 101072.04250336 61284375.668381
20341	140129 5692 1156 4518 33.5 76.5 173 236.94781494141 483.14999389648 75205.844970703 33658972.422647
vector 20418  IntersectionExampleScenario.node[19].veinsmobility  posx  ETV
vector 20419  IntersectionExampleScenario.node[19].veinsmobility  posy  ETV
vector 20420  IntersectionExampleScenario.node[19].veinsmobility  speed  ETV
vector 20421  IntersectionExampleScenario.node[19].veinsmobility  acceleration  ETV
vector 20422  IntersectionExampleScenario.node[19].veinsmobility  co2emission  ETV
20289	146222 8901 11 5245 1.5 84.25 332 0.97223939240464 11.810082123732 701.14375159457 3154.2134363661
20288	155123 7980 11 5245 1.5 84.25 332 -7.1630640029907 4 38.680875778198 476.87792498683
20287	163103 8166 8 5245 1.25 84.25 333 0 15.875 2184.2047655582 30861.615730234
20286	171269 10768 5 5245 1 84.25 334 486.85000610352 734.74661254883 170847.95251465 88547060.262032
20285	182037 10830 5 5245 1 84.25 334 486.63604736328 785.82187652588 178419.22840118 97503961.264324
vector 20425  IntersectionExampleScenario.node[20].veinsmobility  posx  ETV
vector 20426  IntersectionExampleScenario.node[20].veinsmobility  posy  ETV
vector 20432  IntersectionExampleScenario.node[21].veinsmobility  posx  ETV
vector 20433  IntersectionExampleScenario.node[21].veinsmobility  posy  ETV
vector 20427  IntersectionExampleScenario.node[20].veinsmobility  speed  ETV
vector 20434  IntersectionExampleScenario.node[21].veinsmobility  speed  ETV
vector 20428  IntersectionExampleScenario.node[20].veinsmobility  acceleration  ETV
vector 20429  IntersectionExampleScenario.node[20].veinsmobility  co2emission  ETV
vector 20435  IntersectionExampleScenario.node[21].veinsmobility  acceleration  ETV
vector 20436  IntersectionExampleScenario.node[21].veinsmobility  co2emission  ETV
20317	193669 8424 428 5514 17.25 87 280 0.973 11.200708441096 625.81445378315 2755.5655653967
20316	202093 9131 428 5514 17.25 87 280 -3.9314744472504 2.5 36.304327011108 314.60391308273
20315	211224 8883 417 5514 17 87 281 0 15.164969444275 2187.5907206153 28095.695859639
20314	220107 9243 406 5514 16.75 87 282 486.85000610352 734.26429748535 145815.57473755 76543486.721979
20313	229350 9227 406 5514 16.75 87 282 486.85000610352 785.82187652588 154139.79682159 86305548.31781
20331	238577 6899 1011 5614 30.75 88 230 0.973 11.90022389248 599.19475386381 3060.4947599177
20330	245476 7194 1011 5614 30.75 88 230 -3.8956878185272 2.5 39.869146347046 340.38307969679
20329	252670 7336 998 5614 30.5 88 231 0 16 2208.8160147034 29518.421992689
20328	260006 7636 985 5614 30.25 88 232 236.75085449219 486.85000610352 104732.12200928 48356797.91348
20327	267642 7637 985 5614 30.25 88 232 483.1325378418 785.82187652588 128909.56136322 73536055.310104
vector 20439  IntersectionExampleScenario.node[22].veinsmobility  posx  ETV
vector 20440  IntersectionExampleScenario.node[22].veinsmobility  posy  ETV
vector 20441  IntersectionExampleScenario.node[22].veinsmobility  speed  ETV
vector 20442  IntersectionExampleScenario.node[22].veinsmobility  acceleration  ETV
vector 20443  IntersectionExampleScenario.node[22].veinsmobility  co2emission  ETV
vector 20446  IntersectionExampleScenario.node[23].veinsmobility  posx  ETV
vector 20447  IntersectionExampleScenario.node[23].veinsmobility  posy  ETV
vector 20448  IntersectionExampleScenario.node[23].veinsmobility  speed  ETV
vector 20449  IntersectionExampleScenario.node[23].veinsmobility  acceleration  ETV
vector 20450  IntersectionExampleScenario.node[23].veinsmobility  co2emission  ETV
vector 20453  IntersectionExampleScenario.node[24].veinsmobility  posx  ETV
vector 20454  IntersectionExampleScenario.node[24].veinsmobility  posy  ETV
vector 20460  IntersectionExampleScenario.node[25].veinsmobility  posx  ETV
vector 20461  IntersectionExampleScenario.node[25].veinsmobility  posy  ETV
vector 20455  IntersectionExampleScenario.node[24].veinsmobility  speed  ETV
vector 20456  IntersectionExampleScenario.node[24].veinsmobility  acceleration  ETV
vector 20457  IntersectionExampleScenario.node[24].veinsmobility  co2emission  ETV
vector 20462  IntersectionExampleScenario.node[25].veinsmobility  speed  ETV
vector 20463  IntersectionExampleScenario.node[25].veinsmobility  acceleration  ETV
vector 20464  IntersectionExampleScenario.node[25].veinsmobility  co2emission  ETV
20366	276883 6698 1829 7002 44 100.5 227 0.973 11.450879080643 585.54875093754 2816.7958389631
20365	283581 6101 1829 7002 44 100.5 227 -8.2128324508667 4 36.813589096069 483.09837192663
20364	289682 6420 1808 7002 43.75 100.5 228 0 15.375 2194.1650776863 30391.974956571
20363	296102 7529 1787 7002 43.5 100.5 229 184.17810058594 486.85000610352 96061.834442139 42346151.493121
20362	303631 7550 1787 7002 43.5 100.5 229 238.42358398438 486.85000610352 102991.06109619 47412092.845014
20373	311181 5788 2774 7225 55.5 102.5 189 0.973 11.200708441096 535.98220447174 2629.6272996377
20372	316969 5762 2774 7225 55.5 102.5 189 -2.1841888427734 2.5000009536743 37.492597579956 271.25482384017
20371	322731 6093 2753 7225 55.25 102.5 190 2.3847630023956 15.108468055725 2199.8146076202 28974.048208681
20370	328824 6288 2732 7225 55 102.5 191 184.17810058594 486.90197753906 77453.049621582 33262850.948486
20369	335112 6307 2732 7225 55 102.5 191 238.60845947266 486.85000610352 84589.459594727 38483279.035749
vector 20467  IntersectionExampleScenario.node[26].veinsmobility  posx  ETV
vector 20468  IntersectionExampleScenario.node[26].veinsmobility  posy  ETV
vector 20474  IntersectionExampleScenario.node[27].veinsmobility  posx  ETV
vector 20475  IntersectionExampleScenario.node[27].veinsmobility  posy  ETV
vector 20469  IntersectionExampleScenario.node[26].veinsmobility  speed  ETV
vector 20476  IntersectionExampleScenario.node[27].veinsmobility  speed  ETV
vector 20470  IntersectionExampleScenario.node[26].veinsmobility  acceleration  ETV
vector 20471  IntersectionExampleScenario.node[26].veinsmobility  co2emission  ETV
vector 20477  IntersectionExampleScenario.node[27].veinsmobility  acceleration  ETV
vector 20478  IntersectionExampleScenario.node[27].veinsmobility  co2emission  ETV
20387	342221 4944 3608 7525 66.25 105.25 157 0.97223939240464 11.818749055531 521.10223831659 3166.8674617304
20386	347165 4686 3608 7525 66.25 105.25 157 -3.1976013183594 2.5 38.680875778198 258.24110711392
20385	351851 5004 3587 7525 66 105.25 158 5.6500000953674 15.887026786804 2224.3375711441 31985.197930033
20384	356855 5239 3566 7525 65.75 105.25 159 184.17810058594 735.17311096191 71279.283859253 36130672.692168
20383	362094 5269 3566 7525 65.75 105.25 159 486.85000610352 486.85000610352 77409.150970459 37686645.622436
vector 20481  IntersectionExampleScenario.node[28].veinsmobility  posx  ETV
vector 20482  IntersectionExampleScenario.node[28].veinsmobility  posy  ETV
vector 20483  IntersectionExampleScenario.node[28].veinsmobility  speed  ETV
vector 20484  IntersectionExampleScenario.node[28].veinsmobility  acceleration  ETV
vector 20485  IntersectionExampleScenario.node[28].veinsmobility  co2emission  ETV
vector 20488  IntersectionExampleScenario.node[29].veinsmobility  posx  ETV
vector 20489  IntersectionExampleScenario.node[29].veinsmobility  posy  ETV
vector 20490  IntersectionExampleScenario.node[29].veinsmobility  speed  ETV
vector 20491  IntersectionExampleScenario.node[29].veinsmobility  acceleration  ETV
vector 20492  IntersectionExampleScenario.node[29].veinsmobility  co2emission  ETV
20324	368165 9502 963 8892 29.75 116.25 347 0.97223939240464 11.810082123732 718.15519735676 3176.0363798801
20323	377667 8428 963 8892 29.75 116.25 347 -7.743688583374 4 38.680875778198 532.21179026622
20322	386095 8661 952 8892 29.5 116.25 348 0 15.875 2183.8938484192 31045.636687105
20321	394756 11508 941 8892 29.25 116.25 349 235.25335693359 483.14999389648 160379.29721069 74864141.016569
20320	406264 11554 941 8892 29.25 116.25 349 184.17810058594 483.36395263672 152662.50146484 68992906.112939
20352	417818 9067 1598 9046 40.75 117.5 308 0.97223939240464 11.648172402475 671.41442773247 3009.965649118
20351	426885 9241 1598 9046 40.75 117.5 308 -3.8634688854218 2.5 38.680875778198 344.95090352808
20350	436126 9256 1581 9046 40.5 117.5 309 0 15.64999961853 2205.229042382 29337.413095434
20349	445382 10286 1564 9046 40.25 117.5 310 483.14999389648 732.60749816895 158104.18006897 81795381.021235
20348	455668 10275 1564 9046 40.25 117.5 310 184.17810058594 486.86566162109 132873.91049194 59047685.43124
vector 20495  IntersectionExampleScenario.node[30].veinsmobility  posx  ETV
vector 20496  IntersectionExampleScenario.node[30].veinsmobility  posy  ETV
vector 20497  IntersectionExampleScenario.node[30].veinsmobility  speed  ETV
vector 20498  IntersectionExampleScenario.node[30].veinsmobility  acceleration  ETV
vector 20499  IntersectionExampleScenario.node[30].veinsmobility  co2emission  ETV
20415	466344 5916 4219 9394 73.25 120.5 190 0.973 11.200708441096 528.27371152472 2557.0486835361
20414	472260 5918 4219 9394 73.25 120.5 190 -2.0688591003418 2.5 35.964826583862 265.57119473243
20413	478178 6156 4196 9394 73 120.5 191 3.1382706165314 15.02499961853 2216.7092754841 28557.609843408
20412	484334 6415 4173 9394 72.75 120.5 192 483.14999389648 735.27210998535 101644.55081177 54892510.472762
20411	490749 6385 4173 9394 72.75 120.5 192 184.17810058594 486.85000610352 77656.625671387 33272261.081867
vector 20502  IntersectionExampleScenario.node[31].veinsmobility  posx  ETV
vector 20503  IntersectionExampleScenario.node[31].veinsmobility  posy  ETV
vector 20504  IntersectionExampleScenario.node[31].veinsmobility  speed  ETV
vector 20505  IntersectionExampleScenario.node[31].veinsmobility  acceleration  ETV
vector 20506  IntersectionExampleScenario.node[31].veinsmobility  co2emission  ETV
20359	497535 9839 1808 10656 43.75 132.5 356 0.973 11.36141391502 709.38744233207 2917.5605907582
20358	507374 8682 1808 10656 43.75 132.5 356 -27.077175140381 4 36.643835067749 1089.6851643905
20357	516056 8947 1787 10656 43.5 132.5 357 0 15.25 2171.5387268066 30117.300579301
20356	525003 11964 1768 10656 43.25 132.5 358 486.63604736328 785.82187652588 190605.19309235 103734973.56909
20355	536967 11901 1768 10656 43.25 132.5 358 238.42651367188 483.14999389648 164670.82748413 76902884.720145
20380	548868 8884 3129 10745 60 133.5 295 0.973 11.648172402475 657.7721494106 2993.0455426913
20379	557752 9172 3129 10745 60 133.5 295 -3.9381833076477 2.5 38.511121749878 345.16606578447
20378	566924 9154 3109 10745 59.75 133.5 296 0 15.64999961853 2202.9223478669 29239.966633239
20377	576078 9943 3089 10745 59.5 133.5 297 483.13436889648 785.82187652588 161285.4285965 89663322.263697
20376	586021 9957 3089 10745 59.5 133.5 297 483.14999389648 732.07901000977 151809.71740723 78742652.03492
20422	595978 6496 5120 10913 83 135.5 211 0.973 11.648172402475 579.19363296807 2934.6553356233
20421	602474 6705 5120 10913 83 135.5 211 -3.869469165802 2.5 39.869146347046 331.6445620553
20420	609179 6913 5095 10913 82.75 135.5 212 0 15.653059005737 2207.4083450548 29589.014847707
20419	616092 7191 5070 10913 82.5 135.5 213 483.1337890625 785.82187652588 119131.73503876 68501158.918648
20418	623283 7199 5070 10913 82.5 135.5 213 483.14999389648 732.89895629883 111111.21421814 59008461.208605
vector 20509  IntersectionExampleScenario.node[32].veinsmobility  posx  ETV
vector 20510  IntersectionExampleScenario.node[32].veinsmobility  posy  ETV
vector 20511  IntersectionExampleScenario.node[32].veinsmobility  speed  ETV
vector 20512  IntersectionExampleScenario.node[32].veinsmobility  acceleration  ETV
vector 20513  IntersectionExampleScenario.node[32].veinsmobility  co2emission  ETV
20457	630883 5350 6513 11115 96.5 138 167 0.973 12.099024792222 545.09303359792 3184.9817041168
20456	636233 5020 6513 11115 96.5 138 167 -2.8986282348633 2.5 40.038900375366 293.70562009097
20455	641253 5445 6482 11115 96.25 138 168 5.6500000953674 16.27499961853 2213.1193132401 30632.223258135
20454	646698 5761 6453 11115 96 138 169 483.14999389648 785.82187652588 96387.600105286 56739594.478264
20453	652459 5771 6453 11115 96 138 169 483.14999389648 734.40997314453 89934.194717407 48837443.611118
vector 20516  IntersectionExampleScenario.node[33].veinsmobility  posx  ETV
vector 20517  IntersectionExampleScenario.node[33].veinsmobility  posy  ETV
vector 20518  IntersectionExampleScenario.node[33].veinsmobility  speed  ETV
20464	658462 5713 6544 11231 96.75 139.5 172 0.973 11.734972051661 549.95132802494 3001.055780845
20463	664175 5456 6544 11231 96.75 139.5 172 -4.5 2.5 38.680875778198 325.25506062442
20462	669631 5702 6513 11231 96.5 139.5 173 5.6500000953674 15.770698547363 2320.7855653763 32135.446442446
20461	675333 5928 6482 11231 96.25 139.5 174 235.73370361328 810.23281097412 93289.088134766 54795167.312972
20460	681261 5956 6482 11231 96.25 139.5 174 483.14999389648 483.14999389648 84068.098937988 40617501.488778
vector 20519  IntersectionExampleScenario.node[33].veinsmobility  acceleration  ETV
vector 20520  IntersectionExampleScenario.node[33].veinsmobility  co2emission  ETV
vector 20523  IntersectionExampleScenario.node[34].veinsmobility  posx  ETV
vector 20524  IntersectionExampleScenario.node[34].veinsmobility  posy  ETV
vector 20525  IntersectionExampleScenario.node[34].veinsmobility  speed  ETV
vector 20526  IntersectionExampleScenario.node[34].veinsmobility  acceleration  ETV
vector 20527  IntersectionExampleScenario.node[34].veinsmobility  co2emission  ETV
vector 20530  IntersectionExampleScenario.node[35].veinsmobility  posx  ETV
vector 20531  IntersectionExampleScenario.node[35].veinsmobility  posy  ETV
vector 20532  IntersectionExampleScenario.node[35].veinsmobility  speed  ETV
vector 20533  IntersectionExampleScenario.node[35].veinsmobility  acceleration  ETV
vector 20534  IntersectionExampleScenario.node[35].veinsmobility  co2emission  ETV
20471	688188 5639 7467 11844 104.75 146.75 169 0.973 10.916047529558 478.49181804647 2331.2235467074
20470	693827 5528 7467 11844 104.75 146.75 169 -3.4932956695557 2.5 33.418523788452 250.19013555898
20469	699355 5525 7438 11844 104.5 146.75 170 5.6500000953674 14.625 2178.7606911659 28889.808074358
20468	704880 5891 7409 11844 104.25 146.75 171 486.85000610352 785.82187652588 97839.270874023 57796905.676715
20467	710771 5897 7409 11844 104.25 146.75 171 237.76080322266 483.14999389648 73820.925964355 32853930.024474
vector 20537  IntersectionExampleScenario.node[36].veinsmobility  posx  ETV
vector 20538  IntersectionExampleScenario.node[36].veinsmobility  posy  ETV
vector 20539  IntersectionExampleScenario.node[36].veinsmobility  speed  ETV
vector 20540  IntersectionExampleScenario.node[36].veinsmobility  acceleration  ETV
vector 20541  IntersectionExampleScenario.node[36].veinsmobility  co2emission  ETV
20408	717069 8844 3971 11974 70.5 148.25 312 0.973 11.648172402475 672.96170446846 2968.934168407
20407	725913 8256 3971 11974 70.5 148.25 312 -6.9727306365967 4 38.534994125366 477.13313820049
20406	734169 8211 3948 11974 70.25 148.25 313 0 15.64999961853 2092.0246555805 29602.756365669
20405	742380 10644 3925 11974 70 148.25 314 486.85000610352 486.85000610352 152870.9019165 74425199.5311
20404	753024 10615 3925 11974 70 148.25 314 236.63653564453 756.11563110352 157747.01544952 82770357.609481
20394	763639 9137 3834 12038 69 149 321 0.973 11.90022389248 706.59399038258 3178.3538112585
20393	772776 8387 3834 12038 69 149 321 -4.5 2.5 39.699392318726 507.55990446392
20392	781163 8539 3811 12038 68.75 149 322 0 16 2201.7476450801 30581.54159488
20391	789702 10939 3790 12038 68.5 149 323 237.72052001953 486.85000610352 149077.5553894 69954617.167499
20390	800641 10931 3790 12038 68.5 149 323 482.98611450195 785.82187652588 174892.39047241 97101724.786296
20401	811572 10039 3857 12266 69.25 152 332 0.95681112692538 11.810082123732 714.80328678568 3122.8298919175
20400	821611 10105 3857 12266 69.25 152 332 -4.5 2.5000001192093 39.529638290405 413.72585850877
20399	831716 9999 3834 12266 69 152 333 0 15.980324745178 2287.7437944887 30751.104315509
20398	841715 11331 3811 12266 68.75 152 334 486.85000610352 734.53219604492 170740.07099915 88421096.696764
20397	853046 11312 3811 12266 68.75 152 334 486.81094360352 810.23281097412 184163.00585938 104392080.99229
20429	864358 8473 5438 12368 86.25 153.5 270 0.973 12.099024792222 654.56162553127 3267.5819769329
20428	872831 8817 5438 12368 86.25 153.5 270 -3.7607383728027 2.5 41.227170944214 356.15636227288
20427	881648 8903 5411 12368 86 153.5 271 0 16.27499961853 2213.3673753524 29937.707050655
20426	890551 9287 5384 12368 85.75 153.5 272 236.02209472656 486.85000610352 124317.35696411 57929849.311211
20425	899838 9273 5384 12368 85.75 153.5 272 483.14999389648 785.82187652588 149765.23911285 84389068.29534
20443	909111 8663 5718 12553 89 156.5 271 0.973 11.810082123732 666.16288204502 3251.3592328627
20442	917774 8966 5718 12553 89 156.5 271 -4.5 2.5 39.699392318726 450.42389738561
20441	926740 8993 5691 12553 88.75 156.5 272 0 15.875 2243.9312719945 29649.275703407
20440	935733 9351 5664 12553 88.5 156.5 273 486.85000610352 733.7181854248 140959.83114624 73865751.199926
20439	945084 9333 5664 12553 88.5 156.5 273 486.85000610352 800.04531860352 152494.35228729 87297762.418087
20450	954417 8262 6075 12628 92.5 157.75 262 0.97223939240464 11.648172402475 634.72444565003 3081.5882931306
20449	962679 8685 6075 12628 92.5 157.75 262 -3.7289762496948 2.5 38.680875778198 368.9337619791
20448	971364 8810 6048 12628 92.25 157.75 263 0 15.64999961853 2287.0773857906 30062.185425036
20447	980174 9071 6021 12628 92 157.75 264 486.85000610352 486.85000610352 128528.40161133 62574053.10895
20446	989245 9036 6021 12628 92 157.75 264 236.23712158203 802.57735443115 140740.38284302 79574379.83569
vector 20544  IntersectionExampleScenario.node[37].veinsmobility  posx  ETV
vector 20545  IntersectionExampleScenario.node[37].veinsmobility  posy  ETV
vector 20546  IntersectionExampleScenario.node[37].veinsmobility  speed  ETV
vector 20547  IntersectionExampleScenario.node[37].veinsmobility  acceleration  ETV
vector 20548  IntersectionExampleScenario.node[37].veinsmobility  co2emission  ETV
20436	998682 8969 5438 13008 86.25 163.75 311 0.973 12.099024792222 701.8692659626 3254.7995358571
20435	1007651 8011 5438 13008 86.25 163.75 311 -6.9979004859924 4 41.227170944214 483.58852570409
20434	1015662 8338 5411 13008 86 163.75 312 0 16.27499961853 2205.6373022795 32306.443622761
20433	1024000 10712 5384 13008 85.75 163.75 313 184.17810058594 486.85000610352 136178.75485229 61408212.501373
20432	1034712 10729 5384 13008 85.75 163.75 313 236.18542480469 486.85000610352 144288.2644043 67654910.738343
vector 20551  IntersectionExampleScenario.node[38].veinsmobility  posx  ETV
vector 20552  IntersectionExampleScenario.node[38].veinsmobility  posy  ETV
vector 20553  IntersectionExampleScenario.node[38].veinsmobility  speed  ETV
vector 20554  IntersectionExampleScenario.node[38].veinsmobility  acceleration  ETV
vector 20555  IntersectionExampleScenario.node[38].veinsmobility  co2emission  ETV
20478	1045842 7813 7467 13137 104.75 165.75 245 0.973 11.648172402475 603.36761948894 2916.3035230966
20477	1053655 7996 7467 13137 104.75 165.75 245 -3.7948110103607 2.5000004768372 38.341367721558 340.92723195071
20476	1061651 8229 7438 13137 104.5 165.75 246 0 15.64999961853 2184.5133351423 28784.243343863
20475	1069880 8513 7409 13137 104.25 165.75 247 184.17810058594 483.14999389648 103307.32052612 45168107.237551
20474	1078393 8558 7409 13137 104.25 165.75 247 486.85000610352 733.03935241699 128431.04818726 67846910.329214
20492	1086951 7020 8501 13311 113.25 168.5 222 0.973 11.200708441096 556.37008493494 2637.6620646174
20491	1093971 7267 8501 13311 113.25 168.5 222 -3.9251215457916 2.5000004768372 35.625318527222 316.14959940578
20490	1101238 7549 8468 13311 113 168.5 223 0 15.02499961853 2218.3227602728 28292.200219018
20489	1108787 7746 8435 13311 112.75 168.5 224 184.17810058594 734.02770996094 100557.54466248 49458788.704534
20488	1116533 7786 8435 13311 112.75 168.5 224 486.85000610352 486.85000610352 109054.40136719 53093135.97123
20499	1124319 6452 9365 13431 120.25 170.5 202 0.973 11.200708441096 532.76302648453 2503.788334577
20498	1130771 6611 9365 13431 120.25 170.5 202 -2.4774475097656 2.5 35.964826583862 278.2800355872
20497	1137382 6913 9336 13431 120 170.5 203 2.41064453125 15.02499961853 2213.6923294067 27914.221211946
20496	1144295 7067 9306 13431 119.75 170.5 204 184.17810058594 732.7166595459 90799.15322876 44700232.578506
20495	1151362 7114 9306 13431 119.75 170.5 204 486.85000610352 486.85000610352 99317.401245117 48352677.40237
vector 20558  IntersectionExampleScenario.node[39].veinsmobility  posx  ETV
vector 20559  IntersectionExampleScenario.node[39].veinsmobility  posy  ETV
vector 20560  IntersectionExampleScenario.node[39].veinsmobility  speed  ETV
vector 20561  IntersectionExampleScenario.node[39].veinsmobility  acceleration  ETV
vector 20562  IntersectionExampleScenario.node[39].veinsmobility  co2emission  ETV
vector 20565  IntersectionExampleScenario.node[40].veinsmobility  posx  ETV
vector 20566  IntersectionExampleScenario.node[40].veinsmobility  posy  ETV
vector 20567  IntersectionExampleScenario.node[40].veinsmobility  speed  ETV
vector 20572  IntersectionExampleScenario.node[41].veinsmobility  posx  ETV
vector 20573  IntersectionExampleScenario.node[41].veinsmobility  posy  ETV
vector 20568  IntersectionExampleScenario.node[40].veinsmobility  acceleration  ETV
vector 20569  IntersectionExampleScenario.node[40].veinsmobility  co2emission  ETV
vector 20574  IntersectionExampleScenario.node[41].veinsmobility  speed  ETV
vector 20575  IntersectionExampleScenario.node[41].veinsmobility  acceleration  ETV
vector 20576  IntersectionExampleScenario.node[41].veinsmobility  co2emission  ETV
20485	1159679 8581 7877 14138 108.25 180 288 0.97223939240464 11.648172402475 657.52862567383 3022.6850107027
20484	1168260 7693 7877 14138 108.25 180 288 -7.1630792617798 4 38.680875778198 471.71272919869
20483	1175953 8041 7846 14138 108 180 289 0 15.64999961853 2189.1655395031 31036.837682078
20482	1183994 10064 7815 14138 107.75 180 290 483.14999389648 734.76512145996 148578.68998718 77295551.640975
20481	1194058 10047 7815 14138 107.75 180 290 184.17810058594 486.85000610352 125044.24069214 56072392.263413
vector 20579  IntersectionExampleScenario.node[42].veinsmobility  posx  ETV
vector 20580  IntersectionExampleScenario.node[42].veinsmobility  posy  ETV
vector 20581  IntersectionExampleScenario.node[42].veinsmobility  speed  ETV
vector 20582  IntersectionExampleScenario.node[42].veinsmobility  acceleration  ETV
vector 20583  IntersectionExampleScenario.node[42].veinsmobility  co2emission  ETV
vector 20586  IntersectionExampleScenario.node[43].veinsmobility  posx  ETV
vector 20587  IntersectionExampleScenario.node[43].veinsmobility  posy  ETV
vector 20588  IntersectionExampleScenario.node[43].veinsmobility  speed  ETV
vector 20589  IntersectionExampleScenario.node[43].veinsmobility  acceleration  ETV
vector 20590  IntersectionExampleScenario.node[43].veinsmobility  co2emission  ETV
vector 20593  IntersectionExampleScenario.node[44].veinsmobility  posx  ETV
vector 20594  IntersectionExampleScenario.node[44].veinsmobility  posy  ETV
vector 20595  IntersectionExampleScenario.node[44].veinsmobility  speed  ETV
20527	1205139 5732 11316 14426 140.5 183.5 173 0.973 11.36141391502 542.50873960866 2963.0468061386
20526	1210871 5344 11316 14426 140.5 183.5 173 -3.0231590270996 2.5 37.492597579956 330.24996650466
20525	1216215 5763 11295 14426 140.25 183.5 174 5.6500000953674 15.25 2177.320224762 29065.160460721
20524	1221978 6121 11273 14426 140 183.5 175 238.71691894531 483.14999389648 76375.42199707 34278600.793268
20523	1228099 6101 11273 14426 140 183.5 175 184.17810058594 483.14999389648 69919.89175415 29704524.798572
vector 20596  IntersectionExampleScenario.node[44].veinsmobility  acceleration  ETV
vector 20597  IntersectionExampleScenario.node[44].veinsmobility  co2emission  ETV
vector 20600  IntersectionExampleScenario.node[45].veinsmobility  posx  ETV
vector 20601  IntersectionExampleScenario.node[45].veinsmobility  posy  ETV
vector 20607  IntersectionExampleScenario.node[46].veinsmobility  posx  ETV
vector 20608  IntersectionExampleScenario.node[46].veinsmobility  posy  ETV
vector 20602  IntersectionExampleScenario.node[45].veinsmobility  speed  ETV
vector 20603  IntersectionExampleScenario.node[45].veinsmobility  acceleration  ETV
vector 20604  IntersectionExampleScenario.node[45].veinsmobility  co2emission  ETV
vector 20609  IntersectionExampleScenario.node[46].veinsmobility  speed  ETV
vector 20610  IntersectionExampleScenario.node[46].veinsmobility  acceleration  ETV
vector 20611  IntersectionExampleScenario.node[46].veinsmobility  co2emission  ETV
vector 20614  IntersectionExampleScenario.node[47].veinsmobility  posx  ETV
vector 20615  IntersectionExampleScenario.node[47].veinsmobility  posy  ETV
vector 20616  IntersectionExampleScenario.node[47].veinsmobility  speed  ETV
vector 20617  IntersectionExampleScenario.node[47].veinsmobility  acceleration  ETV
vector 20618  IntersectionExampleScenario.node[47].veinsmobility  co2emission  ETV
vector 20621  IntersectionExampleScenario.node[48].veinsmobility  posx  ETV
vector 20622  IntersectionExampleScenario.node[48].veinsmobility  posy  ETV
vector 20623  IntersectionExampleScenario.node[48].veinsmobility  speed  ETV
vector 20624  IntersectionExampleScenario.node[48].veinsmobility  acceleration  ETV
vector 20625  IntersectionExampleScenario.node[48].veinsmobility  co2emission  ETV
20520	1235973 7137 11252 15639 139.75 196.25 227 0.973 11.648172402475 597.42916147086 2960.4401999088
20519	1243110 6544 11252 15639 139.75 196.25 227 -7.03919506073 4 38.341367721558 478.13103295482
20518	1249654 6852 11231 15639 139.5 196.25 228 0 15.64999961853 2200.0624997616 31109.684844129
20517	1256506 8011 11210 15639 139.25 196.25 229 483.14999389648 785.82187652588 125868.43587494 71216080.724407
20516	1264517 8012 11210 15639 139.25 196.25 229 483.14999389648 732.70495605469 119016.2973938 62941660.043896
vector 20628  IntersectionExampleScenario.node[49].veinsmobility  posx  ETV
vector 20629  IntersectionExampleScenario.node[49].veinsmobility  posy  ETV
vector 20630  IntersectionExampleScenario.node[49].veinsmobility  speed  ETV
vector 20631  IntersectionExampleScenario.node[49].veinsmobility  acceleration  ETV
vector 20632  IntersectionExampleScenario.node[49].veinsmobility  co2emission  ETV
20541	1272930 6378 11974 15808 148.25 197.75 199 0.973 11.200708441096 542.27860695599 2654.0747683529
20540	1279308 6447 11974 15808 148.25 197.75 199 -2.1126976013184 2.5 36.813589096069 294.53660398242
20539	1285755 6852 11951 15808 148 197.75 200 1.1546670198441 15.02499961853 2218.9774388075 29154.41168101
20538	1292607 7017 11928 15808 147.75 197.75 201 235.75262451172 785.82187652588 104579.19135284 58664335.286571
20537	1299624 7036 11928 15808 147.75 197.75 201 483.14999389648 483.14999389648 97113.148773193 46920217.237037
vector 20635  IntersectionExampleScenario.node[50].veinsmobility  posx  ETV
vector 20636  IntersectionExampleScenario.node[50].veinsmobility  posy  ETV
vector 20637  IntersectionExampleScenario.node[50].veinsmobility  speed  ETV
vector 20638  IntersectionExampleScenario.node[50].veinsmobility  acceleration  ETV
vector 20639  IntersectionExampleScenario.node[50].veinsmobility  co2emission  ETV
vector 20642  IntersectionExampleScenario.node[51].veinsmobility  posx  ETV
vector 20643  IntersectionExampleScenario.node[51].veinsmobility  posy  ETV
vector 20644  IntersectionExampleScenario.node[51].veinsmobility  speed  ETV
vector 20645  IntersectionExampleScenario.node[51].veinsmobility  acceleration  ETV
vector 20646  IntersectionExampleScenario.node[51].veinsmobility  co2emission  ETV
vector 20649  IntersectionExampleScenario.node[52].veinsmobility  posx  ETV
vector 20650  IntersectionExampleScenario.node[52].veinsmobility  posy  ETV
vector 20651  IntersectionExampleScenario.node[52].veinsmobility  speed  ETV
vector 20652  IntersectionExampleScenario.node[52].veinsmobility  acceleration  ETV
vector 20653  IntersectionExampleScenario.node[52].veinsmobility  co2emission  ETV
vector 20656  IntersectionExampleScenario.node[53].veinsmobility  posx  ETV
vector 20657  IntersectionExampleScenario.node[53].veinsmobility  posy  ETV
vector 20658  IntersectionExampleScenario.node[53].veinsmobility  speed  ETV
vector 20659  IntersectionExampleScenario.node[53].veinsmobility  acceleration  ETV
vector 20660  IntersectionExampleScenario.node[53].veinsmobility  co2emission  ETV
vector 20663  IntersectionExampleScenario.node[54].veinsmobility  posx  ETV
vector 20664  IntersectionExampleScenario.node[54].veinsmobility  posy  ETV
20555	1308418 5189 13103 16469 165.25 203.5 154 0.93438186594183 12.26218747632 523.85975107503 3144.8615460325
20554	1313607 4969 13103 16469 165.25 203.5 154 -4.1241569519043 2.5 41.057416915894 316.53072866222
20553	1318576 5078 13086 16469 165 203.5 155 5.6500000953674 16.5 2174.8209199905 32099.928524739
20552	1323654 5451 13069 16469 164.75 203.5 156 486.85000610352 785.82187652588 89406.381278992 52942210.543457
20551	1329105 5445 13069 16469 164.75 203.5 156 238.99975585938 483.14999389648 67651.549743652 30206985.097303
vector 20665  IntersectionExampleScenario.node[54].veinsmobility  speed  ETV
vector 20666  IntersectionExampleScenario.node[54].veinsmobility  acceleration  ETV
vector 20667  IntersectionExampleScenario.node[54].veinsmobility  co2emission  ETV
vector 20670  IntersectionExampleScenario.node[55].veinsmobility  posx  ETV
vector 20671  IntersectionExampleScenario.node[55].veinsmobility  posy  ETV
vector 20672  IntersectionExampleScenario.node[55].veinsmobility  speed  ETV
vector 20673  IntersectionExampleScenario.node[55].veinsmobility  acceleration  ETV
vector 20674  IntersectionExampleScenario.node[55].veinsmobility  co2emission  ETV
20506	1335198 9865 10036 17401 126.5 211.25 340 0.973 12.717865293408 755.24557835794 3812.4952134147
20505	1345063 8856 10036 17401 126.5 211.25 340 -15.802185058594 4 43.773473739624 743.08230253644
20504	1353919 8983 10009 17401 126.25 211.25 341 0 17.125 2185.0228710175 33263.217643631
20503	1362902 11887 9982 17401 126 211.25 342 486.85000610352 734.49653625488 174137.384552 89749067.954468
20502	1374789 11947 9982 17401 126 211.25 342 486.63604736328 785.82187652588 181827.09474945 98816198.413523
20513	1386736 9577 11032 17626 137 213.25 306 0.973 11.90022389248 679.82377500505 3149.8291206923
20512	1396313 9871 11032 17626 137 213.25 306 -3.9583599567413 2.5 39.869146347046 355.20823056729
20511	1406184 9782 11011 17626 136.75 213.25 307 0 16 2206.9811154576 29778.04337489
20510	1415966 10764 10990 17626 136.5 213.25 308 237.08050537109 486.85000610352 141755.79498291 66387601.27286
20509	1426730 10758 10990 17626 136.5 213.25 308 483.13433837891 785.82187652588 166739.08617401 92345828.59818
20534	1437488 9648 11445 17956 142 216.5 299 0.973 11.450879080643 651.48220638232 2837.9750569614
20533	1447136 10181 11445 17956 142 216.5 299 -3.7531840801239 2.5 36.98334312439 337.57451209207
20532	1457317 10141 11423 17956 141.75 216.5 300 0 15.375 2213.0298754787 28059.375358682
20531	1467458 10530 11400 17956 141.5 216.5 301 235.06475830078 486.85000610352 137837.52026367 64330075.191991
20530	1477988 10514 11400 17956 141.5 216.5 301 483.12487792969 785.82187652588 164748.11385345 92215537.381794
20562	1488502 5996 13555 18106 172.5 218 183 0.973 11.200708441096 527.67506741397 2662.3526841165
20561	1494498 5962 13555 18106 172.5 218 183 -2.218090057373 2.5 36.134572982788 282.21280341501
20560	1500460 6218 13538 18106 172.25 218 184 3.9361143112183 15.02499961853 2217.5216679573 28982.718167356
20559	1506678 6473 13521 18106 172 218 185 486.85000610352 486.85000610352 90067.25112915 43849241.761954
20558	1513151 6454 13521 18106 172 218 185 236.74066162109 785.82187652588 96754.229560852 54869963.43039
20569	1519605 5887 13780 18281 175.75 219.75 177 0.973 11.450879080643 567.46136045437 3052.9843983362
20568	1525492 5744 13780 18281 175.75 219.75 177 -4.5 2.5000019073486 40.038900375366 372.12801960118
20567	1531236 5940 13761 18281 175.5 219.75 178 4.8421144485474 15.726849555969 2256.4647216797 30860.498897741
20566	1537176 6267 13742 18281 175.25 219.75 179 236.26092529297 486.85000610352 78911.785369873 35782493.793531
20565	1543443 6254 13742 18281 175.25 219.75 179 483.14999389648 797.07032012939 102739.36077881 60916143.6945
20583	1549697 5475 14258 18631 181.5 223.5 169 0.973 11.00486315618 467.84151785228 2476.9108654503
20582	1555172 5542 14258 18631 181.5 223.5 169 -3.3096504211426 2.5 34.267293930054 204.68603704858
20581	1560714 5665 14238 18631 181.25 223.5 170 5.6500000953674 14.75 2200.4833965302 29119.461602285
20580	1566379 5973 14217 18631 181 223.5 171 237.48327636719 486.85000610352 74326.247802734 33326668.65792
20579	1572352 5971 14217 18631 181 223.5 171 482.96447753906 785.82187652588 97758.171203613 57731838.73947
20590	1578323 5641 14319 18769 182.25 225 172 0.973 11.606321190165 494.15654583739 2459.2911641747
20589	1583964 6061 14319 18769 182.25 225 172 -3.3301277160645 2.5 38.823369979858 184.94946084475
20588	1590025 5871 14298 18769 182 225 173 5.6500000953674 15.591740608215 2301.0897703171 31397.479477598
20587	1595896 6060 14277 18769 181.75 225 174 236.56872558594 486.85000610352 75871.066711426 34111932.145604
20586	1601956 6074 14277 18769 181.75 225 174 483.14999389648 808.82032012939 100837.74328613 60626109.327916
vector 20677  IntersectionExampleScenario.node[56].veinsmobility  posx  ETV
vector 20678  IntersectionExampleScenario.node[56].veinsmobility  posy  ETV
vector 20679  IntersectionExampleScenario.node[56].veinsmobility  speed  ETV
vector 20680  IntersectionExampleScenario.node[56].veinsmobility  acceleration  ETV
vector 20681  IntersectionExampleScenario.node[56].veinsmobility  co2emission  ETV
vector 20684  IntersectionExampleScenario.node[57].veinsmobility  posx  ETV
vector 20685  IntersectionExampleScenario.node[57].veinsmobility  posy  ETV
vector 20686  IntersectionExampleScenario.node[57].veinsmobility  speed  ETV
vector 20687  IntersectionExampleScenario.node[57].veinsmobility  acceleration  ETV
vector 20688  IntersectionExampleScenario.node[57].veinsmobility  co2emission  ETV
vector 20691  IntersectionExampleScenario.node[58].veinsmobility  posx  ETV
vector 20692  IntersectionExampleScenario.node[58].veinsmobility  posy  ETV
vector 20693  IntersectionExampleScenario.node[58].veinsmobility  speed  ETV
20548	1609064 8181 12872 19122 161.75 228.5 268 0.973 11.450879080643 626.57373413523 2878.8031928682
20547	1617245 7418 12872 19122 161.75 228.5 268 -8.2128324508667 4 36.813589096069 486.59837192663
20546	1624663 7763 12855 19122 161.5 228.5 269 0 15.375 2205.7468724251 30668.924908397
20545	1632426 9405 12838 19122 161.25 228.5 270 184.17810058594 732.10963439941 123640.35256958 60845400.726748
20544	1641831 9451 12838 19122 161.25 228.5 270 486.85000610352 486.85000610352 131449.50164795 63996190.679608
vector 20694  IntersectionExampleScenario.node[58].veinsmobility  acceleration  ETV
vector 20695  IntersectionExampleScenario.node[58].veinsmobility  co2emission  ETV
20597	1651451 5996 14449 19257 183.75 229.75 185 0.973 11.648172402475 540.20861712623 2861.7453700667
20596	1657447 5970 14449 19257 183.75 229.75 185 -2.0975685119629 2.5 38.511121749878 295.82759649025
20595	1663417 6234 14426 19257 183.5 229.75 186 2.4677686691284 15.64999961853 2203.1147489548 29497.781188027
20594	1669651 6523 14403 19257 183.25 229.75 187 184.17810058594 486.85000610352 75680.061248779 32455560.402114
20593	1676174 6541 14403 19257 183.25 229.75 187 238.66424560547 486.85000610352 82780.234466553 37646311.15795
vector 20698  IntersectionExampleScenario.node[59].veinsmobility  posx  ETV
vector 20699  IntersectionExampleScenario.node[59].veinsmobility  posy  ETV
vector 20700  IntersectionExampleScenario.node[59].veinsmobility  speed  ETV
vector 20701  IntersectionExampleScenario.node[59].veinsmobility  acceleration  ETV
vector 20702  IntersectionExampleScenario.node[59].veinsmobility  co2emission  ETV
20632	1683116 5501 15724 19947 197 237 161 0.973 11.200708441096 475.97690163044 2373.5261008271
20631	1688617 5007 15724 19947 197 237 161 -3.1752662658691 2.5 36.134572982788 213.87762642399
20630	1693624 5394 15695 19947 196.75 237 162 5.6500000953674 15.02499961853 2201.0435371399 30675.979613668
20629	1699018 5681 15666 19947 196.5 237 163 184.17810058594 486.87219238281 64899.03225708 27645489.941402
20628	1704699 5700 15666 19947 196.5 237 163 238.24560546875 486.85000610352 70744.52166748 31676680.892793
20576	1710399 8237 13822 20589 176.25 244 272 0.973 11.810082123732 651.4659259185 3130.8435390552
20575	1718636 7369 13822 20589 176.25 244 272 -6.9388580322266 4 39.869146347046 481.49561185204
20574	1726005 7726 13801 20589 176 244 273 0 15.875 2183.3810286522 31318.381264493
20573	1733731 9520 13780 20589 175.75 244 274 235.62799072266 483.14999389648 124308.33816528 57485665.74574
20572	1743251 9567 13780 20589 175.75 244 274 184.17810058594 483.36395263672 117386.33502197 52380786.559021
20625	1752818 6733 15528 20882 195.25 247.75 211 0.973 10.916047529558 534.96474250865 2463.3974701777
20624	1759551 7013 15528 20882 195.25 247.75 211 -2.1141128540039 2.5 34.437047958374 279.27672375353
20623	1766564 7168 15499 20882 195 247.75 212 0.53862065076828 14.625 2176.5488437414 27258.445001819
20622	1773732 7450 15470 20882 194.75 247.75 213 238.29620361328 483.14999389648 94296.588043213 42801407.963985
20621	1781182 7426 15470 20882 194.75 247.75 213 184.17810058594 483.15023803711 87104.218353271 37535592.261223
20646	1788608 6348 16203 20984 201.25 249.25 193 0.973 11.00486315618 531.48729172838 2557.9905621056
20645	1794956 6168 16203 20984 201.25 249.25 193 -4.1338195800781 2.5 35.625318527222 305.47281658167
20644	1801124 6510 16174 20984 201 249.25 194 4.0690755844116 14.75 2207.9246134758 27766.377324459
20643	1807634 6810 16145 20984 200.75 249.25 195 483.14999389648 733.60917663574 103023.86994934 55504058.611582
20642	1814444 6794 16145 20984 200.75 249.25 195 184.17810058594 486.8786315918 78592.334869385 33535873.881219
20653	1821238 6442 16318 21047 202.25 250.25 193 0.973 11.54047740176 563.55529978778 2858.6189487011
20652	1827680 6206 16318 21047 202.25 250.25 193 -4.5 2.5 37.32285118103 390.32943531603
20651	1833886 6543 16289 21047 202 250.25 194 2.4894337654114 15.5 2304.570302248 30276.770256973
20650	1840429 6825 16260 21047 201.75 250.25 195 483.14999389648 483.14999389648 94214.248809814 45519613.737424
20649	1847254 6793 16260 21047 201.75 250.25 195 162.00311279297 732.96574401855 84792.858673096 41594260.920076
vector 20705  IntersectionExampleScenario.node[60].veinsmobility  posx  ETV
vector 20706  IntersectionExampleScenario.node[60].veinsmobility  posy  ETV
vector 20707  IntersectionExampleScenario.node[60].veinsmobility  speed  ETV
vector 20708  IntersectionExampleScenario.node[60].veinsmobility  acceleration  ETV
vector 20709  IntersectionExampleScenario.node[60].veinsmobility  co2emission  ETV
vector 20712  IntersectionExampleScenario.node[61].veinsmobility  posx  ETV
vector 20713  IntersectionExampleScenario.node[61].veinsmobility  posy  ETV
vector 20714  IntersectionExampleScenario.node[61].veinsmobility  speed  ETV
20604	1854680 8381 15158 21608 191.75 260.5 276 0.973 11.36141391502 630.77006206791 2840.1286657201
20603	1863061 7581 15158 21608 191.75 260.5 276 -8.2099418640137 4 36.813589096069 481.06962067089
20602	1870642 7882 15133 21608 191.5 260.5 277 0 15.25 2172.3059687614 29932.842901098
20601	1878524 9724 15110 21608 191.25 260.5 278 486.63604736328 785.82187652588 150742.47483063 83869125.24374
20600	1888248 9667 15110 21608 191.25 260.5 278 237.89813232422 483.14999389648 126005.33758545 58220101.808094
vector 20719  IntersectionExampleScenario.node[62].veinsmobility  posx  ETV
vector 20720  IntersectionExampleScenario.node[62].veinsmobility  posy  ETV
vector 20715  IntersectionExampleScenario.node[61].veinsmobility  acceleration  ETV
vector 20716  IntersectionExampleScenario.node[61].veinsmobility  co2emission  ETV
vector 20721  IntersectionExampleScenario.node[62].veinsmobility  speed  ETV
vector 20722  IntersectionExampleScenario.node[62].veinsmobility  acceleration  ETV
vector 20723  IntersectionExampleScenario.node[62].veinsmobility  co2emission  ETV
20639	1898485 8159 15920 21674 198.75 261.5 252 0.973 11.450879080643 613.65865599895 2858.2353089299
20638	1906644 8497 15920 21674 198.75 261.5 252 -3.6843464374542 2.5 38.511121749878 339.92456635658
20637	1915141 8601 15891 21674 198.5 261.5 253 0 15.375 2202.91305942 29538.192729912
20636	1923742 8864 15862 21674 198.25 261.5 254 483.13272094727 785.82187652588 139434.56229401 78556209.190606
20635	1932606 8885 15862 21674 198.25 261.5 254 483.14999389648 732.16403198242 131040.16786194 68712107.461285
20660	1941491 7780 16438 21790 203.25 263.25 241 0.973 11.648172402475 605.3070990077 2962.6205130288
20659	1949271 8082 16438 21790 203.25 263.25 241 -4.0989990234375 2.5 38.850629806519 367.28283821049
20658	1957353 8244 16407 21790 203 263.25 242 0 15.64999961853 2218.8409029972 29453.811416191
20657	1965597 8441 16376 21790 202.75 263.25 243 235.91491699219 785.82187652588 126704.29224396 70222375.089018
20656	1974038 8505 16376 21790 202.75 263.25 243 483.14999389648 483.14999389648 117405.44851685 56724441.734328
20667	1982543 8075 16534 21880 204 264.75 244 0.973 11.648172402475 648.67314445598 3123.1654695419
20666	1990618 8066 16534 21880 204 264.75 244 -4.5 2.5000000298023 41.227170944214 489.00474307405
20665	1998684 8331 16502 21880 203.75 264.75 245 0 15.994596481323 2306.1597231776 31727.532388099
20664	2007015 8564 16469 21880 203.5 264.75 246 237.89556884766 808.82032012939 130783.92061615 74048336.535086
20663	2015579 8611 16469 21880 203.5 264.75 246 483.14999389648 483.14999389648 118854.89849854 57424743.484134
20674	2024190 7877 16992 22030 207.75 267.75 241 0.973 11.200708441096 601.70144744662 2811.9646515877
20673	2032067 8032 16992 22030 207.75 267.75 241 -4.5 2.5000019073486 37.32285118103 444.226385456
20672	2040099 8241 16961 22030 207.5 267.75 242 0 15.401967048645 2296.7251944393 30125.773905603
20671	2048340 8483 16930 22030 207.25 267.75 243 236.40283203125 805.28205108643 129108.63721466 73267251.289936
20670	2056823 8507 16930 22030 207.25 267.75 243 483.14999389648 483.14999389648 117405.44851685 56724441.734328
vector 20726  IntersectionExampleScenario.node[63].veinsmobility  posx  ETV
vector 20727  IntersectionExampleScenario.node[63].veinsmobility  posy  ETV
vector 20728  IntersectionExampleScenario.node[63].veinsmobility  speed  ETV
vector 20729  IntersectionExampleScenario.node[63].veinsmobility  acceleration  ETV
vector 20730  IntersectionExampleScenario.node[63].veinsmobility  co2emission  ETV
vector 20733  IntersectionExampleScenario.node[64].veinsmobility  posx  ETV
vector 20734  IntersectionExampleScenario.node[64].veinsmobility  posy  ETV
vector 20735  IntersectionExampleScenario.node[64].veinsmobility  speed  ETV
vector 20736  IntersectionExampleScenario.node[64].veinsmobility  acceleration  ETV
vector 20737  IntersectionExampleScenario.node[64].veinsmobility  co2emission  ETV
vector 20740  IntersectionExampleScenario.node[65].veinsmobility  posx  ETV
vector 20741  IntersectionExampleScenario.node[65].veinsmobility  posy  ETV
vector 20747  IntersectionExampleScenario.node[66].veinsmobility  posx  ETV
vector 20748  IntersectionExampleScenario.node[66].veinsmobility  posy  ETV
vector 20742  IntersectionExampleScenario.node[65].veinsmobility  speed  ETV
vector 20743  IntersectionExampleScenario.node[65].veinsmobility  acceleration  ETV
vector 20744  IntersectionExampleScenario.node[65].veinsmobility  co2emission  ETV
vector 20749  IntersectionExampleScenario.node[66].veinsmobility  speed  ETV
vector 20754  IntersectionExampleScenario.node[67].veinsmobility  posx  ETV
vector 20755  IntersectionExampleScenario.node[67].veinsmobility  posy  ETV
vector 20750  IntersectionExampleScenario.node[66].veinsmobility  acceleration  ETV
vector 20751  IntersectionExampleScenario.node[66].veinsmobility  co2emission  ETV
vector 20756  IntersectionExampleScenario.node[67].veinsmobility  speed  ETV
vector 20757  IntersectionExampleScenario.node[67].veinsmobility  acceleration  ETV
vector 20758  IntersectionExampleScenario.node[67].veinsmobility  co2emission  ETV
vector 20761  IntersectionExampleScenario.node[68].veinsmobility  posx  ETV
vector 20762  IntersectionExampleScenario.node[68].veinsmobility  posy  ETV
vector 20763  IntersectionExampleScenario.node[68].veinsmobility  speed  ETV
vector 20764  IntersectionExampleScenario.node[68].veinsmobility  acceleration  ETV
vector 20765  IntersectionExampleScenario.node[68].veinsmobility  co2emission  ETV
20611	2067736 9959 15183 22600 192 276.5 339 0.973 11.450879080643 699.01442240935 2959.4407670658
20610	2077695 8827 15183 22600 192 276.5 339 -7.3439340591431 4 37.32285118103 471.71975753043
20609	2086522 9260 15158 22600 191.75 276.5 340 0 15.375 2212.9979789257 30954.471572816
20608	2095782 11935 15133 22600 191.5 276.5 341 486.85000610352 486.85000610352 166015.8520813 80824818.599061
20607	2107717 11920 15133 22600 191.5 276.5 341 236.18798828125 785.82187652588 173541.23455048 92566545.338174
vector 20768  IntersectionExampleScenario.node[69].veinsmobility  posx  ETV
vector 20769  IntersectionExampleScenario.node[69].veinsmobility  posy  ETV
vector 20770  IntersectionExampleScenario.node[69].veinsmobility  speed  ETV
vector 20771  IntersectionExampleScenario.node[69].veinsmobility  acceleration  ETV
vector 20772  IntersectionExampleScenario.node[69].veinsmobility  co2emission  ETV
vector 20775  IntersectionExampleScenario.node[70].veinsmobility  posx  ETV
vector 20776  IntersectionExampleScenario.node[70].veinsmobility  posy  ETV
vector 20777  IntersectionExampleScenario.node[70].veinsmobility  speed  ETV
vector 20778  IntersectionExampleScenario.node[70].veinsmobility  acceleration  ETV
vector 20779  IntersectionExampleScenario.node[70].veinsmobility  co2emission  ETV
vector 20782  IntersectionExampleScenario.node[71].veinsmobility  posx  ETV
vector 20783  IntersectionExampleScenario.node[71].veinsmobility  posy  ETV
20618	2120593 10701 15362 22892 193.75 279.75 345 0.973 10.756497587458 686.33423268584 2586.0012568653
20617	2131294 10132 15362 22892 193.75 279.75 345 -4.5 2.5 34.267293930054 386.74586982584
20616	2141426 10552 15335 22892 193.5 279.75 346 0 14.39999961853 2292.1653521201 30320.511211976
20615	2151978 12147 15308 22892 193.25 279.75 347 486.85000610352 486.85000610352 168936.95211792 82246956.169719
20614	2164125 12122 15308 22892 193.25 279.75 347 236.07531738281 805.05782318115 179378.87097931 97612249.894545
vector 20784  IntersectionExampleScenario.node[71].veinsmobility  speed  ETV
vector 20785  IntersectionExampleScenario.node[71].veinsmobility  acceleration  ETV
vector 20786  IntersectionExampleScenario.node[71].veinsmobility  co2emission  ETV
20688	2176494 7014 18992 23067 227.25 281.5 218 0.973 11.200708441096 559.17808408322 2647.0409143875
20687	2183508 7143 18992 23067 227.25 281.5 218 -3.8074862957001 2.5000009536743 36.304327011108 310.09810185681
20686	2190651 7401 18965 23067 227 281.5 219 0 15.02499961853 2209.2465351745 28361.859803537
20685	2198052 7691 18938 23067 226.75 281.5 220 236.73608398438 486.85000610352 98411.906005859 45128129.715853
20684	2205743 7680 18938 23067 226.75 281.5 220 483.14999389648 785.82187652588 122940.00852203 70626382.812242
vector 20789  IntersectionExampleScenario.node[72].veinsmobility  posx  ETV
vector 20790  IntersectionExampleScenario.node[72].veinsmobility  posy  ETV
vector 20791  IntersectionExampleScenario.node[72].veinsmobility  speed  ETV
vector 20796  IntersectionExampleScenario.node[73].veinsmobility  posx  ETV
vector 20797  IntersectionExampleScenario.node[73].veinsmobility  posy  ETV
vector 20792  IntersectionExampleScenario.node[72].veinsmobility  acceleration  ETV
vector 20793  IntersectionExampleScenario.node[72].veinsmobility  co2emission  ETV
vector 20798  IntersectionExampleScenario.node[73].veinsmobility  speed  ETV
vector 20799  IntersectionExampleScenario.node[73].veinsmobility  acceleration  ETV
vector 20800  IntersectionExampleScenario.node[73].veinsmobility  co2emission  ETV
20695	2214225 7114 19149 23258 228.75 283.25 219 0.973 11.200708441096 581.61387009471 2673.4218673962
20694	2221339 7074 19149 23258 228.75 283.25 219 -4.5 2.5 37.492597579956 356.75554593372
20693	2228413 7457 19122 23258 228.5 283.25 220 1.5164046287537 15.075798034668 2286.2720466852 29616.323793475
20692	2235870 7731 19095 23258 228.25 283.25 221 237.31518554688 486.85000610352 99102.334411621 45525658.325731
20691	2243601 7723 19095 23258 228.25 283.25 221 483.13616943359 806.11563110352 125648.17556763 73649743.14789
vector 20803  IntersectionExampleScenario.node[74].veinsmobility  posx  ETV
vector 20804  IntersectionExampleScenario.node[74].veinsmobility  posy  ETV
vector 20805  IntersectionExampleScenario.node[74].veinsmobility  speed  ETV
vector 20806  IntersectionExampleScenario.node[74].veinsmobility  acceleration  ETV
vector 20807  IntersectionExampleScenario.node[74].veinsmobility  co2emission  ETV
20681	2251725 7965 18888 24231 226.25 291.5 262 0.973 12.099024792222 655.36361025536 3297.6376874628
20680	2259690 6977 18888 24231 226.25 291.5 262 -9.2126979827881 4 41.396924972534 521.82273223514
20679	2266667 7497 18863 24231 226 291.5 263 0 16.27499961853 2194.9300296307 32233.511931395
20678	2274164 9208 18838 24231 225.75 291.5 264 184.17810058594 486.85000610352 113073.80255127 50510677.424466
20677	2283372 9236 18838 24231 225.75 291.5 264 239.17236328125 486.85000610352 120646.83181763 56198428.717736
20702	2292608 7754 19763 24634 235 294.75 240 0.973 11.450879080643 593.38707458344 2782.3653747013
20701	2300362 8036 19763 24634 235 294.75 240 -3.9581205844879 2.5 37.492597579956 321.45777639568
20700	2308398 8214 19740 24634 234.75 294.75 241 0 15.375 2208.6619984601 28936.277973998
20699	2316612 8442 19717 24634 234.5 294.75 242 184.17810058594 487.03103637695 101146.69891357 44271078.041534
20698	2325054 8466 19717 24634 234.5 294.75 242 236.28399658203 486.85000610352 109257.85424805 50453827.766193
vector 20810  IntersectionExampleScenario.node[75].veinsmobility  posx  ETV
vector 20811  IntersectionExampleScenario.node[75].veinsmobility  posy  ETV
vector 20812  IntersectionExampleScenario.node[75].veinsmobility  speed  ETV
vector 20813  IntersectionExampleScenario.node[75].veinsmobility  acceleration  ETV
vector 20814  IntersectionExampleScenario.node[75].veinsmobility  co2emission  ETV
vector 20817  IntersectionExampleScenario.node[76].veinsmobility  posx  ETV
vector 20818  IntersectionExampleScenario.node[76].veinsmobility  posy  ETV
vector 20819  IntersectionExampleScenario.node[76].veinsmobility  speed  ETV
vector 20820  IntersectionExampleScenario.node[76].veinsmobility  acceleration  ETV
vector 20821  IntersectionExampleScenario.node[76].veinsmobility  co2emission  ETV
vector 20824  IntersectionExampleScenario.node[77].veinsmobility  posx  ETV
vector 20825  IntersectionExampleScenario.node[77].veinsmobility  posy  ETV
vector 20826  IntersectionExampleScenario.node[77].veinsmobility  speed  ETV
vector 20827  IntersectionExampleScenario.node[77].veinsmobility  acceleration  ETV
vector 20828  IntersectionExampleScenario.node[77].veinsmobility  co2emission  ETV
vector 20831  IntersectionExampleScenario.node[78].veinsmobility  posx  ETV
vector 20832  IntersectionExampleScenario.node[78].veinsmobility  posy  ETV
vector 20833  IntersectionExampleScenario.node[78].veinsmobility  speed  ETV
vector 20834  IntersectionExampleScenario.node[78].veinsmobility  acceleration  ETV
vector 20835  IntersectionExampleScenario.node[78].veinsmobility  co2emission  ETV
vector 20838  IntersectionExampleScenario.node[79].veinsmobility  posx  ETV
vector 20839  IntersectionExampleScenario.node[79].veinsmobility  posy  ETV
vector 20840  IntersectionExampleScenario.node[79].veinsmobility  speed  ETV
vector 20841  IntersectionExampleScenario.node[79].veinsmobility  acceleration  ETV
vector 20842  IntersectionExampleScenario.node[79].veinsmobility  co2emission  ETV
vector 20845  IntersectionExampleScenario.node[80].veinsmobility  posx  ETV
vector 20846  IntersectionExampleScenario.node[80].veinsmobility  posy  ETV
vector 20847  IntersectionExampleScenario.node[80].veinsmobility  speed  ETV
vector 20848  IntersectionExampleScenario.node[80].veinsmobility  acceleration  ETV
vector 20849  IntersectionExampleScenario.node[80].veinsmobility  co2emission  ETV
vector 20852  IntersectionExampleScenario.node[81].veinsmobility  posx  ETV
vector 20853  IntersectionExampleScenario.node[81].veinsmobility  posy  ETV
vector 20854  IntersectionExampleScenario.node[81].veinsmobility  speed  ETV
vector 20855  IntersectionExampleScenario.node[81].veinsmobility  acceleration  ETV
vector 20856  IntersectionExampleScenario.node[81].veinsmobility  co2emission  ETV
vector 20859  IntersectionExampleScenario.node[82].veinsmobility  posx  ETV
vector 20860  IntersectionExampleScenario.node[82].veinsmobility  posy  ETV
vector 20861  IntersectionExampleScenario.node[82].veinsmobility  speed  ETV
vector 20862  IntersectionExampleScenario.node[82].veinsmobility  acceleration  ETV
vector 20863  IntersectionExampleScenario.node[82].veinsmobility  co2emission  ETV
20737	2336728 5381 22263 26760 272.5 312 159 0.97223939240464 11.810082123732 507.90446564047 2852.4636117653
20736	2342109 5061 22263 26760 272.5 312 159 -3.3224391937256 2.5 38.680875778198 281.07744002893
20735	2347170 5263 22248 26760 272.25 312 160 5.6500000953674 15.875 2180.3963637352 31117.976678118
20734	2352433 5629 22233 26760 272 312 161 237.83447265625 483.14999389648 69706.979278564 31091660.187102
20733	2358062 5609 22233 26760 272 312 161 184.17810058594 483.26412963867 64007.387817383 27185758.505355
vector 20866  IntersectionExampleScenario.node[83].veinsmobility  posx  ETV
vector 20867  IntersectionExampleScenario.node[83].veinsmobility  posy  ETV
vector 20868  IntersectionExampleScenario.node[83].veinsmobility  speed  ETV
vector 20869  IntersectionExampleScenario.node[83].veinsmobility  acceleration  ETV
vector 20870  IntersectionExampleScenario.node[83].veinsmobility  co2emission  ETV
20744	2364072 5541 22314 26976 273.25 313.5 162 0.973 11.648172402475 527.92914414341 2944.3646049414
20743	2369613 4995 22314 26976 273.25 313.5 162 -4.5 2.5 38.850629806519 292.471565082
20742	2374608 5478 22295 26976 273 313.5 163 5.6500000953674 15.64999961853 2315.5550012589 33628.755972023
20741	2380086 5740 22278 26976 272.75 313.5 164 483.14999389648 483.14999389648 79236.598999023 38283162.322756
20740	2385826 5709 22278 26976 272.75 313.5 164 161.1796875 734.26902770996 71772.11491394 36070558.959204
vector 20873  IntersectionExampleScenario.node[84].veinsmobility  posx  ETV
vector 20874  IntersectionExampleScenario.node[84].veinsmobility  posy  ETV
vector 20875  IntersectionExampleScenario.node[84].veinsmobility  speed  ETV
vector 20876  IntersectionExampleScenario.node[84].veinsmobility  acceleration  ETV
vector 20877  IntersectionExampleScenario.node[84].veinsmobility  co2emission  ETV
20779	2391936 5692 22800 27880 278.75 320 166 0.973 11.00486315618 475.2267016635 2265.0710971328
20778	2397628 5465 22800 27880 278.75 320 166 -3.6164855957031 2.5 34.94630241394 211.13302047956
20777	2403093 5567 22777 27880 278.5 320 167 5.6500000953674 14.75 2239.1714811325 30720.796038975
20776	2408660 5871 22753 27880 278.25 320 168 483.14999389648 735.19369506836 90187.529205322 49448019.391907
20775	2414531 5872 22753 27880 278.25 320 168 178.00238037109 486.85528564453 66559.530700684 28301039.589592
vector 20880  IntersectionExampleScenario.node[85].veinsmobility  posx  ETV
vector 20881  IntersectionExampleScenario.node[85].veinsmobility  posy  ETV
vector 20882  IntersectionExampleScenario.node[85].veinsmobility  speed  ETV
vector 20883  IntersectionExampleScenario.node[85].veinsmobility  acceleration  ETV
vector 20884  IntersectionExampleScenario.node[85].veinsmobility  co2emission  ETV
20709	2420804 8050 21517 28513 259 324.5 263 0.973 11.36141391502 633.1788406662 2958.3519390258
20708	2428854 7103 21517 28513 259 324.5 263 -6.8879299163818 4 37.492597579956 478.37093904279
20707	2435957 7603 21502 28513 258.75 324.5 264 0 15.25 2181.5676131248 30308.982162233
20706	2443560 9270 21487 28513 258.5 324.5 265 486.63604736328 785.82187652588 144183.07874298 80546836.236156
20705	2452830 9208 21487 28513 258.5 324.5 265 235.78491210938 483.14999389648 119670.43490601 55153283.899552
20723	2462038 8362 21657 28653 261.25 325.5 258 0.973 11.54047740176 625.39527186911 2877.1452487861
20722	2470400 8175 21657 28653 261.25 325.5 258 -4.5 2.5 36.98334312439 426.17030411325
20721	2478575 8363 21640 28653 261 325.5 259 0 15.5 2276.3002107749 31348.013563034
20720	2486938 9070 21623 28653 260.75 325.5 260 238.18640136719 802.70781707764 135454.97854614 75169842.667488
20719	2496008 9100 21623 28653 260.75 325.5 260 483.14999389648 483.14999389648 125618.99841309 60692818.316565
20751	2505108 6965 22333 28955 273.5 327.75 218 0.973 11.90022389248 586.23449655231 3045.6123248085
20750	2512073 7280 22333 28955 273.5 327.75 218 -3.8954420089722 2.5000009536743 39.699392318726 343.32569148314
20749	2519353 7369 22314 28955 273.25 327.75 219 0 16 2210.7879700549 29586.72788362
20748	2526722 7684 22295 28955 273 327.75 220 483.14999389648 785.82187652588 122718.90964508 70342102.035711
20747	2534406 7682 22295 28955 273 327.75 220 483.14999389648 733.50140380859 114548.39712524 60708837.527538
20758	2542088 7308 22375 29303 274 330.5 227 0.95532711077743 11.917427265055 628.19837410167 3176.5766039439
20757	2549396 7444 22375 29303 274 330.5 227 -4.5 2.5 39.699392318726 509.26819945885
20756	2556840 7660 22354 29303 273.75 330.5 228 0 16.023834228516 2282.1386614591 30319.516849392
20755	2564500 8000 22333 29303 273.5 330.5 229 486.79846191406 809.56562805176 130178.60636902 76260872.146248
20754	2572500 8001 22333 29303 273.5 330.5 229 235.98486328125 483.14999389648 102559.32647705 46972401.889227
vector 20887  IntersectionExampleScenario.node[86].veinsmobility  posx  ETV
vector 20888  IntersectionExampleScenario.node[86].veinsmobility  posy  ETV
vector 20889  IntersectionExampleScenario.node[86].veinsmobility  speed  ETV
vector 20890  IntersectionExampleScenario.node[86].veinsmobility  acceleration  ETV
vector 20891  IntersectionExampleScenario.node[86].veinsmobility  co2emission  ETV
20807	2580902 5808 24045 29657 290 333.5 175 0.973 11.36141391502 530.47112883104 2851.4335620043
20806	2586710 5647 24045 29657 290 333.5 175 -3.6163845062256 2.5 37.32285118103 288.81254816835
20805	2592357 5853 24014 29657 289.75 333.5 176 5.6500000953674 15.25 2186.334177494 28771.301841457
20804	2598210 6189 23983 29657 289.5 333.5 177 486.85000610352 785.82187652588 101042.2338028 59454854.908738
20803	2604399 6188 23983 29657 289.5 333.5 177 236.35504150391 483.14999389648 77171.738525391 34623285.054694
vector 20894  IntersectionExampleScenario.node[87].veinsmobility  posx  ETV
vector 20895  IntersectionExampleScenario.node[87].veinsmobility  posy  ETV
vector 20896  IntersectionExampleScenario.node[87].veinsmobility  speed  ETV
vector 20897  IntersectionExampleScenario.node[87].veinsmobility  acceleration  ETV
vector 20898  IntersectionExampleScenario.node[87].veinsmobility  co2emission  ETV
20716	2610988 9526 21623 30457 260.75 340.75 321 0.973 11.200708441096 670.02144376069 2785.2447734014
20715	2620514 8543 21623 30457 260.75 340.75 321 -8.6810245513916 4 36.134572982788 467.99787660457
20714	2629057 8890 21608 30457 260.5 340.75 322 0 15.02499961853 2196.9566392899 30075.092351361
20713	2637947 11304 21592 30457 260.25 340.75 323 237.55419921875 486.85000610352 148595.62255859 69568204.752782
20712	2649251 11292 21592 30457 260.25 340.75 323 483.14999389648 785.82187652588 172995.23377228 94893297.506829
20730	2660543 9077 22155 30566 270.5 342 287 0.973 12.099024792222 676.30051434994 3242.4857575136
20729	2669620 9709 22155 30566 270.5 342 287 -3.9135892391205 2.5 42.250440597534 346.1221231016
20728	2679329 9543 22142 30566 270.25 342 288 0 16.283737182617 2209.3876893548 30123.121466921
20727	2688872 10106 22129 30566 270 342 289 235.75299072266 486.85000610352 132511.60922241 61893633.287069
20726	2698978 10089 22129 30566 270 342 289 482.99743652344 785.82187652588 156986.74993134 87312906.529563
vector 20901  IntersectionExampleScenario.node[88].veinsmobility  posx  ETV
vector 20902  IntersectionExampleScenario.node[88].veinsmobility  posy  ETV
vector 20903  IntersectionExampleScenario.node[88].veinsmobility  speed  ETV
vector 20908  IntersectionExampleScenario.node[89].veinsmobility  posx  ETV
vector 20909  IntersectionExampleScenario.node[89].veinsmobility  posy  ETV
vector 20904  IntersectionExampleScenario.node[88].veinsmobility  acceleration  ETV
vector 20905  IntersectionExampleScenario.node[88].veinsmobility  co2emission  ETV
vector 20910  IntersectionExampleScenario.node[89].veinsmobility  speed  ETV
vector 20911  IntersectionExampleScenario.node[89].veinsmobility  acceleration  ETV
vector 20912  IntersectionExampleScenario.node[89].veinsmobility  co2emission  ETV
20772	2709869 8561 22730 30789 278 344.5 267 0.973 11.648172402475 639.38800688889 3028.1967364831
20771	2718430 8762 22730 30789 278 344.5 267 -3.8876919746399 2.5 39.699392318726 343.15271510669
20770	2727192 9074 22707 30789 277.75 344.5 268 0 15.64999961853 2206.8760599848 28877.421906521
20769	2736266 9406 22684 30789 277.5 344.5 269 237.17095947266 486.85000610352 122744.06027222 57122393.9237
20768	2745672 9398 22684 30789 277.5 344.5 269 483.14999389648 785.82187652588 148118.10614777 83531957.872244
vector 20915  IntersectionExampleScenario.node[90].veinsmobility  posx  ETV
vector 20916  IntersectionExampleScenario.node[90].veinsmobility  posy  ETV
vector 20917  IntersectionExampleScenario.node[90].veinsmobility  speed  ETV
20793	2755302 8258 23171 30970 282.5 346.5 257 0.94600815583079 12.26218747632 647.66911182467 3320.3943639072
20792	2763560 8549 23171 30970 282.5 346.5 257 -4.5 2.5000019073486 41.566686630249 458.59428216057
20791	2772109 8667 23144 30970 282.25 346.5 258 0 16.5 2083.9562343862 27622.70640649
20790	2780776 9057 23117 30970 282 346.5 259 486.85000610352 733.09994506836 133894.67268372 70258062.870043
20789	2789833 9038 23117 30970 282 346.5 259 486.80319213867 761.15078735352 142014.88484192 79342494.236938
vector 20918  IntersectionExampleScenario.node[90].veinsmobility  acceleration  ETV
vector 20919  IntersectionExampleScenario.node[90].veinsmobility  co2emission  ETV
vector 20922  IntersectionExampleScenario.node[91].veinsmobility  posx  ETV
vector 20923  IntersectionExampleScenario.node[91].veinsmobility  posy  ETV
vector 20924  IntersectionExampleScenario.node[91].veinsmobility  speed  ETV
vector 20925  IntersectionExampleScenario.node[91].veinsmobility  acceleration  ETV
vector 20926  IntersectionExampleScenario.node[91].veinsmobility  co2emission  ETV
20786	2799441 8942 22942 31153 280.25 348.5 274 0.973 11.90022389248 701.98797650827 3449.2767725144
20785	2808383 9063 22942 31153 280.25 348.5 274 -4.5 2.5 40.038900375366 527.19514481589
20784	2817446 9351 22917 31153 280 348.5 275 0 16 2283.8027362786 29032.871582402
20783	2826797 9650 22892 31153 279.75 348.5 276 235.20092773438 486.85000610352 126070.81323242 58727123.944418
20782	2836447 9640 22892 31153 279.75 348.5 276 483.14999389648 802.70781707764 156097.0351181 90673854.66274
20814	2846087 6582 25317 31452 300.75 351.75 205 0.973 11.200708441096 547.10804792986 2642.9258093718
20813	2852669 6675 25317 31452 300.75 351.75 205 -3.4345970153809 2.5000009536743 35.795072555542 311.56415565026
20812	2859344 6935 25288 31452 300.5 351.75 206 2.1725425720215 15.02499961853 2209.9182562828 27670.273459248
20811	2866279 7235 25259 31452 300.25 351.75 207 236.06524658203 486.85000610352 91970.298095703 41960969.841848
20810	2873514 7230 25259 31452 300.25 351.75 207 483.12191772461 785.82187652588 117204.68875885 68215937.43625
vector 20929  IntersectionExampleScenario.node[92].veinsmobility  posx  ETV
vector 20930  IntersectionExampleScenario.node[92].veinsmobility  posy  ETV
vector 20931  IntersectionExampleScenario.node[92].veinsmobility  speed  ETV
vector 20932  IntersectionExampleScenario.node[92].veinsmobility  acceleration  ETV
vector 20933  IntersectionExampleScenario.node[92].veinsmobility  co2emission  ETV
20842	2881145 5785 26173 31548 307.75 352.75 181 0.973 11.885978066947 558.26427286558 3000.6181823433
20841	2886930 6022 26173 31548 307.75 352.75 181 -3.787525177002 2.5000019073486 41.321031570435 300.05455080235
20840	2892952 6088 26139 31548 307.5 352.75 182 4.5588979721069 16.007404327393 2205.4787917137 29204.05372618
20839	2899040 6364 26104 31548 307.25 352.75 183 238.23901367188 486.85000610352 80855.92678833 36724607.727014
20838	2905404 6400 26104 31548 307.25 352.75 183 483.14999389648 785.82187652588 104132.93946075 61043115.749887
20870	2911804 5468 26939 31773 313.25 355 168 0.973 12.099024792222 543.30956759989 3287.6444387617
20869	2917272 5378 26939 31773 313.25 355 168 -3.1512641906738 2.5 40.038900375366 314.0922788558
20868	2922650 5575 26902 31773 313 355 169 5.6500000953674 16.27499961853 2178.509683609 29680.125524
20867	2928225 5939 26865 31773 312.75 355 170 486.85000610352 731.65229797363 90651.881393433 49255207.882546
20866	2934164 5939 26865 31773 312.75 355 170 486.82205200195 785.82187652588 97278.98525238 57402217.601018
20765	2940103 9639 22463 31945 275 356.75 328 0.973 12.099024792222 711.03254685834 3184.9896606528
20764	2949742 8918 22463 31945 275 356.75 328 -7.8777389526367 4 40.038900375366 490.76508078802
20763	2958660 9170 22440 31945 274.75 356.75 329 0 16.27499961853 2211.2420804501 31731.438298948
20762	2967830 11525 22417 31945 274.5 356.75 330 184.17810058594 732.85949707031 152084.7308197 74190113.441856
20761	2979355 11551 22417 31945 274.5 356.75 330 486.85000610352 486.85000610352 160660.50201416 78217566.386188
20800	2990906 9480 23229 32055 283 358 301 0.973 11.36141391502 649.27767160881 2833.5585275607
20799	3000386 9806 23229 32055 283 358 301 -3.9036800861359 2.5 36.98334312439 331.44449548691
20798	3010192 9699 23200 32055 282.75 358 302 0 15.25 2182.0340143573 28260.681445771
20797	3019891 10554 23171 32055 282.5 358 303 184.17810058594 483.14999389648 129207.80053711 57176514.683475
20796	3030445 10598 23171 32055 282.5 358 303 486.85000610352 732.63188171387 155837.46490479 81281780.46377
20828	3041043 6992 25753 32118 304.5 358.75 218 0.973 12.099024792222 599.42549651611 3192.1261808922
20827	3048035 7276 25753 32118 304.5 358.75 218 -3.8137180805206 2.5 41.227170944214 349.97613924221
[...]
23634	19500066 5086 178658 184489 1723.5 1762.25 156 -2.9061431884766 2.5 37.32285118103 179.22973772633
23633	19505152 5574 178625 184489 1723.25 1762.25 157 5.6500000953674 15.5 2216.5902757645 31875.991883042
23632	19510726 5845 178592 184489 1723 1762.25 158 486.85000610352 486.85000610352 76922.300964355 37449622.693993
23631	19516571 5834 178592 184489 1723 1762.25 158 236.77197265625 785.82187652588 82351.454399109 47114349.676633
vector 23708  IntersectionExampleScenario.node[489].veinsmobility  posx  ETV
vector 23709  IntersectionExampleScenario.node[489].veinsmobility  posy  ETV
vector 23710  IntersectionExampleScenario.node[489].veinsmobility  speed  ETV
vector 23711  IntersectionExampleScenario.node[489].veinsmobility  acceleration  ETV
vector 23712  IntersectionExampleScenario.node[489].veinsmobility  co2emission  ETV
23537	19522811 11357 171881 184845 1675.25 1765.25 361 0.973 11.200708441096 719.39314189324 2853.364890103
23536	19534168 9868 171881 184845 1675.25 1765.25 361 -24.02628326416 4 35.795072555542 971.45976643707
23535	19544036 10483 171846 184845 1675 1765.25 362 0 15.02499961853 2299.9783639908 31790.428569796
23534	19554519 13405 171811 184845 1674.75 1765.25 363 161.66796875 486.85000610352 157209.86639404 70873323.315695
23533	19567924 13422 171811 184845 1674.75 1765.25 363 235.04376220703 486.85000610352 167849.1022644 78886298.732069
vector 23715  IntersectionExampleScenario.node[490].veinsmobility  posx  ETV
vector 23716  IntersectionExampleScenario.node[490].veinsmobility  posy  ETV
vector 23717  IntersectionExampleScenario.node[490].veinsmobility  speed  ETV
vector 23718  IntersectionExampleScenario.node[490].veinsmobility  acceleration  ETV
vector 23719  IntersectionExampleScenario.node[490].veinsmobility  co2emission  ETV
23544	19581752 11374 172761 185095 1681.5 1767.5 345 0.973 10.756497587458 664.41363856083 2501.3957221833
23543	19593126 11434 172761 185095 1681.5 1767.5 345 -3.8912324905396 2.5 32.569761276245 317.00786119275
23542	19604560 11377 172724 185095 1681.25 1767.5 346 0 14.39999961853 2188.6450039838 27042.129324416
23541	19615937 12808 172687 185095 1681 1767.5 347 184.17810058594 483.14999389648 149386.16589355 66515731.426838
23540	19628745 12818 172687 185095 1681 1767.5 347 486.85000610352 734.64196777344 178036.33688354 92609781.492146
23551	19641563 11611 172913 185150 1682.5 1768 343 0.973 11.00486315618 721.58399874704 2847.4748862556
23550	19653174 12050 172913 185150 1682.5 1768 343 -4.5 2.5000009536743 38.680875778198 428.85584006367
23549	19665224 11969 172874 185150 1682.25 1768 344 0 15.384321212769 2292.9497088576 30074.932892054
23548	19677193 12707 172835 185150 1682 1768 345 162.00311279297 486.85000610352 145618.68182373 63975470.277898
23547	19689900 12749 172835 185150 1682 1768 345 237.25805664062 486.85000610352 159617.99020386 75033548.747109
vector 23722  IntersectionExampleScenario.node[491].veinsmobility  posx  ETV
vector 23723  IntersectionExampleScenario.node[491].veinsmobility  posy  ETV
vector 23724  IntersectionExampleScenario.node[491].veinsmobility  speed  ETV
vector 23725  IntersectionExampleScenario.node[491].veinsmobility  acceleration  ETV
vector 23726  IntersectionExampleScenario.node[491].veinsmobility  co2emission  ETV
23558	19703055 12157 173151 185485 1684 1771 349 0.973 10.47384764672 735.33248122287 2837.8701688629
23557	19715212 12427 173151 185485 1684 1771 349 -4.5 2.5 37.32285118103 451.9373236898
23556	19727639 12594 173110 185485 1683.75 1771 350 0 15.074981689453 2307.3469189601 29191.576788828
23555	19740233 12943 173069 185485 1683.5 1771 351 152.796875 483.14999389648 145589.01596069 62993920.204351
23554	19753176 12975 173069 185485 1683.5 1771 351 486.85000610352 732.736328125 179205.30892944 92654165.508843
23565	19766151 11826 173759 185620 1688 1772.25 338 0.973 11.54047740176 710.84758505959 2960.4112465641
23564	19777977 12178 173759 185620 1688 1772.25 338 -4.5 2.5000001192093 37.32285118103 434.98160710676
23563	19790155 12284 173720 185620 1687.75 1772.25 339 0 15.5 2309.1076265108 29282.189404102
23562	19802439 12543 173681 185620 1687.5 1772.25 340 162.27947998047 734.66548156738 148671.33843994 69788383.591598
23561	19814982 12580 173681 185620 1687.5 1772.25 340 486.85000610352 486.85003662109 165529.00210571 80587795.700333
23593	19827562 10443 175215 185771 1698 1773.75 304 0.973 12.099024792222 731.2730892749 3629.5422104241
23592	19838005 10599 175215 185771 1698 1773.75 304 -4.695011138916 2.5 41.396924972534 545.87410753711
23591	19848604 10842 175176 185771 1697.75 1773.75 305 0 16.27499961853 2208.9562978111 28565.993888014
23590	19859446 11284 175137 185771 1697.5 1773.75 306 184.17810058594 487.05206298828 126417.83694458 54113023.680257
23589	19870730 11318 175137 185771 1697.5 1773.75 306 237.00042724609 486.85006713867 140947.92498779 66045560.541698
vector 23729  IntersectionExampleScenario.node[492].veinsmobility  posx  ETV
vector 23730  IntersectionExampleScenario.node[492].veinsmobility  posy  ETV
23600	19882204 10240 175755 186006 1701.5 1776.25 300 0.973 11.54047740176 689.96892864224 3171.9546690982
23599	19892444 10408 175755 186006 1701.5 1776.25 300 -4.5 2.5000019073486 37.15309715271 627.84262091969
23598	19902852 10349 175717 186006 1701.25 1776.25 301 0 15.5 2258.7258076854 29487.621488251
23597	19913201 11108 175678 186006 1701 1776.25 302 174.53436279297 734.22309875488 131699.04042053 61917553.061683
23596	19924309 11173 175678 186006 1701 1776.25 302 486.85000610352 486.85003662109 147028.70339966 71580925.905247
vector 23731  IntersectionExampleScenario.node[492].veinsmobility  speed  ETV
vector 23732  IntersectionExampleScenario.node[492].veinsmobility  acceleration  ETV
vector 23733  IntersectionExampleScenario.node[492].veinsmobility  co2emission  ETV
23621	19935732 9162 177443 186270 1713.75 1779 262 0.97223939240464 11.810082123732 704.97929374221 3710.1656199634
23620	19944894 8983 177443 186270 1713.75 1779 262 -4.5 2.5 38.680875778198 583.44826400935
23619	19953877 9399 177410 186270 1713.5 1779 263 0 15.875 2190.270792 28367.509547403
23618	19963276 9731 177376 186270 1713.25 1779 264 184.17810058594 483.14999389648 107294.31710815 45397053.83024
23617	19973007 9763 177376 186270 1713.25 1779 264 486.84997558594 735.14199829102 136796.61320496 71989410.355056
23579	19982770 10459 174877 186339 1695.75 1779.75 337 0.973 12.099024792222 725.23490190656 3430.6117891657
23578	19993229 9696 174877 186339 1695.75 1779.75 337 -8.5540523529053 4 40.378400802612 517.18576081106
23577	20002925 9740 174840 186339 1695.5 1779.75 338 0 16.27499961853 2172.469922781 31349.186625399
23576	20012665 12477 174803 186339 1695.25 1779.75 339 238.07672119141 483.14999389648 155926.39190674 72816393.820066
23575	20025142 12519 174803 186339 1695.25 1779.75 339 184.17810058594 483.36395263672 148110.26281738 66886375.120039
vector 23736  IntersectionExampleScenario.node[493].veinsmobility  posx  ETV
vector 23737  IntersectionExampleScenario.node[493].veinsmobility  posy  ETV
vector 23738  IntersectionExampleScenario.node[493].veinsmobility  speed  ETV
vector 23739  IntersectionExampleScenario.node[493].veinsmobility  acceleration  ETV
vector 23740  IntersectionExampleScenario.node[493].veinsmobility  co2emission  ETV
23586	20038067 11465 175026 186642 1696.75 1783 346 0.973 10.480555824983 675.56797323893 2373.6194630738
23585	20049532 11195 175026 186642 1696.75 1783 346 -4.075553894043 2.5 32.909269332886 336.29979065687
23584	20060727 11436 174989 186642 1696.5 1783 347 0 14.00951385498 2306.0814388199 29521.410511226
23583	20072163 12876 174951 186642 1696.25 1783 348 483.14999389648 483.14999389648 168136.19787598 81235002.977556
23582	20085039 12845 174951 186642 1696.25 1783 348 162.00311279297 734.41299438477 157178.71638489 76104772.592568
23614	20097884 9783 177078 186692 1711 1783.5 291 0.973 12.099024792222 667.22985696046 3249.6082578502
23613	20107667 10202 177078 186692 1711 1783.5 291 -3.9336891174316 2.5000019073486 40.038900375366 352.34834909144
23612	20117869 10210 177043 186692 1710.75 1783.5 292 0 16.27499961853 2212.7403868651 29713.30448608
23611	20128079 10829 177008 186692 1710.5 1783.5 293 483.14999389648 734.1789855957 149820.09634399 77755064.986375
23610	20138908 10800 177008 186692 1710.5 1783.5 293 184.17810058594 486.85000610352 124206.50527954 54650067.73251
vector 23743  IntersectionExampleScenario.node[494].veinsmobility  posx  ETV
vector 23744  IntersectionExampleScenario.node[494].veinsmobility  posy  ETV
vector 23745  IntersectionExampleScenario.node[494].veinsmobility  speed  ETV
23628	20149943 8861 178220 186869 1720 1785.25 262 0.973 12.099024792222 641.52650535241 3030.4086131519
23627	20158804 9331 178220 186869 1720 1785.25 262 -3.7991449832916 2.5 41.057416915894 335.88080709951
23626	20168135 9511 178189 186869 1719.75 1785.25 263 0 16.27499961853 2217.6982185822 29533.727792402
23625	20177646 9768 178158 186869 1719.5 1785.25 264 483.14999389648 483.14999389648 127551.59838867 61626553.982973
23624	20187414 9732 178158 186869 1719.5 1785.25 264 184.17810058594 733.31188964844 117843.56129456 56670579.517814
vector 23746  IntersectionExampleScenario.node[494].veinsmobility  acceleration  ETV
vector 23747  IntersectionExampleScenario.node[494].veinsmobility  co2emission  ETV
23691	20197317 6630 181456 187382 1742.5 1790 191 0.973 10.916047529558 545.9096819563 2735.821262967
23690	20203947 6567 181456 187382 1742.5 1790 191 -3.5286502838135 2.5 34.267293930054 355.1240347903
23689	20210514 6788 181413 187382 1742.25 1790 192 4.4204468727112 14.625 2190.2021164894 27253.517258006
23688	20217302 7136 181370 187382 1742 1790 193 234.99676513672 483.14999389648 84377.863616943 37946929.230254
23687	20224438 7105 181370 187382 1742 1790 193 184.17810058594 483.14999389648 77478.409210205 32937815.713449
23698	20231543 6697 181718 187517 1744 1791.25 190 0.973 11.609524298633 576.54013891068 2882.4471797383
23697	20238240 6724 181718 187517 1744 1791.25 190 -4.5 2.5 39.466382980347 372.68486047252
23696	20244964 6782 181673 187517 1743.75 1791.25 191 4.735659122467 15.596200942993 2265.9066848755 29611.040825563
23695	20251746 7103 181628 187517 1743.5 1791.25 192 236.76678466797 483.14999389648 84412.882659912 38123192.49439
23694	20258849 7082 181628 187517 1743.5 1791.25 192 163.88433837891 483.14999389648 75617.491424561 31890659.304755
23705	20265931 5662 183288 187868 1753.5 1794.5 165 0.973 11.36141391502 513.06866295673 3012.7386573772
23704	20271593 5715 183288 187868 1753.5 1794.5 165 -3.1261367797852 2.5 36.98334312439 276.92680056568
23703	20277308 5820 183249 187868 1753.25 1794.5 166 5.6500000953674 15.25 2185.5436267853 29961.525326049
23702	20283128 6071 183210 187868 1753 1794.5 167 236.41668701172 483.14999389648 72293.24597168 32250180.415379
23701	20289199 6151 183210 187868 1753 1794.5 167 184.17810058594 483.14999389648 66430.890045166 28195136.429271
vector 23750  IntersectionExampleScenario.node[495].veinsmobility  posx  ETV
vector 23751  IntersectionExampleScenario.node[495].veinsmobility  posy  ETV
vector 23752  IntersectionExampleScenario.node[495].veinsmobility  speed  ETV
vector 23757  IntersectionExampleScenario.node[496].veinsmobility  posx  ETV
vector 23758  IntersectionExampleScenario.node[496].veinsmobility  posy  ETV
vector 23753  IntersectionExampleScenario.node[495].veinsmobility  acceleration  ETV
vector 23754  IntersectionExampleScenario.node[495].veinsmobility  co2emission  ETV
vector 23759  IntersectionExampleScenario.node[496].veinsmobility  speed  ETV
vector 23760  IntersectionExampleScenario.node[496].veinsmobility  acceleration  ETV
vector 23761  IntersectionExampleScenario.node[496].veinsmobility  co2emission  ETV
23642	20296162 8921 178728 188471 1724 1800 305 0.973 11.200708441096 497.1290892716 1813.5360954854
23641	20305083 9280 178728 188471 1724 1800 305 -6.6061697006226 2.5 -22.60000038147 372.1984147069
23640	20314363 9241 178693 188471 1723.75 1800 306 0 15.02499961853 1145.9146118462 12174.704688108
23639	20323604 11310 178658 188471 1723.5 1800 307 184.17810058594 471.60000610352 127382.88949585 54824384.302902
23638	20334914 11358 178658 188471 1723.5 1800 307 486.85000610352 486.85000610352 149462.95187378 72766039.031999
23649	20346272 8870 179222 188471 1727.5 1800 291 0.973 11.200708441096 583.96055142201 2580.9142705241
23648	20355142 7891 179222 188471 1727.5 1800 291 -7.9503145217896 4 36.022909164429 459.31745123693
23647	20363033 8164 179185 188471 1727.25 1800 292 0 15.02499961853 1473.0142383575 19408.23794666
23646	20371197 10839 179148 188471 1727 1800 293 424.81610107422 486.85000610352 142023.86428833 68865570.824218
23645	20382036 10828 179148 188471 1727 1800 293 483.14999389648 792.02188110352 159373.44264221 88924375.633567
23656	20392864 8685 179411 188471 1728.75 1800 286 0.973 11.200708441096 469.91719413786 1656.3787596983
23655	20401549 8831 179411 188471 1728.75 1800 286 -4.5 2.5 -22.60000038147 384.77723822867
23654	20410380 8835 179372 188471 1728.5 1800 287 0 15.02499961853 1120.2983650137 11650.201602291
23653	20419215 10618 179333 188471 1728.25 1800 288 184.17810058594 465.20327758789 117717.59899902 49966321.389013
23652	20429833 10656 179333 188471 1728.25 1800 288 486.85000610352 486.85000610352 140212.80175781 68262603.391582
23663	20440489 8238 180387 188471 1735.5 1800 259 0.973 10.756497587458 432.44897576822 1492.4801436347
23662	20448727 8827 180387 188471 1735.5 1800 259 -4.5 2.5 -22.60000038147 310.79887327275
23661	20457554 8773 180352 188471 1735.25 1800 260 0 14.39999961853 1094.9848165559 11342.319079215
23660	20466327 9622 180317 188471 1735 1800 261 184.17810058594 458.80514526367 105031.89569092 43975374.267314
23659	20475949 9655 180317 188471 1735 1800 261 486.85000610352 486.85000610352 127067.85159302 61862984.323621
23670	20485604 8446 180776 188471 1738.25 1800 248 0.973 9.9768088598003 430.15669958169 1405.7383405151
23669	20494050 9082 180776 188471 1738.25 1800 248 -4.5 2.5 -22.411106109619 409.45726613758
23668	20503132 9153 180739 188471 1738 1800 249 0 14.641474723816 1100.6061181333 10575.419484792
23667	20512285 9210 180702 188471 1737.75 1800 250 169.95465087891 445.87185668945 95065.259460449 37990992.896188
23666	20521495 9249 180702 188471 1737.75 1800 250 486.85000610352 486.85000610352 121712.50152588 59255732.110748
23677	20530744 8032 180891 188471 1739 1800 245 0.973 10.756497587458 414.56877206558 1432.4653923687
23676	20538776 8844 180891 188471 1739 1800 245 -4.0694446563721 2.5 -22.60000038147 273.42463014992
23675	20547620 8825 180852 188471 1738.75 1800 246 0 15.077464103699 1027.399972206 9897.5076588468
23674	20556445 9090 180813 188471 1738.5 1800 247 194.42419433594 452.4069519043 98052.568481445 40330944.962543
23673	20565535 9138 180813 188471 1738.5 1800 247 486.85000610352 486.85000610352 120251.95150757 58544663.325419
23684	20574673 7775 181247 188471 1741.25 1800 236 0.973 11.200708441096 482.92930079766 2042.2710441063
23683	20582448 8313 181247 188471 1741.25 1800 236 -3.8792238235474 2.5 26.39999961853 290.81562705492
23682	20590761 8175 181206 188471 1741 1800 237 0 15.02499961853 1305.7066647094 15358.762686286
23681	20598936 8804 181165 188471 1740.75 1800 238 460.54983520508 486.85000610352 115706.95037842 56255183.078345
23680	20607740 8737 181165 188471 1740.75 1800 238 482.90621948242 785.82187652588 132943.14151764 76087475.027351
23712	20616477 4670 184610 188471 1763.25 1800 148 0.973 11.648172402475 321.06158182256 1494.6586764391
23711	20621147 4463 184610 188471 1763.25 1800 148 -7.4922709465027 2.5 -22.60000038147 324.91068598411
23710	20625610 4640 184579 188471 1763 1800 149 0 15.64999961853 1146.8507205248 16064.522879695
23709	20630250 5549 184548 188471 1762.75 1800 150 483.14999389648 483.14999389648 72472.499084473 35015087.490326
23708	20635799 5521 184548 188471 1762.75 1800 150 184.17810058594 471.60000610352 57891.735565186 23864058.766462
23719	20641320 4323 185095 188471 1767.5 1800 131 0.973 11.200708441096 357.55542872031 1808.9139462376
23718	20645643 4653 185095 188471 1767.5 1800 131 -4.1743354797363 2.5000009536743 21.39999961853 318.48496538573
23717	20650296 4827 185066 188471 1767.25 1800 132 0.84015423059464 15.02499961853 1221.819470346 14482.215535257
23716	20655123 4919 185037 188471 1767 1800 133 486.85000610352 486.85000610352 64751.050811768 31524049.482918
23715	20660042 4907 185037 188471 1767 1800 133 483.91497802734 785.82187652588 80371.31754303 49773627.075265
23726	20664949 4033 185235 188471 1768.75 1800 126 0.973 11.200708441096 272.36198485183 1284.9476454562
23725	20668982 4686 185235 188471 1768.75 1800 126 -3.7651052474976 2.5 -22.349632740021 181.7714007733
23724	20673668 4670 185206 188471 1768.5 1800 127 0 15.02499961853 1016.2211294509 12215.13831656
23723	20678338 4701 185177 188471 1768.25 1800 128 184.17810058594 438.4319152832 45138.86541748 16875453.427759
23722	20683039 4736 185177 188471 1768.25 1800 128 486.84997558594 486.85003662109 62316.800872803 30338934.929848
23733	20687775 3062 186056 188471 1776.75 1800 94 0.973 12.099024792222 265.98924593215 1551.4111272905
23732	20690837 3394 186056 188471 1776.75 1800 94 -2.1821899414062 2.5 -11.326889038086 187.45596546256
23731	20694231 3490 186031 188471 1776.5 1800 95 2.8182778358459 16.27499961853 1086.274330616 14501.847619357
23730	20697721 3552 186006 188471 1776.25 1800 96 483.14999389648 483.14999389648 46382.399414062 22409655.993809
23729	20701273 3524 186006 188471 1776.25 1800 96 184.17810058594 454.88845825195 32190.296173096 11593365.850135
23740	20704797 2372 186642 188471 1783 1800 69 0.973 11.648172402475 225.73156378428 1371.4951872803
23739	20707169 2395 186642 188471 1783 1800 69 -2.562385559082 2.5 10.603033065796 157.74859189656
23738	20709564 2574 186617 188471 1782.75 1800 70 5.6500000953674 15.64999961853 897.34556865692 12102.668356261
23737	20712138 2626 186592 188471 1782.5 1800 71 483.14999389648 483.14999389648 34303.64956665 16573808.078754
23736	20714764 2603 186592 188471 1782.5 1800 71 184.17810058594 405.99664306641 20824.993041992 6474774.0390839
23747	20717367 2113 186896 188471 1785.5 1800 59 0.973 11.648172402475 223.47599912408 1391.449786913
23746	20719480 2076 186896 188471 1785.5 1800 59 -4.5 2.5 29.982824325562 130.08932101133
23745	20721556 2204 186869 188471 1785.25 1800 60 5.6500000953674 16.008636474609 853.95143127441 12637.830656127
23744	20723760 2255 186842 188471 1785 1800 61 483.14999389648 483.14999389648 29472.149627686 14239468.912733
23743	20726015 2239 186842 188471 1785 1800 61 168.58435058594 377.55438232422 16049.888946533 4487520.5728507
23754	20728254 441 188162 188471 1797.25 1800 12 5.2162187258585 9.8772939209111 90.329754123875 705.60800469607
23753	20728695 312 188162 188471 1797.25 1800 12 2.4999980926514 2.5 29.999998092651 74.99999046326
23752	20729007 473 188135 188471 1797 1800 13 5.6500000953674 13.14999961853 122.19999694824 1219.7736818981
23751	20729480 517 188108 188471 1796.75 1800 14 759.49688720703 785.82187652588 10852.737617493 8414003.5481247
23750	20729997 517 188108 188471 1796.75 1800 14 483.14999389648 483.14999389648 6764.0999145508 3268074.8324304
23761	20730514 367 188220 188471 1797.75 1800 10 2.4151396310629 8.1519697732254 60.95549525335 396.15266028948
23760	20730881 286 188220 188471 1797.75 1800 10 0.26122283935547 2.5 21.522443771362 51.658910885573
23759	20731167 404 188191 188471 1797.5 1800 11 5.6500000953674 11.030611038208 95.095914840698 857.73211732412
23758	20731571 443 188162 188471 1797.25 1800 12 789.2606048584 809.56562805176 9615.6857070923 7705652.3434528
23757	20732014 444 188162 188471 1797.25 1800 12 483.14999389648 483.14999389648 5797.7999267578 2801206.9992261
20281	20732458 637 0 188470 0 1800 31 0 27 508 9050
20282	20733095 652 0 188470 0 1800 31 0 223 3240 473742
