file 15458266 1591472759                                        
version 2
run nodebug-14-20200606-15:43:45-20656
attr configname nodebug
attr datetime 20200606-15:43:45
attr experiment nodebug
attr inifile omnetpp.ini
attr iterationvars ""
attr iterationvars2 $repetition=14
attr measurement ""
attr network "\"org.car2x.veins.modules.application.ExtTraCIScenarioManagerLaunchd.IntersectionExampleScenario\""
attr processid 20656
attr repetition 14
attr replication #14
attr resultdir results
attr runnumber 14
attr seedset 14
param **.coreDebug false
param **.debug false
param *.**.nic.mac1609_4.bitrate 18Mbps
param *.**.nic.mac1609_4.txPower 20mW
param *.**.nic.mac1609_4.useServiceChannel false
param *.**.nic.phy80211p.analogueModels "xmldoc(\"config.xml\")"
param *.**.nic.phy80211p.decider "xmldoc(\"config.xml\")"
param *.**.nic.phy80211p.sensitivity -89dBm
param *.**.nic.phy80211p.thermalNoise -110dBm
param *.**.nic.phy80211p.usePropagationDelay true
param *.**.nic.phy80211p.useThermalNoise true
param *.annotations.draw false
param *.connectionManager.alpha 2.0
param *.connectionManager.carrierFrequency "5.890e9 Hz"
param *.connectionManager.pMax 20mW
param *.connectionManager.sat -89dBm
param *.connectionManager.sendDirect true
param *.manager.autoShutdown true
param *.manager.host "\"localhost\""
param *.manager.launchConfig "xmldoc(\"paramics.launchd.xml\")"
param *.manager.margin 25
param *.manager.moduleDisplayString "\"\""
param *.manager.moduleName "\"node\""
param *.manager.moduleType "\"org.car2x.veins.nodes.Car\""
param *.manager.port 9999
param *.manager.updateInterval 250ms
param *.node[*0].veinsmobility.accidentCount 0
param *.node[*0].veinsmobility.accidentDuration 30s
param *.node[*0].veinsmobility.accidentStart 75s
param *.node[*].appl.LiderSelectZoneRadio 55.0
param *.node[*].appl.ShareDataZoneRadio 110.0
param *.node[*].appl.TiempoSemaforo 30.0
param *.node[*].appl.beaconInterval 1s
param *.node[*].appl.beaconPriority 3
param *.node[*].appl.dataOnSch false
param *.node[*].appl.dataPriority 2
param *.node[*].appl.debug false
param *.node[*].appl.headerLength "256 bit"
param *.node[*].appl.maxOffset 0.005s
param *.node[*].appl.sendBeacons false
param *.node[*].appl.sendData true
param *.node[*].applType "\"Dummy\""
param *.node[*].mobilityType "\"TraCIMobility\""
param *.node[*].mobilityType.debug true
param *.node[*].veinsmobility.x 0
param *.node[*].veinsmobility.y 0
param *.node[*].veinsmobility.z 1.895
param *.node[*].veinsmobilityType "\"org.car2x.veins.modules.mobility.traci.TraCIMobility\""
param *.node[*].veinsmobilityType.debug true
param *.playgroundSizeX 8500m
param *.playgroundSizeY 8500m
param *.playgroundSizeZ 50m
param *.world.use2D false
param *.world.useTorus false

vector 14294  IntersectionExampleScenario.manager  vehiclesinsim  ETV
attr type  int
vector 14295  IntersectionExampleScenario.manager  realtime  ETV
attr type  int
attr unit  s
vector 14298  IntersectionExampleScenario.node[0].veinsmobility  posx  ETV
vector 14299  IntersectionExampleScenario.node[0].veinsmobility  posy  ETV
vector 14300  IntersectionExampleScenario.node[0].veinsmobility  speed  ETV
vector 14301  IntersectionExampleScenario.node[0].veinsmobility  acceleration  ETV
vector 14302  IntersectionExampleScenario.node[0].veinsmobility  co2emission  ETV
vector 14305  IntersectionExampleScenario.node[1].veinsmobility  posx  ETV
vector 14306  IntersectionExampleScenario.node[1].veinsmobility  posy  ETV
vector 14307  IntersectionExampleScenario.node[1].veinsmobility  speed  ETV
vector 14308  IntersectionExampleScenario.node[1].veinsmobility  acceleration  ETV
vector 14309  IntersectionExampleScenario.node[1].veinsmobility  co2emission  ETV
vector 14312  IntersectionExampleScenario.node[2].veinsmobility  posx  ETV
vector 14313  IntersectionExampleScenario.node[2].veinsmobility  posy  ETV
vector 14314  IntersectionExampleScenario.node[2].veinsmobility  speed  ETV
vector 14315  IntersectionExampleScenario.node[2].veinsmobility  acceleration  ETV
vector 14316  IntersectionExampleScenario.node[2].veinsmobility  co2emission  ETV
vector 14319  IntersectionExampleScenario.node[3].veinsmobility  posx  ETV
vector 14320  IntersectionExampleScenario.node[3].veinsmobility  posy  ETV
vector 14321  IntersectionExampleScenario.node[3].veinsmobility  speed  ETV
vector 14322  IntersectionExampleScenario.node[3].veinsmobility  acceleration  ETV
vector 14323  IntersectionExampleScenario.node[3].veinsmobility  co2emission  ETV
vector 14326  IntersectionExampleScenario.node[4].veinsmobility  posx  ETV
vector 14327  IntersectionExampleScenario.node[4].veinsmobility  posy  ETV
vector 14333  IntersectionExampleScenario.node[5].veinsmobility  posx  ETV
vector 14334  IntersectionExampleScenario.node[5].veinsmobility  posy  ETV
vector 14328  IntersectionExampleScenario.node[4].veinsmobility  speed  ETV
vector 14329  IntersectionExampleScenario.node[4].veinsmobility  acceleration  ETV
vector 14330  IntersectionExampleScenario.node[4].veinsmobility  co2emission  ETV
vector 14335  IntersectionExampleScenario.node[5].veinsmobility  speed  ETV
vector 14336  IntersectionExampleScenario.node[5].veinsmobility  acceleration  ETV
vector 14337  IntersectionExampleScenario.node[5].veinsmobility  co2emission  ETV
vector 14340  IntersectionExampleScenario.node[6].veinsmobility  posx  ETV
vector 14341  IntersectionExampleScenario.node[6].veinsmobility  posy  ETV
vector 14342  IntersectionExampleScenario.node[6].veinsmobility  speed  ETV
vector 14343  IntersectionExampleScenario.node[6].veinsmobility  acceleration  ETV
vector 14344  IntersectionExampleScenario.node[6].veinsmobility  co2emission  ETV
vector 14347  IntersectionExampleScenario.node[7].veinsmobility  posx  ETV
vector 14348  IntersectionExampleScenario.node[7].veinsmobility  posy  ETV
vector 14349  IntersectionExampleScenario.node[7].veinsmobility  speed  ETV
vector 14350  IntersectionExampleScenario.node[7].veinsmobility  acceleration  ETV
vector 14351  IntersectionExampleScenario.node[7].veinsmobility  co2emission  ETV
vector 14354  IntersectionExampleScenario.node[8].veinsmobility  posx  ETV
vector 14355  IntersectionExampleScenario.node[8].veinsmobility  posy  ETV
vector 14356  IntersectionExampleScenario.node[8].veinsmobility  speed  ETV
vector 14361  IntersectionExampleScenario.node[9].veinsmobility  posx  ETV
vector 14362  IntersectionExampleScenario.node[9].veinsmobility  posy  ETV
vector 14357  IntersectionExampleScenario.node[8].veinsmobility  acceleration  ETV
vector 14358  IntersectionExampleScenario.node[8].veinsmobility  co2emission  ETV
vector 14363  IntersectionExampleScenario.node[9].veinsmobility  speed  ETV
vector 14368  IntersectionExampleScenario.node[10].veinsmobility  posx  ETV
vector 14369  IntersectionExampleScenario.node[10].veinsmobility  posy  ETV
vector 14364  IntersectionExampleScenario.node[9].veinsmobility  acceleration  ETV
vector 14365  IntersectionExampleScenario.node[9].veinsmobility  co2emission  ETV
vector 14370  IntersectionExampleScenario.node[10].veinsmobility  speed  ETV
vector 14371  IntersectionExampleScenario.node[10].veinsmobility  acceleration  ETV
vector 14372  IntersectionExampleScenario.node[10].veinsmobility  co2emission  ETV
vector 14375  IntersectionExampleScenario.node[11].veinsmobility  posx  ETV
vector 14376  IntersectionExampleScenario.node[11].veinsmobility  posy  ETV
vector 14377  IntersectionExampleScenario.node[11].veinsmobility  speed  ETV
vector 14378  IntersectionExampleScenario.node[11].veinsmobility  acceleration  ETV
vector 14379  IntersectionExampleScenario.node[11].veinsmobility  co2emission  ETV
vector 14382  IntersectionExampleScenario.node[12].veinsmobility  posx  ETV
vector 14383  IntersectionExampleScenario.node[12].veinsmobility  posy  ETV
vector 14384  IntersectionExampleScenario.node[12].veinsmobility  speed  ETV
vector 14385  IntersectionExampleScenario.node[12].veinsmobility  acceleration  ETV
vector 14386  IntersectionExampleScenario.node[12].veinsmobility  co2emission  ETV
vector 14389  IntersectionExampleScenario.node[13].veinsmobility  posx  ETV
vector 14390  IntersectionExampleScenario.node[13].veinsmobility  posy  ETV
vector 14391  IntersectionExampleScenario.node[13].veinsmobility  speed  ETV
vector 14392  IntersectionExampleScenario.node[13].veinsmobility  acceleration  ETV
vector 14393  IntersectionExampleScenario.node[13].veinsmobility  co2emission  ETV
vector 14396  IntersectionExampleScenario.node[14].veinsmobility  posx  ETV
vector 14397  IntersectionExampleScenario.node[14].veinsmobility  posy  ETV
vector 14398  IntersectionExampleScenario.node[14].veinsmobility  speed  ETV
vector 14399  IntersectionExampleScenario.node[14].veinsmobility  acceleration  ETV
vector 14400  IntersectionExampleScenario.node[14].veinsmobility  co2emission  ETV
vector 14403  IntersectionExampleScenario.node[15].veinsmobility  posx  ETV
vector 14404  IntersectionExampleScenario.node[15].veinsmobility  posy  ETV
vector 14405  IntersectionExampleScenario.node[15].veinsmobility  speed  ETV
vector 14406  IntersectionExampleScenario.node[15].veinsmobility  acceleration  ETV
vector 14407  IntersectionExampleScenario.node[15].veinsmobility  co2emission  ETV
vector 14410  IntersectionExampleScenario.node[16].veinsmobility  posx  ETV
vector 14411  IntersectionExampleScenario.node[16].veinsmobility  posy  ETV
vector 14412  IntersectionExampleScenario.node[16].veinsmobility  speed  ETV
vector 14413  IntersectionExampleScenario.node[16].veinsmobility  acceleration  ETV
vector 14414  IntersectionExampleScenario.node[16].veinsmobility  co2emission  ETV
vector 14417  IntersectionExampleScenario.node[17].veinsmobility  posx  ETV
vector 14418  IntersectionExampleScenario.node[17].veinsmobility  posy  ETV
vector 14419  IntersectionExampleScenario.node[17].veinsmobility  speed  ETV
vector 14420  IntersectionExampleScenario.node[17].veinsmobility  acceleration  ETV
vector 14421  IntersectionExampleScenario.node[17].veinsmobility  co2emission  ETV
vector 14424  IntersectionExampleScenario.node[18].veinsmobility  posx  ETV
vector 14425  IntersectionExampleScenario.node[18].veinsmobility  posy  ETV
vector 14426  IntersectionExampleScenario.node[18].veinsmobility  speed  ETV
vector 14427  IntersectionExampleScenario.node[18].veinsmobility  acceleration  ETV
vector 14428  IntersectionExampleScenario.node[18].veinsmobility  co2emission  ETV
14309	10505 5193 74 3348 6.75 47.75 165 0.973 11.200708441096 489.53123084703 2471.7711966845
14308	15698 4653 74 3348 6.75 47.75 165 -3.577299118042 2.5 35.455564498901 261.24369186011
14307	20351 5094 69 3348 6.5 47.75 166 5.6500000953674 15.02499961853 2187.5139689445 29919.075228269
14306	25445 5411 64 3348 6.25 47.75 167 486.85000610352 734.12754821777 89937.654953003 49410662.616718
14305	30856 5407 64 3348 6.25 47.75 167 486.66949462891 785.82187652588 95540.045341492 56443216.414117
14302	36263 5862 13 3597 2 50.75 196 0.973 11.200708441096 548.39644376069 2666.9036484014
14301	42125 5379 13 3597 2 50.75 196 -8.6810245513916 4 36.134572982788 467.99787660457
14300	47504 5722 10 3597 1.75 50.75 197 0 15.02499961853 2196.9566392899 30075.092351361
14299	53226 6367 7 3597 1.5 50.75 198 483.14999389648 785.82187652588 110695.23453522 63842978.267327
14298	59593 6375 7 3597 1.5 50.75 198 483.14999389648 732.44580078125 104320.62825012 56024157.468461
vector 14431  IntersectionExampleScenario.node[19].veinsmobility  posx  ETV
vector 14432  IntersectionExampleScenario.node[19].veinsmobility  posy  ETV
vector 14433  IntersectionExampleScenario.node[19].veinsmobility  speed  ETV
14337	66200 4883 323 3718 14.5 52.5 153 0.973 11.648172402475 472.00928056363 2398.4851372188
14336	71083 4732 323 3718 14.5 52.5 153 -3.2593803405762 2.5 38.850629806519 185.86810238363
14335	75815 4823 310 3718 14.25 52.5 154 5.6500000953674 15.64999961853 2211.4082069397 32418.321967138
14334	80638 5042 297 3718 14 52.5 155 184.17810058594 731.87408447266 69414.333831787 35174040.472102
14333	85680 5072 297 3718 14 52.5 155 486.85000610352 486.85000610352 75461.750946045 36738553.908664
vector 14434  IntersectionExampleScenario.node[19].veinsmobility  acceleration  ETV
vector 14435  IntersectionExampleScenario.node[19].veinsmobility  co2emission  ETV
14316	90921 5537 98 3756 7.75 53 182 0.973 11.200708441096 524.07063362933 2656.8674736898
14315	96458 5410 98 3756 7.75 53 182 -4.5 2.5 35.625318527222 318.37098735962
14314	101868 5665 91 3756 7.5 53 183 3.2516977787018 15.02499961853 2191.9033555984 28677.148843925
14313	107533 5980 84 3756 7.25 53 184 486.85000610352 785.82187652588 104417.23423004 61079330.062475
14312	113513 5981 84 3756 7.25 53 184 235.07299804688 483.14999389648 80233.188476562 36008401.629672
14323	119494 5257 214 3813 11.75 53.75 169 0.973 11.54047740176 559.28320344084 3169.6947326137
14322	124751 5082 214 3813 11.75 53.75 169 -4.3843727111816 2.5000019073486 38.680875778198 351.95579680618
14321	129833 5327 205 3813 11.5 53.75 170 5.6387410163879 15.5 2245.9577231407 31251.090265879
14320	135160 5577 196 3813 11.25 53.75 171 235.26861572266 792.02188110352 89954.471115112 51629194.490336
14319	140737 5592 196 3813 11.25 53.75 171 483.14999389648 483.14999389648 82618.648956299 39917199.738971
vector 14438  IntersectionExampleScenario.node[20].veinsmobility  posx  ETV
vector 14439  IntersectionExampleScenario.node[20].veinsmobility  posy  ETV
vector 14445  IntersectionExampleScenario.node[21].veinsmobility  posx  ETV
vector 14446  IntersectionExampleScenario.node[21].veinsmobility  posy  ETV
vector 14440  IntersectionExampleScenario.node[20].veinsmobility  speed  ETV
vector 14441  IntersectionExampleScenario.node[20].veinsmobility  acceleration  ETV
vector 14442  IntersectionExampleScenario.node[20].veinsmobility  co2emission  ETV
vector 14447  IntersectionExampleScenario.node[21].veinsmobility  speed  ETV
vector 14448  IntersectionExampleScenario.node[21].veinsmobility  acceleration  ETV
vector 14449  IntersectionExampleScenario.node[21].veinsmobility  co2emission  ETV
14330	147131 5271 310 4053 14.25 56.5 170 0.97223939240464 11.648172402475 545.90703319983 3029.7710871197
14329	152402 5133 310 4053 14.25 56.5 170 -4.5 2.5 38.680875778198 299.16316400754
14328	157535 5325 297 4053 14 56.5 171 5.6500000953674 15.64999961853 2283.5904922485 31641.770492569
14327	162860 5619 286 4053 13.75 56.5 172 483.14999389648 804.51563262939 99470.777587891 59595678.347136
14326	168479 5622 286 4053 13.75 56.5 172 483.14999389648 733.26315307617 91484.336547852 49645899.826003
14358	174101 5186 835 4552 22.5 62.75 162 0.973 11.36141391502 501.65305809098 2628.3795314531
14357	179287 4711 835 4552 22.5 62.75 162 -3.5553417205811 2.5 37.492597579956 271.47880423082
14356	183998 5051 816 4552 22.25 62.75 163 5.6500000953674 15.25 2193.6145482063 30812.463279694
14355	189049 5378 797 4552 22 62.75 164 184.17810058594 483.2942199707 65278.761169434 27747526.191349
14354	194427 5391 797 4552 22 62.75 164 486.85000610352 735.46955871582 88299.097991943 48501904.175754
14372	199818 5034 923 4552 23.5 62.75 158 0.973 11.810082123732 508.77965454584 2884.3737090167
14371	204852 4899 923 4552 23.5 62.75 158 -3.9669666290283 2.5 38.850629806519 292.92992356544
14370	209751 4912 900 4552 23.25 62.75 159 5.6500000953674 15.875 2178.0396056175 31228.201392662
14369	214663 5265 877 4552 23 62.75 160 486.85000610352 785.82187652588 91643.329551697 54223303.005103
14368	219928 5270 877 4552 23 62.75 160 238.15570068359 483.14999389648 69269.359069824 30893525.187013
vector 14452  IntersectionExampleScenario.node[22].veinsmobility  posx  ETV
vector 14453  IntersectionExampleScenario.node[22].veinsmobility  posy  ETV
vector 14454  IntersectionExampleScenario.node[22].veinsmobility  speed  ETV
vector 14455  IntersectionExampleScenario.node[22].veinsmobility  acceleration  ETV
vector 14456  IntersectionExampleScenario.node[22].veinsmobility  co2emission  ETV
14365	225599 5265 877 4708 23 64.75 168 0.96333723109819 12.099024792222 556.13754261829 3114.8291421237
14364	230864 5080 877 4708 23 64.75 168 -8.7066688537598 4 40.208654403687 508.81184937023
14363	235944 5241 856 4708 22.75 64.75 169 0 16.27499961853 2205.8451886177 32080.499503504
14362	241185 5603 835 4708 22.5 64.75 170 483.14999389648 483.14999389648 82135.498962402 39683765.822369
14361	246788 5565 835 4708 22.5 64.75 170 184.17810058594 731.82809448242 76445.223480225 38404057.849672
14344	252353 5955 418 4742 16.25 65.25 197 0.973 11.648172402475 571.93848966816 2947.0374843495
14343	258308 5341 418 4742 16.25 65.25 197 -6.8117866516113 4 38.850629806519 469.91515502781
14342	263649 5785 403 4742 16 65.25 198 0 15.64999961853 2207.1536474228 31385.929364603
14341	269434 6528 388 4742 15.75 65.25 199 235.67944335938 486.85000610352 88466.190460205 40380205.696521
14340	275962 6524 388 4742 15.75 65.25 199 483.14999389648 785.82187652588 110865.19754791 63704086.504249
14351	282486 6127 542 4845 18.25 67 196 0.973 11.36141391502 554.9041340727 2765.792119877
14350	288613 5864 542 4845 18.25 67 196 -4.5 2.5000009536743 36.813589096069 427.40293902978
14349	294477 6198 525 4845 18 67 197 0 15.25 2251.9448823016 30620.932312444
14348	300675 6499 508 4845 17.75 67 198 486.85000610352 732.13191223145 104706.78114319 56378735.782615
14347	307174 6493 508 4845 17.75 67 198 486.85000610352 803.92188262939 112690.90546417 66313360.430056
vector 14459  IntersectionExampleScenario.node[23].veinsmobility  posx  ETV
vector 14460  IntersectionExampleScenario.node[23].veinsmobility  posy  ETV
vector 14461  IntersectionExampleScenario.node[23].veinsmobility  speed  ETV
vector 14462  IntersectionExampleScenario.node[23].veinsmobility  acceleration  ETV
vector 14463  IntersectionExampleScenario.node[23].veinsmobility  co2emission  ETV
vector 14466  IntersectionExampleScenario.node[24].veinsmobility  posx  ETV
vector 14467  IntersectionExampleScenario.node[24].veinsmobility  posy  ETV
vector 14468  IntersectionExampleScenario.node[24].veinsmobility  speed  ETV
vector 14469  IntersectionExampleScenario.node[24].veinsmobility  acceleration  ETV
vector 14470  IntersectionExampleScenario.node[24].veinsmobility  co2emission  ETV
vector 14473  IntersectionExampleScenario.node[25].veinsmobility  posx  ETV
vector 14474  IntersectionExampleScenario.node[25].veinsmobility  posy  ETV
14393	314623 5281 1826 5265 32.5 73.5 165 0.973 11.200708441096 489.53123084703 2471.7711966845
14392	319904 4743 1826 5265 32.5 73.5 165 -3.5762805938721 2.5 35.455564498901 261.22152429186
14391	324647 5186 1799 5265 32.25 73.5 166 5.6500000953674 15.02499961853 2187.5217623711 29919.224116323
14390	329833 5500 1772 5265 32 73.5 167 235.87164306641 483.14999389648 72052.299194336 32061881.282107
14389	335333 5479 1772 5265 32 73.5 167 184.17810058594 483.32922363281 66449.597503662 28225566.69939
vector 14475  IntersectionExampleScenario.node[25].veinsmobility  speed  ETV
vector 14476  IntersectionExampleScenario.node[25].veinsmobility  acceleration  ETV
vector 14477  IntersectionExampleScenario.node[25].veinsmobility  co2emission  ETV
vector 14480  IntersectionExampleScenario.node[26].veinsmobility  posx  ETV
vector 14481  IntersectionExampleScenario.node[26].veinsmobility  posy  ETV
vector 14482  IntersectionExampleScenario.node[26].veinsmobility  speed  ETV
14400	341291 5157 2215 5457 36.25 76 160 0.973 11.200708441096 483.23942159697 2417.3034307872
14399	346448 4673 2215 5457 36.25 76 160 -3.3684387207031 2.5 36.98334312439 221.44535422529
14398	351121 5036 2190 5457 36 76 161 5.6500000953674 15.02499961853 2212.4030103683 31223.332627575
14397	356157 5340 2165 5457 35.75 76 162 235.44555664062 486.85000610352 70184.975982666 31396776.206246
14396	361497 5337 2165 5457 35.75 76 162 483.12005615234 785.82187652588 92605.9348526 54736368.153868
vector 14483  IntersectionExampleScenario.node[26].veinsmobility  acceleration  ETV
vector 14484  IntersectionExampleScenario.node[26].veinsmobility  co2emission  ETV
14379	367003 6508 1088 5750 25.25 79.75 219 0.973 11.90022389248 630.72900477667 3205.9753796817
14378	373511 5902 1088 5750 25.25 79.75 219 -31.713966369629 4 41.057416915894 1413.8392308741
14377	379413 6164 1063 5750 25 79.75 220 0 16 2263.6606330872 33363.673887235
14376	385577 7269 1038 5750 24.75 79.75 221 169.95465087891 486.85000610352 91537.251831055 40160288.531694
14375	392846 7292 1038 5750 24.75 79.75 221 236.18798828125 486.85000610352 99485.544281006 45839622.632601
14386	400138 6137 1542 5784 29.75 80.25 203 0.973 11.648172402475 575.29391236005 2961.2747455118
14385	406275 5638 1542 5784 29.75 80.25 203 -7.03919506073 4 38.341367721558 481.63103295482
14384	411913 5969 1515 5784 29.5 80.25 204 0 15.64999961853 2212.4081838131 31409.619262413
14383	417882 6751 1488 5784 29.25 80.25 205 236.58178710938 785.82187652588 105774.04061127 58738337.346179
14382	424633 6766 1488 5784 29.25 80.25 205 483.14999389648 483.14999389648 99045.748748779 47853952.903445
vector 14487  IntersectionExampleScenario.node[27].veinsmobility  posx  ETV
vector 14488  IntersectionExampleScenario.node[27].veinsmobility  posy  ETV
vector 14489  IntersectionExampleScenario.node[27].veinsmobility  speed  ETV
14414	431631 5226 2484 5871 39 81.5 171 0.973 12.099024792222 538.99268709207 3107.8419954636
14413	436857 5180 2484 5871 39 81.5 171 -2.1220703125 2.5 40.038900375366 291.83683994868
14412	442037 5429 2459 5871 38.75 81.5 172 4.2988500595093 16.27499961853 2224.2747220993 31044.358220288
14411	447466 5680 2434 5871 38.5 81.5 173 184.17810058594 734.56114196777 77355.657272339 38682214.39607
14410	453146 5709 2434 5871 38.5 81.5 173 486.85000610352 486.85000610352 84225.051055908 41004966.620638
vector 14490  IntersectionExampleScenario.node[27].veinsmobility  acceleration  ETV
vector 14491  IntersectionExampleScenario.node[27].veinsmobility  co2emission  ETV
14407	459024 5538 2339 5940 37.5 82.5 181 0.973 11.648172402475 533.75576384776 2871.4299306499
14406	464562 5592 2339 5940 37.5 82.5 181 -2.4110145568848 2.5 37.832105636597 292.81493485289
14405	470154 5714 2314 5940 37.25 82.5 182 3.3926637172699 15.64999961853 2217.5416412354 29691.639158659
14404	475868 6026 2289 5940 37 82.5 183 483.14999389648 785.82187652588 103627.00908661 60508209.166128
14403	481894 6033 2289 5940 37 82.5 183 483.14999389648 735.14750671387 97027.039276123 52484429.791691
vector 14494  IntersectionExampleScenario.node[28].veinsmobility  posx  ETV
vector 14495  IntersectionExampleScenario.node[28].veinsmobility  posy  ETV
vector 14496  IntersectionExampleScenario.node[28].veinsmobility  speed  ETV
vector 14497  IntersectionExampleScenario.node[28].veinsmobility  acceleration  ETV
vector 14498  IntersectionExampleScenario.node[28].veinsmobility  co2emission  ETV
vector 14501  IntersectionExampleScenario.node[29].veinsmobility  posx  ETV
vector 14502  IntersectionExampleScenario.node[29].veinsmobility  posy  ETV
14449	488482 4895 3918 6536 55 93 153 0.973 12.099024792222 503.8825726296 2905.9395801761
14448	493377 4634 3918 6536 55 93 153 -3.50390625 2.5 40.378400802612 257.23133760097
14447	498011 4784 3895 6536 54.75 93 154 5.6500000953674 16.27499961853 2201.2420482635 32538.13570716
14446	502795 5088 3872 6536 54.5 93 155 184.17810058594 486.85000610352 61637.167205811 26252816.583299
14445	507883 5109 3872 6536 54.5 93 155 238.58795166016 486.85000610352 67421.22467041 30237939.190745
vector 14503  IntersectionExampleScenario.node[29].veinsmobility  speed  ETV
vector 14504  IntersectionExampleScenario.node[29].veinsmobility  acceleration  ETV
vector 14505  IntersectionExampleScenario.node[29].veinsmobility  co2emission  ETV
14421	513239 6544 2775 6690 42 96.25 218 0.973 11.00486315618 557.49798577875 2561.254562665
14420	519783 6102 2775 6690 42 96.25 218 -7.2449989318848 4 34.267293930054 447.9914840734
14419	525885 6334 2750 6690 41.75 96.25 219 0 14.75 2200.5748801231 29373.423718864
14418	532219 7256 2725 6690 41.5 96.25 220 236.70440673828 486.85000610352 98124.991119385 44899110.078826
14417	539475 7248 2725 6690 41.5 96.25 220 483.14999389648 785.82187652588 121906.0486908 69602204.366833
14428	546723 6644 3104 6756 45.25 97.75 211 0.973 11.00486315618 584.01367024422 2675.9772638621
14427	553367 6688 3104 6756 45.25 97.75 211 -4.5 2.5 38.341367721558 415.05109896288
14426	560055 6791 3077 6756 45 97.75 212 0 15.279829025269 2244.8928205799 31126.298621752
14425	566846 7022 3050 6756 44.75 97.75 213 238.27777099609 486.85000610352 95375.476898193 43758275.157326
14424	573868 6992 3050 6756 44.75 97.75 213 482.97906494141 797.07032012939 119314.73869324 68982827.346866
14435	580860 5725 3737 6837 52.75 99.75 189 0.973 11.648172402475 546.8412991135 2821.3517577766
14434	586585 5852 3737 6837 52.75 99.75 189 -3.3547344207764 2.5 38.511121749878 300.9064976206
14433	592437 6077 3718 6837 52.5 99.75 190 2.8865640163422 15.64999961853 2205.4506514072 29067.862333146
14432	598514 6301 3699 6837 52.25 99.75 191 237.46826171875 486.85000610352 84642.752838135 38531558.625269
14431	604815 6292 3699 6837 52.25 99.75 191 483.14764404297 785.82187652588 107967.57518768 62861740.93785
14456	611107 4896 4651 6909 64 101.75 152 0.973 12.099024792222 511.45495105884 2938.8279188599
14455	616003 4195 4651 6909 64 101.75 152 -3.530086517334 2.5 41.396924972534 261.77570009357
14454	620198 4760 4630 6909 63.75 101.75 153 5.6500000953674 16.27499961853 2211.9601793289 33120.899058411
14453	624958 5069 4609 6909 63.5 101.75 154 483.14999389648 734.02450561523 82493.788208008 45114496.686756
14452	630027 5059 4609 6909 63.5 101.75 154 184.17810058594 486.85000610352 61265.275756836 26108782.580839
14442	635086 5963 3895 6927 54.75 102.25 191 0.973 11.200708441096 544.40095363001 2679.1195129556
14441	641049 5999 3895 6927 54.75 102.25 191 -4.5 2.5 36.98334312439 320.21660509951
14440	647048 6092 3872 6927 54.5 102.25 192 4.3949003219604 15.239735603333 2276.0674848557 29701.265498071
14439	653140 6364 3851 6927 54.25 102.25 193 237.771484375 486.85000610352 85435.059173584 38858277.47338
14438	659504 6366 3851 6927 54.25 102.25 193 483.14999389648 803.92188262939 110748.52722931 65676413.638575
vector 14508  IntersectionExampleScenario.node[30].veinsmobility  posx  ETV
vector 14509  IntersectionExampleScenario.node[30].veinsmobility  posy  ETV
vector 14510  IntersectionExampleScenario.node[30].veinsmobility  speed  ETV
vector 14511  IntersectionExampleScenario.node[30].veinsmobility  acceleration  ETV
vector 14512  IntersectionExampleScenario.node[30].veinsmobility  co2emission  ETV
14470	666271 5090 4993 7137 69.5 108.5 157 0.973 11.54047740176 464.515727801 2331.5343583805
14469	671361 4578 4993 7137 69.5 108.5 157 -3.6199722290039 2.5 36.98334312439 185.99759120812
14468	675939 4998 4976 7137 69.25 108.5 158 5.6500000953674 15.5 2220.1634054184 31769.100361968
14467	680937 5281 4959 7137 69 108.5 159 486.85000610352 486.85000610352 77409.150970459 37686645.622436
14466	686218 5274 4959 7137 69 108.5 159 235.88525390625 785.82187652588 82773.169471741 47318648.965285
14463	691492 5267 4914 7168 68.25 109.5 166 0.973 12.099024792222 563.5817352128 3241.6426549982
14462	696759 4751 4914 7168 68.25 109.5 166 -8.5216693878174 4 41.396924972534 519.73944195481
14461	701510 5200 4899 7168 68 109.5 167 0 16.27499961853 2206.8058595657 32597.197939149
14460	706710 5544 4884 7168 67.75 109.5 168 184.17810058594 731.91882324219 75471.565551758 37886295.851193
14459	712254 5583 4884 7168 67.75 109.5 168 486.85000610352 486.85000610352 81790.801025391 39819851.978423
vector 14515  IntersectionExampleScenario.node[31].veinsmobility  posx  ETV
vector 14516  IntersectionExampleScenario.node[31].veinsmobility  posy  ETV
vector 14517  IntersectionExampleScenario.node[31].veinsmobility  speed  ETV
vector 14518  IntersectionExampleScenario.node[31].veinsmobility  acceleration  ETV
vector 14519  IntersectionExampleScenario.node[31].veinsmobility  co2emission  ETV
vector 14522  IntersectionExampleScenario.node[32].veinsmobility  posx  ETV
vector 14523  IntersectionExampleScenario.node[32].veinsmobility  posy  ETV
vector 14524  IntersectionExampleScenario.node[32].veinsmobility  speed  ETV
vector 14525  IntersectionExampleScenario.node[32].veinsmobility  acceleration  ETV
vector 14526  IntersectionExampleScenario.node[32].veinsmobility  co2emission  ETV
14484	718639 5090 5478 7339 76.25 115 156 0.97223939240464 11.648172402475 492.14756265096 2642.1924718167
14483	723729 4553 5478 7339 76.25 115 156 -4.056884765625 2.5 38.680875778198 242.46451577521
14482	728282 4957 5457 7339 76 115 157 5.6500000953674 15.64999961853 2203.143330574 31848.467378614
14481	733239 5270 5436 7339 75.75 115 158 482.97259521484 785.82187652588 90413.027381897 53503927.365405
14480	738509 5265 5436 7339 75.75 115 158 483.14999389648 732.75762939453 84674.011764526 46324231.231023
vector 14529  IntersectionExampleScenario.node[33].veinsmobility  posx  ETV
vector 14530  IntersectionExampleScenario.node[33].veinsmobility  posy  ETV
vector 14531  IntersectionExampleScenario.node[33].veinsmobility  speed  ETV
vector 14532  IntersectionExampleScenario.node[33].veinsmobility  acceleration  ETV
vector 14533  IntersectionExampleScenario.node[33].veinsmobility  co2emission  ETV
vector 14536  IntersectionExampleScenario.node[34].veinsmobility  posx  ETV
vector 14537  IntersectionExampleScenario.node[34].veinsmobility  posy  ETV
vector 14538  IntersectionExampleScenario.node[34].veinsmobility  speed  ETV
vector 14539  IntersectionExampleScenario.node[34].veinsmobility  acceleration  ETV
vector 14540  IntersectionExampleScenario.node[34].veinsmobility  co2emission  ETV
14491	744576 5293 5889 7651 81.75 122.25 163 0.973 11.36141391502 496.1251870503 2595.3906663282
14490	749869 4954 5889 7651 81.75 122.25 163 -3.4297657012939 2.5 36.643835067749 265.74411130721
14489	754823 5198 5871 7651 81.5 122.25 164 5.6500000953674 15.25 2191.1257653236 30466.453074071
14488	760021 5517 5852 7651 81.25 122.25 165 184.17810058594 483.14999389648 65643.718933105 27886078.632578
14487	765538 5520 5852 7651 81.25 122.25 165 486.85000610352 735.10919189453 88861.338867188 48825185.547003
vector 14543  IntersectionExampleScenario.node[35].veinsmobility  posx  ETV
vector 14544  IntersectionExampleScenario.node[35].veinsmobility  posy  ETV
vector 14545  IntersectionExampleScenario.node[35].veinsmobility  speed  ETV
vector 14546  IntersectionExampleScenario.node[35].veinsmobility  acceleration  ETV
vector 14547  IntersectionExampleScenario.node[35].veinsmobility  co2emission  ETV
14477	771459 6184 5303 7780 74 124.75 204 0.973 11.90022389248 579.81989961888 3061.4498244576
14476	777643 5882 5303 7780 74 124.75 204 -8.6357622146606 4 39.020376205444 504.32206590308
14475	783525 5999 5284 7780 73.75 124.75 205 0 16 2179.8970360756 31102.987726542
14474	789524 6889 5265 7780 73.5 124.75 206 483.14999389648 732.64566040039 107801.33503723 57457518.601686
14473	796413 6870 5265 7780 73.5 124.75 206 184.17810058594 486.85000610352 85456.423553467 37409034.396934
vector 14550  IntersectionExampleScenario.node[36].veinsmobility  posx  ETV
vector 14551  IntersectionExampleScenario.node[36].veinsmobility  posy  ETV
vector 14552  IntersectionExampleScenario.node[36].veinsmobility  speed  ETV
vector 14553  IntersectionExampleScenario.node[36].veinsmobility  acceleration  ETV
vector 14554  IntersectionExampleScenario.node[36].veinsmobility  co2emission  ETV
14498	803684 5502 6058 7942 84.25 127.75 175 0.973 11.810082123732 556.85971426432 3144.7316721516
14497	809186 5379 6058 7942 84.25 127.75 175 -3.3831787109375 2.5000019073486 39.869146347046 339.47652188402
14496	814565 5592 6041 7942 84 127.75 176 4.5405735969543 15.875 2191.6557450294 29871.885256274
14495	820157 5952 6024 7942 83.75 127.75 177 235.20190429688 483.14999389648 77412.883453369 34820579.378247
14494	826109 5930 6024 7942 83.75 127.75 177 184.17810058594 483.14999389648 70990.949584961 30226090.526829
vector 14557  IntersectionExampleScenario.node[37].veinsmobility  posx  ETV
vector 14558  IntersectionExampleScenario.node[37].veinsmobility  posy  ETV
vector 14559  IntersectionExampleScenario.node[37].veinsmobility  speed  ETV
vector 14560  IntersectionExampleScenario.node[37].veinsmobility  acceleration  ETV
vector 14561  IntersectionExampleScenario.node[37].veinsmobility  co2emission  ETV
vector 14564  IntersectionExampleScenario.node[38].veinsmobility  posx  ETV
vector 14565  IntersectionExampleScenario.node[38].veinsmobility  posy  ETV
vector 14566  IntersectionExampleScenario.node[38].veinsmobility  speed  ETV
vector 14567  IntersectionExampleScenario.node[38].veinsmobility  acceleration  ETV
vector 14568  IntersectionExampleScenario.node[38].veinsmobility  co2emission  ETV
vector 14571  IntersectionExampleScenario.node[39].veinsmobility  posx  ETV
vector 14572  IntersectionExampleScenario.node[39].veinsmobility  posy  ETV
vector 14573  IntersectionExampleScenario.node[39].veinsmobility  speed  ETV
vector 14574  IntersectionExampleScenario.node[39].veinsmobility  acceleration  ETV
vector 14575  IntersectionExampleScenario.node[39].veinsmobility  co2emission  ETV
vector 14578  IntersectionExampleScenario.node[40].veinsmobility  posx  ETV
vector 14579  IntersectionExampleScenario.node[40].veinsmobility  posy  ETV
14505	833396 5803 6562 8749 93.5 139.5 185 0.94600815583079 12.26218747632 580.84068046719 3319.9536154919
14504	839199 5396 6562 8749 93.5 139.5 185 -8.3547468185425 4 41.566686630249 518.06614665604
14503	844595 5602 6549 8749 93.25 139.5 186 0 16.5 2173.0886220932 31877.590970881
14502	850197 6324 6536 8749 93 139.5 187 486.63604736328 785.82187652588 104848.8826828 60627895.070321
14501	856521 6255 6536 8749 93 139.5 187 238.05474853516 483.14999389648 82627.687194824 37446828.025148
vector 14580  IntersectionExampleScenario.node[40].veinsmobility  speed  ETV
vector 14581  IntersectionExampleScenario.node[40].veinsmobility  acceleration  ETV
vector 14582  IntersectionExampleScenario.node[40].veinsmobility  co2emission  ETV
vector 14585  IntersectionExampleScenario.node[41].veinsmobility  posx  ETV
vector 14586  IntersectionExampleScenario.node[41].veinsmobility  posy  ETV
vector 14587  IntersectionExampleScenario.node[41].veinsmobility  speed  ETV
vector 14588  IntersectionExampleScenario.node[41].veinsmobility  acceleration  ETV
vector 14589  IntersectionExampleScenario.node[41].veinsmobility  co2emission  ETV
vector 14592  IntersectionExampleScenario.node[42].veinsmobility  posx  ETV
vector 14593  IntersectionExampleScenario.node[42].veinsmobility  posy  ETV
vector 14594  IntersectionExampleScenario.node[42].veinsmobility  speed  ETV
vector 14595  IntersectionExampleScenario.node[42].veinsmobility  acceleration  ETV
vector 14596  IntersectionExampleScenario.node[42].veinsmobility  co2emission  ETV
vector 14599  IntersectionExampleScenario.node[43].veinsmobility  posx  ETV
vector 14600  IntersectionExampleScenario.node[43].veinsmobility  posy  ETV
vector 14601  IntersectionExampleScenario.node[43].veinsmobility  speed  ETV
vector 14602  IntersectionExampleScenario.node[43].veinsmobility  acceleration  ETV
vector 14603  IntersectionExampleScenario.node[43].veinsmobility  co2emission  ETV
14519	864226 5757 7193 9928 110.25 155 180 0.973 11.810082123732 561.9499259185 3043.7444710552
14518	869983 5257 7193 9928 110.25 155 180 -6.9388580322266 4 39.869146347046 481.49561185204
14517	875240 5613 7184 9928 110 155 181 0 15.875 2183.3810286522 31318.381264493
14516	880853 6118 7175 9928 109.75 155 182 235.62799072266 483.14999389648 79858.538726807 36009745.41834
14515	886971 6165 7175 9928 109.75 155 182 184.17810058594 483.36395263672 73999.134460449 31919382.509393
14512	893136 6076 7101 9947 107.5 155.25 192 0.973 11.648172402475 564.59091236005 2950.8607265118
14511	899212 5621 7101 9947 107.5 155.25 192 -7.03919506073 4 38.341367721558 481.63103295482
14510	904833 5954 7092 9947 107.25 155.25 193 0 15.64999961853 2212.4081838131 31409.619262413
14509	910787 6595 7083 9947 107 155.25 194 486.85000610352 486.85000610352 94448.901184082 45982448.117941
14508	917382 6580 7083 9947 107 155.25 194 236.58178710938 785.82187652588 100291.64067841 56005909.253103
vector 14606  IntersectionExampleScenario.node[44].veinsmobility  posx  ETV
vector 14607  IntersectionExampleScenario.node[44].veinsmobility  posy  ETV
vector 14608  IntersectionExampleScenario.node[44].veinsmobility  speed  ETV
vector 14609  IntersectionExampleScenario.node[44].veinsmobility  acceleration  ETV
vector 14610  IntersectionExampleScenario.node[44].veinsmobility  co2emission  ETV
14526	924363 5316 7339 10008 115 156 165 0.973 11.990504229548 532.69653709989 3000.7807312495
14525	929679 5108 7339 10008 115 156 165 -3.6958923339844 2.5 39.869146347046 320.05098487459
14524	934787 5414 7330 10008 114.75 156 166 4.0716214179993 16.125 2225.8144626617 31793.451015292
14523	940201 5678 7321 10008 114.5 156 167 483.14999389648 483.14999389648 80686.048980713 38983464.072563
14522	945879 5651 7321 10008 114.5 156 167 184.17810058594 735.28297424316 74988.129974365 37787604.61928
14540	951530 5264 7638 10406 122 161.75 160 0.973 11.450879080643 506.7729887341 2849.1874343528
14539	956794 5007 7638 10406 122 161.75 160 -3.3664360046387 2.5 37.492597579956 257.40643884102
14538	961801 5210 7625 10406 121.75 161.75 161 5.6500000953674 15.375 2210.81179142 31217.443551192
14537	967011 5525 7612 10406 121.5 161.75 162 483.14999389648 733.81126403809 86834.550445557 47522548.044202
14536	972536 5510 7612 10406 121.5 161.75 162 184.17810058594 486.85000610352 64499.079162598 27472899.996004
vector 14613  IntersectionExampleScenario.node[45].veinsmobility  posx  ETV
vector 14614  IntersectionExampleScenario.node[45].veinsmobility  posy  ETV
vector 14615  IntersectionExampleScenario.node[45].veinsmobility  speed  ETV
vector 14616  IntersectionExampleScenario.node[45].veinsmobility  acceleration  ETV
vector 14617  IntersectionExampleScenario.node[45].veinsmobility  co2emission  ETV
vector 14620  IntersectionExampleScenario.node[46].veinsmobility  posx  ETV
vector 14621  IntersectionExampleScenario.node[46].veinsmobility  posy  ETV
vector 14627  IntersectionExampleScenario.node[47].veinsmobility  posx  ETV
vector 14628  IntersectionExampleScenario.node[47].veinsmobility  posy  ETV
vector 14622  IntersectionExampleScenario.node[46].veinsmobility  speed  ETV
vector 14629  IntersectionExampleScenario.node[47].veinsmobility  speed  ETV
vector 14623  IntersectionExampleScenario.node[46].veinsmobility  acceleration  ETV
vector 14624  IntersectionExampleScenario.node[46].veinsmobility  co2emission  ETV
vector 14630  IntersectionExampleScenario.node[47].veinsmobility  acceleration  ETV
vector 14631  IntersectionExampleScenario.node[47].veinsmobility  co2emission  ETV
14533	979249 6685 7424 11044 117.25 170.5 214 0.973 11.450879080643 577.39970031136 2821.4353860699
14532	985934 6013 7424 11044 117.25 170.5 214 -8.8566608428955 4 37.32285118103 503.59385183044
14531	991947 6437 7413 11044 117 170.5 215 0 15.375 2200.6923806667 30735.092890185
14530	998384 7398 7402 11044 116.75 170.5 216 483.14999389648 785.82187652588 119520.67208099 68144869.919968
14529	1005782 7399 7402 11044 116.75 170.5 216 483.14999389648 733.21885681152 112901.39225769 60098960.560188
vector 14634  IntersectionExampleScenario.node[48].veinsmobility  posx  ETV
vector 14635  IntersectionExampleScenario.node[48].veinsmobility  posy  ETV
vector 14636  IntersectionExampleScenario.node[48].veinsmobility  speed  ETV
vector 14637  IntersectionExampleScenario.node[48].veinsmobility  acceleration  ETV
vector 14638  IntersectionExampleScenario.node[48].veinsmobility  co2emission  ETV
14547	1013582 6232 7754 11195 124.25 173 196 0.97223939240464 11.648172402475 568.11187668528 2924.9595807171
14546	1019814 5472 7754 11195 124.25 173 196 -7.1630792617798 4 38.680875778198 488.87914115465
14545	1025286 6060 7741 11195 124 173 197 0 15.64999961853 2179.4537997246 30763.493583366
14544	1031346 6769 7728 11195 123.75 173 198 184.17810058594 483.24322509766 81420.996429443 35381870.426296
14543	1038115 6793 7728 11195 123.75 173 198 486.85000610352 732.87329101562 104521.47467041 56170293.613573
vector 14641  IntersectionExampleScenario.node[49].veinsmobility  posx  ETV
vector 14642  IntersectionExampleScenario.node[49].veinsmobility  posy  ETV
vector 14643  IntersectionExampleScenario.node[49].veinsmobility  speed  ETV
vector 14644  IntersectionExampleScenario.node[49].veinsmobility  acceleration  ETV
vector 14645  IntersectionExampleScenario.node[49].veinsmobility  co2emission  ETV
vector 14648  IntersectionExampleScenario.node[50].veinsmobility  posx  ETV
vector 14649  IntersectionExampleScenario.node[50].veinsmobility  posy  ETV
vector 14650  IntersectionExampleScenario.node[50].veinsmobility  speed  ETV
vector 14651  IntersectionExampleScenario.node[50].veinsmobility  acceleration  ETV
vector 14652  IntersectionExampleScenario.node[50].veinsmobility  co2emission  ETV
14554	1045710 6244 7927 11368 127.5 175.5 193 0.973 10.756497587458 534.69350422046 2444.3105669505
14553	1051954 6200 7927 11368 127.5 175.5 193 -4.5 2.5 34.606801986694 312.04244157166
14552	1058154 6652 7912 11368 127.25 175.5 194 3.8733541965485 14.39999961853 2200.2251808643 27687.22198038
14551	1064806 6700 7897 11368 127 175.5 195 483.14999389648 785.82187652588 109959.93727112 63922632.941203
14550	1071506 6699 7897 11368 127 175.5 195 483.14999389648 732.19523620605 103131.26196289 55609465.482684
vector 14655  IntersectionExampleScenario.node[51].veinsmobility  posx  ETV
vector 14656  IntersectionExampleScenario.node[51].veinsmobility  posy  ETV
14575	1078359 5194 8568 11385 137.25 175.75 155 0.97223939240464 11.648172402475 509.23802643872 2981.6733437051
14574	1083553 4903 8568 11385 137.25 175.75 155 -3.3509178161621 2.5 38.680875778198 249.06369173728
14573	1088456 5154 8547 11385 137 175.75 156 5.6500000953674 15.64999961853 2218.2383899689 32200.64220234
14572	1093610 5387 8526 11385 136.75 175.75 157 184.17810058594 733.33851623535 70320.586517334 35626584.874117
14571	1098997 5419 8526 11385 136.75 175.75 157 486.85000610352 486.85000610352 76435.450958252 37212599.76555
vector 14657  IntersectionExampleScenario.node[51].veinsmobility  speed  ETV
vector 14658  IntersectionExampleScenario.node[51].veinsmobility  acceleration  ETV
vector 14659  IntersectionExampleScenario.node[51].veinsmobility  co2emission  ETV
vector 14662  IntersectionExampleScenario.node[52].veinsmobility  posx  ETV
vector 14663  IntersectionExampleScenario.node[52].veinsmobility  posy  ETV
14582	1104817 5381 8787 11654 140 179.5 159 0.973 11.200708441096 454.35911991347 2192.1748794677
14581	1110198 4885 8787 11654 140 179.5 159 -2.95166015625 2.5 35.795072555542 167.30536973474
14580	1115083 5319 8768 11654 139.75 179.5 160 5.6500000953674 15.02499961853 2213.0065221786 31118.933839836
14579	1120402 5555 8749 11654 139.5 179.5 161 237.48425292969 785.82187652588 83850.817939758 47922565.566958
14578	1125957 5569 8749 11654 139.5 179.5 161 483.14999389648 483.14999389648 77787.149017334 37582860.57295
vector 14664  IntersectionExampleScenario.node[52].veinsmobility  speed  ETV
vector 14665  IntersectionExampleScenario.node[52].veinsmobility  acceleration  ETV
vector 14666  IntersectionExampleScenario.node[52].veinsmobility  co2emission  ETV
vector 14669  IntersectionExampleScenario.node[53].veinsmobility  posx  ETV
vector 14670  IntersectionExampleScenario.node[53].veinsmobility  posy  ETV
vector 14671  IntersectionExampleScenario.node[53].veinsmobility  speed  ETV
vector 14672  IntersectionExampleScenario.node[53].veinsmobility  acceleration  ETV
vector 14673  IntersectionExampleScenario.node[53].veinsmobility  co2emission  ETV
vector 14676  IntersectionExampleScenario.node[54].veinsmobility  posx  ETV
vector 14677  IntersectionExampleScenario.node[54].veinsmobility  posy  ETV
vector 14678  IntersectionExampleScenario.node[54].veinsmobility  speed  ETV
vector 14679  IntersectionExampleScenario.node[54].veinsmobility  acceleration  ETV
vector 14680  IntersectionExampleScenario.node[54].veinsmobility  co2emission  ETV
14561	1132575 6544 8306 12080 133.75 185.25 207 0.973 11.648172402475 577.655938066 2959.3792823126
14560	1139119 6032 8306 12080 133.75 185.25 207 -8.7583045959473 4 38.171613693237 497.81800396757
14559	1145151 6369 8289 12080 133.5 185.25 208 0 15.64999961853 2209.2101137638 31273.514004293
14558	1151520 7225 8272 12080 133.25 185.25 209 483.14999389648 483.14999389648 100978.34872437 48787688.569854
14557	1158745 7188 8272 12080 133.25 185.25 209 184.17810058594 732.85957336426 94921.805755615 47269844.036621
vector 14683  IntersectionExampleScenario.node[55].veinsmobility  posx  ETV
vector 14684  IntersectionExampleScenario.node[55].veinsmobility  posy  ETV
vector 14685  IntersectionExampleScenario.node[55].veinsmobility  speed  ETV
14568	1166165 6822 8412 12201 135.25 186.75 207 0.97223939240464 11.810082123732 586.59478829979 3050.2360587775
14567	1172987 6609 8412 12201 135.25 186.75 207 -4.5 2.5 38.680875778198 449.4371856637
14566	1179596 6890 8393 12201 135 186.75 208 0 15.875 2272.8367310446 31701.623552931
14565	1186486 7218 8374 12201 134.75 186.75 209 235.21978759766 483.14999389648 92737.979156494 42183644.203556
14564	1193704 7201 8374 12201 134.75 186.75 209 163.88433837891 483.14999389648 84551.152740479 36443317.914415
vector 14686  IntersectionExampleScenario.node[55].veinsmobility  acceleration  ETV
vector 14687  IntersectionExampleScenario.node[55].veinsmobility  co2emission  ETV
vector 14690  IntersectionExampleScenario.node[56].veinsmobility  posx  ETV
vector 14691  IntersectionExampleScenario.node[56].veinsmobility  posy  ETV
vector 14692  IntersectionExampleScenario.node[56].veinsmobility  speed  ETV
vector 14693  IntersectionExampleScenario.node[56].veinsmobility  acceleration  ETV
vector 14694  IntersectionExampleScenario.node[56].veinsmobility  co2emission  ETV
14589	1201475 5863 8981 12358 142.75 188.5 184 0.973 11.810082123732 554.47538034804 3023.1731582144
14588	1207338 5955 8981 12358 142.75 188.5 184 -2.460750579834 2.5 41.227170944214 297.61021916229
14587	1213293 6102 8962 12358 142.5 188.5 185 3.0198857784271 16.013381958008 2191.6711449623 29730.832210549
14586	1219395 6452 8943 12358 142.25 188.5 186 235.32122802734 483.14999389648 81929.643005371 37055047.807248
14585	1225847 6426 8943 12358 142.25 188.5 186 184.17810058594 483.14999389648 74998.393768311 31999501.889552
14596	1232273 6217 9080 12577 144 191.25 190 0.973 12.099024792222 584.04209247079 3240.9012712247
14595	1238490 6133 9080 12577 144 191.25 190 -4.5 2.5 40.378400802612 405.46073874425
14594	1244623 6310 9059 12577 143.75 191.25 191 3.0757231712341 16.27499961853 2269.0972573757 30688.39008991
14593	1250933 6665 9038 12577 143.5 191.25 192 236.92498779297 483.14999389648 84823.378051758 38442530.834718
14592	1257598 6650 9038 12577 143.5 191.25 192 162.90466308594 483.18417358398 75664.017730713 31897368.768856
vector 14697  IntersectionExampleScenario.node[57].veinsmobility  posx  ETV
vector 14698  IntersectionExampleScenario.node[57].veinsmobility  posy  ETV
vector 14699  IntersectionExampleScenario.node[57].veinsmobility  speed  ETV
vector 14700  IntersectionExampleScenario.node[57].veinsmobility  acceleration  ETV
vector 14701  IntersectionExampleScenario.node[57].veinsmobility  co2emission  ETV
vector 14704  IntersectionExampleScenario.node[58].veinsmobility  posx  ETV
vector 14705  IntersectionExampleScenario.node[58].veinsmobility  posy  ETV
vector 14706  IntersectionExampleScenario.node[58].veinsmobility  speed  ETV
14603	1264881 5302 9909 12777 154.75 193.75 157 0.973 11.648172402475 496.23359015801 2763.9777644209
14602	1270183 5162 9909 12777 154.75 193.75 157 -3.1593971252441 2.5 38.511121749878 238.05426581146
14601	1275345 5309 9890 12777 154.5 193.75 158 5.6500000953674 15.64999961853 2205.9781713486 31735.118820753
14600	1280654 5559 9870 12777 154.25 193.75 159 237.26586914062 486.85000610352 69048.896820068 30935977.035068
14599	1286213 5547 9870 12777 154.25 193.75 159 483.14999389648 785.82187652588 90930.940101624 53775434.183262
vector 14707  IntersectionExampleScenario.node[58].veinsmobility  acceleration  ETV
vector 14708  IntersectionExampleScenario.node[58].veinsmobility  co2emission  ETV
14610	1291929 5339 10008 12961 156 195.75 160 0.973 11.450879080643 493.29146021694 2800.7581938571
14609	1297268 5299 10008 12961 156 195.75 160 -3.2189483642578 2.5 36.98334312439 243.73022122108
14608	1302567 5346 9987 12961 155.75 195.75 161 5.6500000953674 15.375 2202.9095582962 30965.605136582
14607	1307913 5661 9966 12961 155.5 195.75 162 483.14999389648 731.90406799316 86771.977127075 47441393.321157
14606	1313574 5632 9966 12961 155.5 195.75 162 184.17810058594 486.85000610352 64476.689727783 27456856.413633
vector 14711  IntersectionExampleScenario.node[59].veinsmobility  posx  ETV
vector 14712  IntersectionExampleScenario.node[59].veinsmobility  posy  ETV
vector 14713  IntersectionExampleScenario.node[59].veinsmobility  speed  ETV
vector 14714  IntersectionExampleScenario.node[59].veinsmobility  acceleration  ETV
vector 14715  IntersectionExampleScenario.node[59].veinsmobility  co2emission  ETV
vector 14718  IntersectionExampleScenario.node[60].veinsmobility  posx  ETV
vector 14719  IntersectionExampleScenario.node[60].veinsmobility  posy  ETV
vector 14720  IntersectionExampleScenario.node[60].veinsmobility  speed  ETV
14624	1319839 5183 10543 13443 163.75 201.5 152 0.973 12.099024792222 509.65437851529 2931.6333282533
14623	1325022 4725 10543 13443 163.75 201.5 152 -3.4178009033203 2.5 41.227170944214 260.25388798362
14622	1329747 5051 10524 13443 163.5 201.5 153 5.6500000953674 16.27499961853 2208.285572052 32998.513095376
14621	1334798 5383 10505 13443 163.25 201.5 154 483.12088012695 785.82187652588 88135.233253479 52175747.115485
14620	1340181 5383 10505 13443 163.25 201.5 154 483.14999389648 733.19093322754 82459.177658081 45071112.617745
vector 14721  IntersectionExampleScenario.node[60].veinsmobility  acceleration  ETV
vector 14722  IntersectionExampleScenario.node[60].veinsmobility  co2emission  ETV
vector 14725  IntersectionExampleScenario.node[61].veinsmobility  posx  ETV
vector 14726  IntersectionExampleScenario.node[61].veinsmobility  posy  ETV
vector 14727  IntersectionExampleScenario.node[61].veinsmobility  speed  ETV
vector 14728  IntersectionExampleScenario.node[61].veinsmobility  acceleration  ETV
vector 14729  IntersectionExampleScenario.node[61].veinsmobility  co2emission  ETV
vector 14732  IntersectionExampleScenario.node[62].veinsmobility  posx  ETV
vector 14733  IntersectionExampleScenario.node[62].veinsmobility  posy  ETV
vector 14734  IntersectionExampleScenario.node[62].veinsmobility  speed  ETV
14617	1346366 5910 10455 13772 162.5 205.75 174 0.973 11.200708441096 525.84481760901 2628.6060896596
14616	1352276 5336 10455 13772 162.5 205.75 174 -29.661409378052 4 35.625318527222 1210.9882119452
14615	1357612 5895 10438 13772 162.25 205.75 175 0 15.02499961853 2183.9731760025 29842.457715859
14614	1363507 6139 10421 13772 162 205.75 176 184.17810058594 483.19274902344 70716.107910156 30244631.298462
14613	1369646 6147 10421 13772 162 205.75 176 486.85000610352 734.20742797852 94304.415023804 51526683.254736
vector 14735  IntersectionExampleScenario.node[62].veinsmobility  acceleration  ETV
vector 14736  IntersectionExampleScenario.node[62].veinsmobility  co2emission  ETV
14631	1375962 5781 10543 13793 163.75 206 170 0.973 11.450879080643 519.78713246207 2704.0651799402
14630	1381743 5177 10543 13793 163.75 206 170 -4.5 2.5 36.98334312439 315.84790534873
14629	1386920 5696 10524 13793 163.5 206 171 5.6500000953674 15.375 2290.0950403214 31758.589934947
14628	1392616 5998 10505 13793 163.25 206 172 162.90466308594 486.85000610352 67293.429779053 28478429.127578
14627	1398614 6010 10505 13793 163.25 206 172 237.94769287109 486.85000610352 75226.050109863 33892108.975876
vector 14739  IntersectionExampleScenario.node[63].veinsmobility  posx  ETV
vector 14740  IntersectionExampleScenario.node[63].veinsmobility  posy  ETV
vector 14741  IntersectionExampleScenario.node[63].veinsmobility  speed  ETV
vector 14742  IntersectionExampleScenario.node[63].veinsmobility  acceleration  ETV
vector 14743  IntersectionExampleScenario.node[63].veinsmobility  co2emission  ETV
vector 14746  IntersectionExampleScenario.node[64].veinsmobility  posx  ETV
vector 14747  IntersectionExampleScenario.node[64].veinsmobility  posy  ETV
vector 14748  IntersectionExampleScenario.node[64].veinsmobility  speed  ETV
vector 14749  IntersectionExampleScenario.node[64].veinsmobility  acceleration  ETV
vector 14750  IntersectionExampleScenario.node[64].veinsmobility  co2emission  ETV
14652	1405426 5191 11314 14332 174.75 212.5 152 0.973 11.990504229548 480.56587504167 2612.2460010431
14651	1410617 4755 11314 14332 174.75 212.5 152 -3.0983085632324 2.5 39.699392318726 198.74124400146
14650	1415372 5105 11295 14332 174.5 212.5 153 5.6500000953674 16.125 2223.7700643539 33036.011175474
14649	1420477 5352 11276 14332 174.25 212.5 154 184.17810058594 734.81689453125 69104.698577881 35120460.892283
14648	1425829 5391 11276 14332 174.25 212.5 154 486.85000610352 486.85000610352 74974.900939941 36501530.980221
14638	1431220 5591 11180 14477 172.75 214.5 168 0.973 11.90022389248 561.07211225629 3118.7220589425
14637	1436811 5267 11180 14477 172.75 214.5 168 -9.0947790145874 4 41.057416915894 523.06061417979
14636	1442078 5516 11165 14477 172.5 214.5 169 0 16.050186157227 2188.4365170002 32054.031751119
14635	1447594 5946 11149 14477 172.25 214.5 170 483.14999389648 734.72703552246 90300.483612061 48941346.266097
14634	1453540 5922 11149 14477 172.25 214.5 170 184.17810058594 486.85000610352 68698.647979736 29571745.908875
14645	1459462 5552 11259 14494 174 214.75 164 0.97223939240464 11.648172402475 530.36653505802 2873.1236614965
14644	1465014 5132 11259 14494 174 214.75 164 -3.40456199646 2.5 38.680875778198 352.83200551597
14643	1470146 5590 11242 14494 173.75 214.75 165 3.5045552253723 15.64999961853 2199.7976689339 31199.130859459
14642	1475736 5802 11225 14494 173.5 214.75 166 237.14483642578 486.85000610352 72469.77444458 32605956.328586
14641	1481538 5801 11225 14494 173.5 214.75 166 482.8544921875 785.82187652588 94446.098304749 55537813.750811
vector 14753  IntersectionExampleScenario.node[65].veinsmobility  posx  ETV
vector 14754  IntersectionExampleScenario.node[65].veinsmobility  posy  ETV
14659	1487493 5691 11423 14721 176.25 218.25 169 0.973 11.450879080643 490.67836564548 2507.8126717654
14658	1493184 5502 11423 14721 176.25 218.25 169 -3.219596862793 2.5 36.643835067749 212.04693350185
14657	1498686 5658 11404 14721 176 218.25 170 5.6500000953674 15.375 2280.3725481033 31582.759329733
14656	1504344 5980 11385 14721 175.75 218.25 171 235.4990234375 486.85000610352 74528.666564941 33499819.477857
14655	1510324 5975 11385 14721 175.75 218.25 171 483.14999389648 802.70781707764 98661.7265625 59009685.011321
vector 14755  IntersectionExampleScenario.node[65].veinsmobility  speed  ETV
vector 14756  IntersectionExampleScenario.node[65].veinsmobility  acceleration  ETV
vector 14757  IntersectionExampleScenario.node[65].veinsmobility  co2emission  ETV
vector 14760  IntersectionExampleScenario.node[66].veinsmobility  posx  ETV
vector 14761  IntersectionExampleScenario.node[66].veinsmobility  posy  ETV
14666	1516700 5383 11689 14857 180 220.25 162 0.973 11.450879080643 503.4649617933 2625.0738601327
14665	1522083 4948 11689 14857 180 220.25 162 -2.9613418579102 2.5 40.038900375366 218.93818456485
14664	1527031 5424 11671 14857 179.75 220.25 163 5.6500000953674 15.711557388306 2274.5216722488 32759.619111416
14663	1532455 5730 11654 14857 179.5 220.25 164 236.67645263672 486.85000610352 71636.764221191 32247368.671281
14662	1538185 5723 11654 14857 179.5 220.25 164 483.12292480469 802.22579193115 94834.052314758 56851687.247546
vector 14762  IntersectionExampleScenario.node[66].veinsmobility  speed  ETV
vector 14763  IntersectionExampleScenario.node[66].veinsmobility  acceleration  ETV
vector 14764  IntersectionExampleScenario.node[66].veinsmobility  co2emission  ETV
vector 14767  IntersectionExampleScenario.node[67].veinsmobility  posx  ETV
vector 14768  IntersectionExampleScenario.node[67].veinsmobility  posy  ETV
vector 14769  IntersectionExampleScenario.node[67].veinsmobility  speed  ETV
vector 14770  IntersectionExampleScenario.node[67].veinsmobility  acceleration  ETV
vector 14771  IntersectionExampleScenario.node[67].veinsmobility  co2emission  ETV
vector 14774  IntersectionExampleScenario.node[68].veinsmobility  posx  ETV
vector 14775  IntersectionExampleScenario.node[68].veinsmobility  posy  ETV
vector 14776  IntersectionExampleScenario.node[68].veinsmobility  speed  ETV
14680	1544788 5341 12080 15137 185.25 224 156 0.97223939240464 11.648172402475 492.14756265096 2642.1924718167
14679	1550129 4806 12080 15137 185.25 224 156 -4.0569152832031 2.5 38.680875778198 242.46457769804
14678	1554935 5210 12059 15137 185 224 157 5.6500000953674 15.64999961853 2203.1433601379 31848.468064158
14677	1560145 5520 12038 15137 184.75 224 158 483.14999389648 732.75762939453 84674.011520386 46324230.979592
14676	1565665 5506 12038 15137 184.75 224 158 184.17810058594 487.02737426758 62846.969909668 26764852.304686
vector 14777  IntersectionExampleScenario.node[68].veinsmobility  acceleration  ETV
vector 14778  IntersectionExampleScenario.node[68].veinsmobility  co2emission  ETV
14687	1571340 5452 12222 15351 187 226.75 160 0.973 11.450879080643 483.5650083829 2500.6559854411
14686	1576792 5333 12222 15351 187 226.75 160 -3.3422966003418 2.5 36.98334312439 226.37809951467
14685	1582125 5347 12201 15351 186.75 226.75 161 5.6500000953674 15.375 2213.941362381 31269.929818016
14684	1587472 5666 12180 15351 186.5 226.75 162 235.06402587891 486.85000610352 70165.183227539 31383720.060963
14683	1593138 5664 12180 15351 186.5 226.75 162 483.11956787109 785.82187652588 92606.36782074 54736836.443506
vector 14781  IntersectionExampleScenario.node[69].veinsmobility  posx  ETV
vector 14782  IntersectionExampleScenario.node[69].veinsmobility  posy  ETV
vector 14783  IntersectionExampleScenario.node[69].veinsmobility  speed  ETV
vector 14784  IntersectionExampleScenario.node[69].veinsmobility  acceleration  ETV
vector 14785  IntersectionExampleScenario.node[69].veinsmobility  co2emission  ETV
14694	1599203 5593 12289 15475 187.75 228.25 163 0.973 11.200708441096 464.36457600888 2215.3519707768
14693	1604796 5016 12289 15475 187.75 228.25 163 -2.9206428527832 2.5 35.964826583862 167.3209881016
14692	1609812 5522 12266 15475 187.5 228.25 164 5.6500000953674 15.02499961853 2276.7653121948 32127.249414189
14691	1615334 5776 12243 15475 187.25 228.25 165 483.14999389648 483.14999389648 79719.74899292 38516596.239358
14690	1621110 5739 12243 15475 187.25 228.25 165 168.58435058594 732.85450744629 72868.043991089 36792470.534594
vector 14788  IntersectionExampleScenario.node[70].veinsmobility  posx  ETV
vector 14789  IntersectionExampleScenario.node[70].veinsmobility  posy  ETV
14673	1627003 6465 11829 15678 182 231 197 0.973 10.916047529558 536.45654959866 2516.2282292346
14672	1633468 5846 11829 15678 182 231 197 -9.2687568664551 4 34.606801986694 476.05791541435
14671	1639314 6283 11810 15678 181.75 231 198 0 14.625 2169.4549732208 28954.02615837
14670	1645597 6958 11791 15678 181.5 231 199 486.63604736328 785.82187652588 111668.22572327 64598800.389153
14669	1652555 6905 11791 15678 181.5 231 199 238.35711669922 483.14999389648 87563.525024414 39558165.555073
vector 14790  IntersectionExampleScenario.node[70].veinsmobility  speed  ETV
vector 14795  IntersectionExampleScenario.node[71].veinsmobility  posx  ETV
vector 14796  IntersectionExampleScenario.node[71].veinsmobility  posy  ETV
vector 14791  IntersectionExampleScenario.node[70].veinsmobility  acceleration  ETV
vector 14792  IntersectionExampleScenario.node[70].veinsmobility  co2emission  ETV
vector 14797  IntersectionExampleScenario.node[71].veinsmobility  speed  ETV
vector 14802  IntersectionExampleScenario.node[72].veinsmobility  posx  ETV
vector 14803  IntersectionExampleScenario.node[72].veinsmobility  posy  ETV
vector 14798  IntersectionExampleScenario.node[71].veinsmobility  acceleration  ETV
vector 14799  IntersectionExampleScenario.node[71].veinsmobility  co2emission  ETV
vector 14804  IntersectionExampleScenario.node[72].veinsmobility  speed  ETV
vector 14805  IntersectionExampleScenario.node[72].veinsmobility  acceleration  ETV
vector 14806  IntersectionExampleScenario.node[72].veinsmobility  co2emission  ETV
14708	1660509 5348 12800 15841 194 233 157 0.973 11.648172402475 491.11373469502 2555.9227538148
14707	1665857 4861 12800 15841 194 233 157 -3.3734588623047 2.5 38.511121749878 228.96991140827
14706	1670718 5250 12777 15841 193.75 233 158 5.6500000953674 15.64999961853 2206.2372522354 31742.099810106
14705	1675968 5534 12754 15841 193.5 233 159 184.17810058594 486.85000610352 63312.003143311 26984278.755915
14704	1681502 5562 12754 15841 193.5 233 159 237.3369140625 486.85000610352 69044.777923584 30931258.106127
vector 14809  IntersectionExampleScenario.node[73].veinsmobility  posx  ETV
vector 14810  IntersectionExampleScenario.node[73].veinsmobility  posy  ETV
vector 14811  IntersectionExampleScenario.node[73].veinsmobility  speed  ETV
vector 14812  IntersectionExampleScenario.node[73].veinsmobility  acceleration  ETV
vector 14813  IntersectionExampleScenario.node[73].veinsmobility  co2emission  ETV
vector 14816  IntersectionExampleScenario.node[74].veinsmobility  posx  ETV
vector 14817  IntersectionExampleScenario.node[74].veinsmobility  posy  ETV
vector 14818  IntersectionExampleScenario.node[74].veinsmobility  speed  ETV
vector 14819  IntersectionExampleScenario.node[74].veinsmobility  acceleration  ETV
vector 14820  IntersectionExampleScenario.node[74].veinsmobility  co2emission  ETV
vector 14823  IntersectionExampleScenario.node[75].veinsmobility  posx  ETV
vector 14824  IntersectionExampleScenario.node[75].veinsmobility  posy  ETV
vector 14825  IntersectionExampleScenario.node[75].veinsmobility  speed  ETV
vector 14826  IntersectionExampleScenario.node[75].veinsmobility  acceleration  ETV
vector 14827  IntersectionExampleScenario.node[75].veinsmobility  co2emission  ETV
vector 14830  IntersectionExampleScenario.node[76].veinsmobility  posx  ETV
vector 14831  IntersectionExampleScenario.node[76].veinsmobility  posy  ETV
14715	1688421 5567 13163 16354 198 238.5 163 0.973 11.200708441096 478.89398781361 2389.2433290867
14714	1693988 5229 13163 16354 198 238.5 163 -3.4262809753418 2.5 35.964826583862 216.34465478012
14713	1699217 5468 13140 16354 197.75 238.5 164 5.6500000953674 15.02499961853 2226.0562019348 30983.180941832
14712	1704685 5739 13117 16354 197.5 238.5 165 177.97814941406 486.85000610352 65296.756286621 27744787.270587
14711	1710424 5765 13117 16354 197.5 238.5 165 238.30792236328 486.85000610352 71697.783660889 32133810.093976
vector 14832  IntersectionExampleScenario.node[76].veinsmobility  speed  ETV
vector 14833  IntersectionExampleScenario.node[76].veinsmobility  acceleration  ETV
vector 14834  IntersectionExampleScenario.node[76].veinsmobility  co2emission  ETV
vector 14837  IntersectionExampleScenario.node[77].veinsmobility  posx  ETV
vector 14838  IntersectionExampleScenario.node[77].veinsmobility  posy  ETV
vector 14839  IntersectionExampleScenario.node[77].veinsmobility  speed  ETV
vector 14840  IntersectionExampleScenario.node[77].veinsmobility  acceleration  ETV
vector 14841  IntersectionExampleScenario.node[77].veinsmobility  co2emission  ETV
14722	1716837 5402 13463 16666 201.75 241.25 159 0.973 11.648172402475 506.06911405185 2745.7899925527
14721	1722239 4983 13463 16666 201.75 241.25 159 -3.6878261566162 2.5 38.511121749878 283.61703918616
14720	1727222 5291 13443 16666 201.5 241.25 160 5.6500000953674 15.64999961853 2185.5029234886 31191.17982939
14719	1732513 5625 13422 16666 201.25 241.25 161 486.85000610352 785.82187652588 92174.911567688 54511495.982231
14718	1738138 5619 13422 16666 201.25 241.25 161 236.47479248047 483.14999389648 69598.767974854 31012881.593578
vector 14844  IntersectionExampleScenario.node[78].veinsmobility  posx  ETV
vector 14845  IntersectionExampleScenario.node[78].veinsmobility  posy  ETV
vector 14846  IntersectionExampleScenario.node[78].veinsmobility  speed  ETV
vector 14847  IntersectionExampleScenario.node[78].veinsmobility  acceleration  ETV
vector 14848  IntersectionExampleScenario.node[78].veinsmobility  co2emission  ETV
vector 14851  IntersectionExampleScenario.node[79].veinsmobility  posx  ETV
vector 14852  IntersectionExampleScenario.node[79].veinsmobility  posy  ETV
vector 14853  IntersectionExampleScenario.node[79].veinsmobility  speed  ETV
vector 14854  IntersectionExampleScenario.node[79].veinsmobility  acceleration  ETV
vector 14855  IntersectionExampleScenario.node[79].veinsmobility  co2emission  ETV
vector 14858  IntersectionExampleScenario.node[80].veinsmobility  posx  ETV
vector 14859  IntersectionExampleScenario.node[80].veinsmobility  posy  ETV
14701	1744713 6527 12733 17079 193.25 244.5 206 0.973 12.353032912318 609.68883712472 3269.6832969945
14700	1751240 6188 12733 17079 193.25 244.5 206 -7.5876388549805 4 41.90619468689 546.56333577211
14699	1757428 6273 12712 17079 193 244.5 207 0 16.625 2201.6903209686 32651.499138883
14698	1763701 7270 12691 17079 192.75 244.5 208 237.05773925781 486.85000610352 93318.152130127 42884293.772736
14697	1770971 7267 12691 17079 192.75 244.5 208 483.14999389648 785.82187652588 115145.06287384 65704126.098953
vector 14860  IntersectionExampleScenario.node[80].veinsmobility  speed  ETV
vector 14861  IntersectionExampleScenario.node[80].veinsmobility  acceleration  ETV
vector 14862  IntersectionExampleScenario.node[80].veinsmobility  co2emission  ETV
14736	1778485 5338 13793 17172 206 245.25 158 0.973 11.90022389248 511.4334604097 2881.9647954295
14735	1783823 5070 13793 17172 206 245.25 158 -4.5 2.5 39.020376205444 279.02397813174
14734	1788893 5263 13772 17172 205.75 245.25 159 5.6500000953674 16 2214.8354740143 31896.4412518
14733	1794156 5595 13751 17172 205.5 245.25 160 483.14999389648 734.73846435547 85721.848495483 46894782.5023
14732	1799751 5568 13751 17172 205.5 245.25 160 184.17810058594 486.85562133789 63800.913970947 27214711.47552
vector 14865  IntersectionExampleScenario.node[81].veinsmobility  posx  ETV
vector 14866  IntersectionExampleScenario.node[81].veinsmobility  posy  ETV
vector 14867  IntersectionExampleScenario.node[81].veinsmobility  speed  ETV
vector 14868  IntersectionExampleScenario.node[81].veinsmobility  acceleration  ETV
vector 14869  IntersectionExampleScenario.node[81].veinsmobility  co2emission  ETV
14729	1805720 5757 13675 17524 204.5 248 175 0.973 11.648172402475 527.22830654189 2835.7256534111
14728	1811477 5711 13675 17524 204.5 248 175 -2.1501121520996 2.5 38.341367721558 270.72824649545
14727	1817188 5902 13655 17524 204.25 248 176 4.9036550521851 15.64999961853 2207.505446434 29763.300194463
14726	1823090 6187 13634 17524 204 248 177 237.34344482422 486.85000610352 77794.357574463 35187514.582595
14725	1829277 6185 13634 17524 204 248 177 483.14999389648 785.82187652588 100559.92894745 58935180.493166
14750	1835462 5490 14126 17916 210 251.25 166 0.973 11.450879080643 510.79705187668 2892.8928923812
14749	1840952 5432 14126 17916 210 251.25 166 -3.5825271606445 2.5 36.98334312439 278.14506721159
14748	1846384 5555 14103 17916 209.75 251.25 167 5.6500000953674 15.375 2200.3070573807 29891.215873324
14747	1851939 5861 14080 17916 209.5 251.25 168 238.58087158203 486.85000610352 73323.525268555 32976963.233453
14746	1857800 5869 14080 17916 209.5 251.25 168 483.1311340332 785.82187652588 96096.64226532 56764493.674248
vector 14872  IntersectionExampleScenario.node[82].veinsmobility  posx  ETV
vector 14873  IntersectionExampleScenario.node[82].veinsmobility  posy  ETV
vector 14874  IntersectionExampleScenario.node[82].veinsmobility  speed  ETV
vector 14875  IntersectionExampleScenario.node[82].veinsmobility  acceleration  ETV
vector 14876  IntersectionExampleScenario.node[82].veinsmobility  co2emission  ETV
14757	1864070 5432 14755 18827 218.75 259.25 163 0.973 12.553400930962 572.5597206828 3483.4567061892
14756	1869502 5209 14755 18827 218.75 259.25 163 -7.4028387069702 4 42.754949569702 524.89185435473
14755	1874711 5371 14738 18827 218.5 259.25 164 0 16.89999961853 2195.3340556622 32890.891498633
14754	1880082 5754 14721 18827 218.25 259.25 165 483.14999389648 785.82187652588 93506.75907135 54766943.875841
14753	1885836 5771 14721 18827 218.25 259.25 165 483.14999389648 731.28695678711 87471.37097168 47286248.444561
14743	1891607 6757 14059 19007 209.25 261.25 209 0.973 11.00486315618 547.0458519641 2535.6811876294
14742	1898364 6184 14059 19007 209.25 261.25 209 -8.9526224136353 4 34.097539901733 462.04264641521
14741	1904548 6578 14038 19007 209 261.25 210 0 14.75 2197.2239997387 29230.551227342
14740	1911126 7350 14017 19007 208.75 261.25 211 184.17810058594 486.85000610352 87219.345184326 38076361.369303
14739	1918476 7373 14017 19007 208.75 261.25 211 237.28540039062 486.85000610352 93759.6065979 42775698.560955
14771	1925849 5479 15078 19206 223.25 263.75 163 0.973 11.200708441096 508.01506668037 2865.0103216113
14770	1931328 5233 15078 19206 223.25 263.75 163 -3.5119476318359 2.5 35.625318527222 261.05158494285
14769	1936561 5494 15059 19206 223 263.75 164 5.6500000953674 15.02499961853 2212.6538896561 30446.850546521
14768	1942055 5730 15040 19206 222.75 263.75 165 184.17810058594 732.6877746582 74007.449310303 37464774.354254
14767	1947785 5776 15040 19206 222.75 263.75 165 486.85000610352 486.85000610352 80330.25100708 39108783.193094
14785	1953561 5283 15412 19358 227.5 265.75 154 0.973 11.648172402475 472.37063277033 2468.6221642102
14784	1958844 4810 15412 19358 227.5 265.75 154 -3.3639106750488 2.5 38.511121749878 193.7515100159
14783	1963654 5192 15391 19358 227.25 265.75 155 5.6500000953674 15.64999961853 2221.4249238968 32483.241731561
14782	1968846 5428 15370 19358 227 265.75 156 235.65411376953 785.82187652588 81264.277168274 46487544.880767
14781	1974274 5460 15370 19358 227 265.75 156 483.14999389648 483.14999389648 75371.399047852 36415690.989939
14799	1979734 5299 15757 19707 232 270.75 156 0.973 11.36141391502 483.26653664627 2570.3964969788
14798	1985033 4937 15757 19707 232 270.75 156 -3.5418186187744 2.5 36.813589096069 273.31085477185
14797	1989970 5181 15737 19707 231.75 270.75 157 5.6500000953674 15.25 2089.0785870552 29007.572769791
14796	1995151 5512 15716 19707 231.5 270.75 158 486.85000610352 762.66562652588 89002.939041138 51572495.861496
14795	2000663 5522 15716 19707 231.5 270.75 158 236.9111328125 483.14999389648 67955.912689209 30155485.530998
vector 14879  IntersectionExampleScenario.node[83].veinsmobility  posx  ETV
vector 14880  IntersectionExampleScenario.node[83].veinsmobility  posy  ETV
vector 14881  IntersectionExampleScenario.node[83].veinsmobility  speed  ETV
vector 14882  IntersectionExampleScenario.node[83].veinsmobility  acceleration  ETV
vector 14883  IntersectionExampleScenario.node[83].veinsmobility  co2emission  ETV
14792	2006586 5583 15716 19808 231.5 272.25 164 0.973 11.450879080643 514.35409324655 2711.4481633497
14791	2012169 5193 15716 19808 231.5 272.25 164 -4.5 2.5 37.662351608276 288.74117555832
14790	2017362 5501 15697 19808 231.25 272.25 165 5.3355550765991 15.375 2231.4503312111 31297.63993509
14789	2022863 5800 15678 19808 231 272.25 166 482.97747802734 792.02188110352 95825.182296753 57301355.827219
14788	2028663 5798 15678 19808 231 272.25 166 483.14999389648 733.37838745117 88709.938278198 48389639.028104
14813	2034461 5500 15929 19954 234 274.5 163 0.973 12.099024792222 560.81351530349 3115.5804534652
14812	2039961 5152 15929 19954 234 274.5 163 -31.752834320068 4 41.396924972534 1383.4855266257
14811	2045113 5352 15906 19954 233.75 274.5 164 0 16.27499961853 2176.1433439255 32141.323250857
14810	2050465 5743 15883 19954 233.5 274.5 165 184.17810058594 483.25717163086 66199.034851074 28309537.159415
14809	2056208 5767 15883 19954 233.5 274.5 165 486.85000610352 732.73236083984 88138.266098022 47983846.257937
14764	2061975 6965 14895 19999 220.75 275.25 219 0.973 11.648172402475 593.2404974766 2964.1723062866
14763	2068940 6141 14895 19999 220.75 275.25 219 -33.657894134521 4 38.341367721558 1488.3179107813
14762	2075081 6598 14876 19999 220.5 275.25 220 0 15.64999961853 2198.2840251923 31508.526635168
14761	2081679 7734 14857 19999 220.25 275.25 221 237.29504394531 486.85000610352 99218.902618408 45619959.694955
14760	2089413 7729 14857 19999 220.25 275.25 221 483.14999389648 785.82187652588 121838.97795868 69186060.314384
vector 14886  IntersectionExampleScenario.node[84].veinsmobility  posx  ETV
vector 14887  IntersectionExampleScenario.node[84].veinsmobility  posy  ETV
vector 14888  IntersectionExampleScenario.node[84].veinsmobility  speed  ETV
14778	2097374 6810 15158 20071 224.25 276.75 211 0.97223939240464 11.648172402475 584.28255326709 2811.6005290318
14777	2104184 6509 15158 20071 224.25 276.75 211 -7.1630792617798 4 38.680875778198 447.20474940423
14776	2110693 6831 15137 20071 224 276.75 212 0 15.64999961853 2216.1315991879 31137.023270985
14775	2117524 7456 15116 20071 223.75 276.75 213 483.14999389648 483.14999389648 102910.94869995 49721424.236263
14774	2124980 7418 15116 20071 223.75 276.75 213 184.17810058594 734.10809326172 96987.41217041 48332523.094517
vector 14889  IntersectionExampleScenario.node[84].veinsmobility  acceleration  ETV
vector 14890  IntersectionExampleScenario.node[84].veinsmobility  co2emission  ETV
14827	2132567 5532 16279 20165 237.75 279 166 0.973 11.450879080643 542.17663584619 3185.9289018733
14826	2138099 5398 16279 20165 237.75 279 166 -3.5126571655273 2.5 36.643835067749 326.79572460647
14825	2143497 5551 16254 20165 237.5 279 167 5.6500000953674 15.375 2209.4358921051 30176.247855753
14824	2149048 5871 16229 20165 237.25 279 168 483.14999389648 734.03833007812 89858.590789795 49067576.845254
14823	2154919 5855 16229 20165 237.25 279 168 184.17810058594 486.8708190918 67017.336517334 28539014.852447
14862	2160774 5099 17141 20233 245 282.25 150 0.973 12.08353531307 502.31627424894 2743.2200867441
14861	2165873 4926 17141 20233 245 282.25 150 -3.248592376709 2.5 41.227170944214 213.05844276512
14860	2170799 5055 17110 20233 244.75 282.25 151 5.6500000953674 16.253606796265 2222.0489311218 33473.186895335
14859	2175854 5320 17079 20233 244.5 282.25 152 483.14999389648 483.14999389648 73438.799072266 35481955.32353
14858	2181174 5286 17079 20233 244.5 282.25 152 184.17810058594 734.2917175293 67981.385971069 34455431.711237
14869	2186460 5550 17331 20333 246.5 287.25 164 0.973 11.810082123732 520.40266338512 2881.7402901727
14868	2192010 5162 17331 20333 246.5 287.25 164 -3.2660484313965 2.5 38.850629806519 281.00337478682
14867	2197172 5442 17298 20333 246.25 287.25 165 5.6500000953674 15.875 2262.365650177 32447.210021873
14866	2202614 5803 17265 20333 246 287.25 166 237.55255126953 483.14999389648 72125.688476562 32262691.379127
14865	2208417 5783 17265 20333 246 287.25 166 163.88433837891 483.14999389648 64668.266967773 27244180.653838
14820	2214200 7033 16045 20403 235.25 290.75 223 0.973 12.353032912318 631.02858224172 3246.2825223409
14819	2221233 6552 16045 20403 235.25 290.75 223 -4.5 2.5 42.754949569702 502.09572923022
14818	2227785 6766 16022 20403 235 290.75 224 0 16.625 2320.8443536758 34200.36426926
14817	2234551 7869 15998 20403 234.75 290.75 225 482.94256591797 813.34684753418 126314.65551758 73362874.920759
14816	2242420 7869 15998 20403 234.75 290.75 225 483.14999389648 734.47811889648 116666.03533936 61541005.41817
14806	2250289 7402 15799 20403 232.5 290.75 234 0.973 11.36141391502 591.40779119048 2683.8599281923
14805	2257691 7031 15799 20403 232.5 290.75 234 -21.856220245361 4 35.964826583862 838.68067917717
14804	2264722 7109 15778 20403 232.25 290.75 235 0 15.25 2280.3634757996 30974.246396073
14803	2271831 8248 15757 20403 232 290.75 236 486.63604736328 811.3120880127 132727.53133392 77247713.003436
14802	2280079 8187 15757 20403 232 290.75 236 236.85040283203 483.14999389648 105532.73272705 48278022.188866
14834	2288266 6763 16408 20428 239 292 213 0.973 11.912134653501 617.79492857624 3294.4370821255
14833	2295029 6890 16408 20428 239 292 213 -8.200852394104 4 40.966009140015 509.0120464545
14832	2301919 6891 16381 20428 238.75 292 214 0 16.016502380371 2196.6708467603 30803.423987908
14831	2308810 7496 16354 20428 238.5 292 215 184.17810058594 486.85000610352 89765.93572998 39473703.399586
14830	2316306 7515 16354 20428 238.5 292 215 237.98657226562 486.85000610352 96137.674407959 44065231.569793
14848	2323821 6496 16786 20443 242.25 292.75 203 0.973 12.099024792222 578.41389230951 3079.1486435305
14847	2330317 6705 16786 20443 242.25 292.75 203 -3.8589181900024 2.5 40.038900375366 359.53141465512
14846	2337022 6951 16755 20443 242 292.75 204 0 16.27499961853 2208.9832571372 30434.233927689
14845	2343973 7140 16724 20443 241.75 292.75 205 238.71240234375 785.82187652588 107047.77143097 59924088.575125
14844	2351113 7176 16724 20443 241.75 292.75 205 483.14999389648 483.14999389648 99045.748748779 47853952.903445
14841	2358289 7250 16521 20473 240 294.25 218 0.973 11.822200101016 640.90120444814 3416.9494675582
14840	2365539 6964 16521 20473 240 294.25 218 -20.398145675659 4 40.038900375366 952.88294881406
14839	2372503 7406 16491 20473 239.75 294.25 219 0 15.891815185547 2272.6717116013 31984.2799895
14838	2379909 7660 16462 20473 239.5 294.25 220 162.00311279297 483.32485961914 89648.12097168 38832536.839851
14837	2387569 7693 16462 20473 239.5 294.25 220 486.85000610352 735.01206970215 115204.27130127 61363557.026664
14876	2395262 5717 18065 20493 252.5 295.25 172 0.973 11.200708441096 518.90831730781 2732.4706324272
14875	2400979 5464 18065 20493 252.5 295.25 172 -4.5 2.5 35.964826583862 286.00244702203
14874	2406443 5836 18034 20493 252.25 295.25 173 5.6500000953674 15.02499961853 2218.2478308678 29588.004789857
14873	2412279 6050 18003 20493 252 295.25 174 184.17810058594 733.82664489746 77983.945648193 39235327.363618
14872	2418329 6089 18003 20493 252 295.25 174 486.85000610352 486.85000610352 84711.901062012 41241989.549081
14855	2424418 6933 16883 20506 243 296.25 214 0.973 11.643836499143 591.0835905644 3007.0569912357
14854	2431351 7146 16883 20506 243 296.25 214 -4.5 2.5000019073486 37.662351608276 403.41959458147
14853	2438497 7213 16850 20506 242.75 296.25 215 1.9566377401352 15.64396572113 2283.0603970289 29466.071631783
14852	2445710 7546 16817 20506 242.5 296.25 216 486.85000610352 808.82032012939 123467.13374329 72776872.402827
14851	2453256 7550 16817 20506 242.5 296.25 216 235.30084228516 483.14999389648 95987.784820557 43711281.940099
vector 14893  IntersectionExampleScenario.node[85].veinsmobility  posx  ETV
vector 14894  IntersectionExampleScenario.node[85].veinsmobility  posy  ETV
vector 14895  IntersectionExampleScenario.node[85].veinsmobility  speed  ETV
vector 14896  IntersectionExampleScenario.node[85].veinsmobility  acceleration  ETV
vector 14897  IntersectionExampleScenario.node[85].veinsmobility  co2emission  ETV
14883	2461207 5599 19757 20647 271.5 312.5 165 0.973 11.00486315618 468.67736884364 2243.5947473013
14882	2466806 5059 19757 20647 271.5 312.5 165 -3.4362564086914 2.5 34.437047958374 207.39728864754
14881	2471865 5536 19740 20647 271.25 312.5 166 5.6500000953674 14.75 2208.3200445175 30048.182560628
14880	2477401 5829 19723 20647 271 312.5 167 483.14999389648 733.64772033691 89669.992233276 49166687.340593
14879	2483230 5817 19723 20647 271 312.5 167 184.17810058594 486.85000610352 66556.325561523 28364625.166812
[...]
vector 17750  IntersectionExampleScenario.node[493].veinsmobility  posy  ETV
vector 17751  IntersectionExampleScenario.node[493].veinsmobility  speed  ETV
vector 17756  IntersectionExampleScenario.node[494].veinsmobility  posx  ETV
vector 17757  IntersectionExampleScenario.node[494].veinsmobility  posy  ETV
vector 17752  IntersectionExampleScenario.node[493].veinsmobility  acceleration  ETV
vector 17753  IntersectionExampleScenario.node[493].veinsmobility  co2emission  ETV
vector 17758  IntersectionExampleScenario.node[494].veinsmobility  speed  ETV
vector 17759  IntersectionExampleScenario.node[494].veinsmobility  acceleration  ETV
vector 17760  IntersectionExampleScenario.node[494].veinsmobility  co2emission  ETV
17676	14847680 5593 117122 120771 1732.5 1771.75 158 0.973 11.810082123732 517.44956809958 3022.0884247082
17675	14853273 5532 117122 120771 1732.5 1771.75 158 -3.5723171234131 2.5 39.020376205444 302.41505285412
17674	14858805 5555 117085 120771 1732.25 1771.75 159 5.6500000953674 15.882788658142 2181.037466526 31325.609046828
17673	14864360 5913 117048 120771 1732 1771.75 160 486.83074951172 785.82187652588 91622.314918518 54198821.776229
17672	14870273 5913 117048 120771 1732 1771.75 160 237.5078125 483.14999389648 69246.445495605 30878264.052349
vector 17763  IntersectionExampleScenario.node[495].veinsmobility  posx  ETV
vector 17764  IntersectionExampleScenario.node[495].veinsmobility  posy  ETV
17662	14876342 6785 116201 121032 1726.5 1775.5 197 0.973 11.36141391502 563.98799662395 2885.7798544659
17661	14883127 6542 116201 121032 1726.5 1775.5 197 -8.7686195373535 4 36.98334312439 494.33426352883
17660	14889669 6611 116162 121032 1726.25 1775.5 198 0 15.25 2174.1128833294 29993.357965897
17659	14896280 7300 116123 121032 1726 1775.5 199 237.36993408203 483.14999389648 87823.000396729 39770764.11072
17658	14903580 7329 116123 121032 1726 1775.5 199 184.17810058594 483.36395263672 81679.870422363 35442497.73354
vector 17765  IntersectionExampleScenario.node[495].veinsmobility  speed  ETV
17648	14910988 7517 115325 121049 1720.75 1775.75 221 0.973 11.200708441096 579.32375634585 2749.6075098818
17647	14918505 7096 115325 121049 1720.75 1775.75 221 -9.7543478012085 4 35.964826583862 532.57383543207
17646	14925601 7292 115288 121049 1720.5 1775.75 222 0 15.02499961853 2255.9791266918 31134.433306434
17645	14932893 8253 115251 121049 1720.25 1775.75 223 486.85000610352 486.85000610352 108567.55136108 52856113.042787
17644	14941146 8240 115251 121049 1720.25 1775.75 223 237.70941162109 798.40938568115 115864.32817078 64763376.622028
vector 17766  IntersectionExampleScenario.node[495].veinsmobility  acceleration  ETV
vector 17767  IntersectionExampleScenario.node[495].veinsmobility  co2emission  ETV
17683	14949557 5906 117396 121133 1734.5 1777 171 0.973 11.200708441096 567.61501951633 2973.8747698491
17682	14955463 5875 117396 121133 1734.5 1777 171 -2.7591896057129 2.5 44.66530418396 279.11808120493
17681	14961338 6142 117361 121133 1734.25 1777 172 4.989426612854 16.889238357544 2212.5965342522 30738.083639409
17680	14967480 6399 117326 121133 1734 1777 173 486.85000610352 486.85000610352 84225.051055908 41004966.620638
17679	14973879 6378 117326 121133 1734 1777 173 238.44110107422 785.82187652588 91491.076347351 52340579.570522
17669	14980257 6842 116361 121148 1727.5 1777.25 200 0.973 11.36141391502 544.13579331552 2729.7538673627
17668	14987099 7007 116361 121148 1727.5 1777.25 200 -3.9034717082977 2.5000009536743 36.813589096069 344.76789321652
17667	14994106 7138 116320 121148 1727.25 1777.25 201 0 15.25 2183.0542238392 28744.140137161
17666	15001244 7450 116279 121148 1727 1777.25 202 486.85000610352 732.95906066895 106716.18122864 57400992.481534
17665	15008694 7459 116279 121148 1727 1777.25 202 486.85000610352 785.82187652588 113461.52475739 65602217.786351
vector 17770  IntersectionExampleScenario.node[496].veinsmobility  posx  ETV
vector 17771  IntersectionExampleScenario.node[496].veinsmobility  posy  ETV
vector 17772  IntersectionExampleScenario.node[496].veinsmobility  speed  ETV
vector 17773  IntersectionExampleScenario.node[496].veinsmobility  acceleration  ETV
vector 17774  IntersectionExampleScenario.node[496].veinsmobility  co2emission  ETV
vector 17777  IntersectionExampleScenario.node[497].veinsmobility  posx  ETV
vector 17778  IntersectionExampleScenario.node[497].veinsmobility  posy  ETV
17690	15016715 5644 118114 121344 1740.75 1780.5 160 0.973 11.648172402475 488.90650712974 2717.7320642406
17689	15022359 5487 118114 121344 1740.75 1780.5 160 -3.1709213256836 2.5 38.511121749878 216.39988508393
17688	15027846 5719 118089 121344 1740.5 1780.5 161 5.6500000953674 15.64999961853 2222.7179002762 31378.790696421
17687	15033565 5995 118064 121344 1740.25 1780.5 162 486.85000610352 486.85000610352 78869.70098877 38397714.407765
17686	15039560 5982 118064 121344 1740.25 1780.5 162 235.40972900391 785.82187652588 84609.918708801 48365123.349609
vector 17779  IntersectionExampleScenario.node[497].veinsmobility  speed  ETV
vector 17784  IntersectionExampleScenario.node[498].veinsmobility  posx  ETV
vector 17785  IntersectionExampleScenario.node[498].veinsmobility  posy  ETV
vector 17780  IntersectionExampleScenario.node[497].veinsmobility  acceleration  ETV
vector 17781  IntersectionExampleScenario.node[497].veinsmobility  co2emission  ETV
vector 17791  IntersectionExampleScenario.node[499].veinsmobility  posx  ETV
vector 17792  IntersectionExampleScenario.node[499].veinsmobility  posy  ETV
vector 17786  IntersectionExampleScenario.node[498].veinsmobility  speed  ETV
vector 17787  IntersectionExampleScenario.node[498].veinsmobility  acceleration  ETV
vector 17788  IntersectionExampleScenario.node[498].veinsmobility  co2emission  ETV
vector 17793  IntersectionExampleScenario.node[499].veinsmobility  speed  ETV
vector 17794  IntersectionExampleScenario.node[499].veinsmobility  acceleration  ETV
vector 17795  IntersectionExampleScenario.node[499].veinsmobility  co2emission  ETV
vector 17798  IntersectionExampleScenario.node[500].veinsmobility  posx  ETV
vector 17799  IntersectionExampleScenario.node[500].veinsmobility  posy  ETV
vector 17800  IntersectionExampleScenario.node[500].veinsmobility  speed  ETV
vector 17801  IntersectionExampleScenario.node[500].veinsmobility  acceleration  ETV
vector 17802  IntersectionExampleScenario.node[500].veinsmobility  co2emission  ETV
vector 17805  IntersectionExampleScenario.node[501].veinsmobility  posx  ETV
vector 17806  IntersectionExampleScenario.node[501].veinsmobility  posy  ETV
vector 17807  IntersectionExampleScenario.node[501].veinsmobility  speed  ETV
vector 17808  IntersectionExampleScenario.node[501].veinsmobility  acceleration  ETV
vector 17809  IntersectionExampleScenario.node[501].veinsmobility  co2emission  ETV
vector 17812  IntersectionExampleScenario.node[502].veinsmobility  posx  ETV
vector 17813  IntersectionExampleScenario.node[502].veinsmobility  posy  ETV
vector 17814  IntersectionExampleScenario.node[502].veinsmobility  speed  ETV
vector 17815  IntersectionExampleScenario.node[502].veinsmobility  acceleration  ETV
vector 17816  IntersectionExampleScenario.node[502].veinsmobility  co2emission  ETV
17711	15047822 5898 118745 121990 1746.75 1787.5 164 0.973 11.200708441096 489.18991891622 2474.8953455387
17710	15053720 5336 118745 121990 1746.75 1787.5 164 -3.4310665130615 2.5 35.795072555542 256.38855581272
17709	15059056 5812 118720 121990 1746.5 1787.5 165 5.6500000953674 15.02499961853 2178.6426405907 29893.988256713
17708	15064868 6139 118695 121990 1746.25 1787.5 166 238.04205322266 483.14999389648 71761.217559814 31969554.090544
17707	15071007 6124 118695 121990 1746.25 1787.5 166 184.17810058594 483.14999389648 66009.311065674 28025662.921782
17704	15077131 6507 118349 122223 1743 1789.75 188 0.973 11.810082123732 572.08852026984 3077.1186353821
17703	15083638 6138 118349 122223 1743 1789.75 188 -7.8326768875122 4 40.208654403687 502.24529693999
17702	15089776 6316 118320 122223 1742.75 1789.75 189 0 15.875 2171.0365066528 31300.556407932
17701	15096092 7004 118291 122223 1742.5 1789.75 190 184.17810058594 483.36395263672 77807.031280518 33724579.068612
17700	15103096 6957 118291 122223 1742.5 1789.75 190 486.85000610352 731.43809509277 100351.55215454 53952540.022783
17697	15110053 6684 118320 122292 1742.75 1790.5 192 0.973 11.200708441096 555.36501636493 2731.2953566364
17696	15116737 6081 118320 122292 1742.75 1790.5 192 -7.3439340591431 4 37.32285118103 465.44430992275
17695	15122818 6566 118291 122292 1742.5 1790.5 193 0 15.034308433533 2211.3708407879 30905.404831852
17694	15129384 7162 118264 122292 1742.25 1790.5 194 236.58508300781 785.82187652588 100298.42256927 56066256.565621
17693	15136546 7179 118264 122292 1742.25 1790.5 194 483.14999389648 483.14999389648 93731.098815918 45286179.820821
vector 17819  IntersectionExampleScenario.node[503].veinsmobility  posx  ETV
vector 17820  IntersectionExampleScenario.node[503].veinsmobility  posy  ETV
17718	15143881 5800 119147 122463 1751.5 1792.5 165 0.973 11.648172402475 511.76222272962 2801.4098879252
17717	15149681 5657 119147 122463 1751.5 1792.5 165 -2.088996887207 2.5000019073486 38.850629806519 243.42585577307
17716	15155338 5940 119126 122463 1751.25 1792.5 166 5.6500000953674 15.64999961853 2213.0413742065 30788.231290379
17715	15161278 6166 119105 122463 1751 1792.5 167 238.03735351562 785.82187652588 87439.154426575 49879639.917155
17714	15167444 6178 119105 122463 1751 1792.5 167 483.14999389648 483.14999389648 80686.048980713 38983464.072563
vector 17826  IntersectionExampleScenario.node[504].veinsmobility  posx  ETV
vector 17827  IntersectionExampleScenario.node[504].veinsmobility  posy  ETV
vector 17821  IntersectionExampleScenario.node[503].veinsmobility  speed  ETV
vector 17822  IntersectionExampleScenario.node[503].veinsmobility  acceleration  ETV
vector 17823  IntersectionExampleScenario.node[503].veinsmobility  co2emission  ETV
vector 17828  IntersectionExampleScenario.node[504].veinsmobility  speed  ETV
vector 17833  IntersectionExampleScenario.node[505].veinsmobility  posx  ETV
vector 17834  IntersectionExampleScenario.node[505].veinsmobility  posy  ETV
vector 17829  IntersectionExampleScenario.node[504].veinsmobility  acceleration  ETV
vector 17830  IntersectionExampleScenario.node[504].veinsmobility  co2emission  ETV
vector 17835  IntersectionExampleScenario.node[505].veinsmobility  speed  ETV
vector 17836  IntersectionExampleScenario.node[505].veinsmobility  acceleration  ETV
vector 17837  IntersectionExampleScenario.node[505].veinsmobility  co2emission  ETV
17732	15174684 5858 119482 122860 1755.25 1796.25 165 0.973 11.648172402475 537.48525116803 3081.6657782094
17731	15180542 5555 119482 122860 1755.25 1796.25 165 -4.5958862304688 2.5 38.341367721558 348.01272824596
17730	15186097 5822 119457 122860 1755 1796.25 166 5.6500000953674 15.64999961853 2215.6599092484 30877.167650784
17729	15191919 6164 119432 122860 1754.75 1796.25 167 486.79187011719 793.78281402588 96057.996109009 57116577.272191
17728	15198083 6168 119432 122860 1754.75 1796.25 167 236.74993896484 483.14999389648 72489.832275391 32405174.408763
17725	15204251 6228 119340 123266 1753.75 1800 186 0.973 11.90022389248 544.39502541701 2961.4503749195
17724	15210479 6137 119340 123266 1753.75 1800 186 -7.1241755485535 4 39.699514389038 483.53130633393
17723	15216616 6044 119317 123266 1753.5 1800 187 0 16 1892.8373166323 26867.299907606
17722	15222660 6950 119294 123266 1753.25 1800 188 483.14999389648 660.66813659668 95040.54208374 48448198.09556
17721	15229610 6924 119294 123266 1753.25 1800 188 184.17810058594 486.85000610352 76728.24005127 33170286.739067
17739	15236534 5223 120013 123266 1761.5 1800 155 0.973 11.810082123732 483.0836223964 2885.1522828355
17738	15241757 5378 120013 123266 1761.5 1800 155 -2.9882946014404 2.5 38.854307174683 320.98272773948
17737	15247135 5435 119994 123266 1761.25 1800 156 2.7973413467407 15.875 1737.2626810074 22328.027704508
17736	15252570 5800 119975 123266 1761 1800 157 348.85180664062 483.14999389648 73337.181152344 34437579.584054
17735	15258370 5780 119975 123266 1761 1800 157 184.17810058594 483.16314697266 61027.659210205 25289766.108016
17746	15264150 5345 120073 123266 1762.25 1800 152 0.973 11.648172402475 504.06854425852 2856.1341967927
17745	15269495 5281 120073 123266 1762.25 1800 152 -8.974760055542 4 38.850629806519 505.45647591585
17744	15274776 5297 120053 123266 1762 1800 153 0 15.64999961853 1895.6976981163 26751.056698837
17743	15280073 5697 120032 123266 1761.75 1800 154 486.85000610352 486.85000610352 74974.900939941 36501530.980221
17742	15285770 5688 120032 123266 1761.75 1800 154 315.56018066406 785.82187652588 84983.306587219 49616194.643627
17753	15291458 4021 120572 123266 1769.25 1800 124 0.973 11.648172402475 303.45016075703 1494.9521340674
17752	15295479 3756 120572 123266 1769.25 1800 124 -6.9388580322266 2.5 -22.60000038147 320.5938017566
17751	15299235 4074 120553 123266 1769 1800 125 0 15.64999961853 1147.376349926 16386.767929833
17750	15303309 4652 120534 123266 1768.75 1800 126 498.39999389648 785.82187652588 75460.928916931 46512759.399145
17749	15307961 4661 120534 123266 1768.75 1800 126 483.14999389648 483.14999389648 60876.899230957 29412673.491874
17760	15312622 3965 120614 123266 1769.75 1800 122 0.973 11.648172402475 306.34130529041 1579.0954159792
17759	15316587 3890 120614 123266 1769.75 1800 122 -7.7771649360657 2.5 -22.60000038147 345.09300979777
17758	15320477 4041 120593 123266 1769.5 1800 123 0 15.64999961853 1146.2994488478 16058.763702948
17757	15324518 4566 120572 123266 1769.25 1800 124 184.17810058594 471.60000610352 45656.876617432 18101123.891356
17756	15329084 4588 120572 123266 1769.25 1800 124 486.85000610352 486.85000610352 60369.400756836 29390843.126931
17767	15333672 3150 121066 123266 1776 1800 97 0.973 11.648172402475 266.43722118608 1449.951846579
17766	15336822 3600 121066 123266 1776 1800 97 -3.049877166748 2.5 -16.098442554474 198.05925115
17765	15340422 3609 121049 123266 1775.75 1800 98 1.625389456749 16.012912750244 1109.3962104321 15134.09368918
17764	15344031 3635 121032 123266 1775.5 1800 99 184.17810058594 461.1867980957 33739.311767578 12387017.824544
17763	15347666 3662 121032 123266 1775.5 1800 99 486.85000610352 486.85000610352 48198.150604248 23465269.915856
17774	15351328 2936 121314 123266 1780 1800 81 0.973 10.529436170513 267.8931801478 1378.1540156269
17773	15354264 2630 121314 123266 1780 1800 81 -4.5 2.5 31.955564498901 195.44963058881
17772	15356894 3030 121299 123266 1779.75 1800 82 5.3593583106995 14.521560668945 1001.3713693619 13176.359956759
17771	15359924 3070 121283 123266 1779.5 1800 83 483.14999389648 483.14999389648 40101.449493408 19375015.07798
17770	15362994 3052 121283 123266 1779.5 1800 83 184.17810058594 430.31582641602 24056.862640381 7462698.6295774
17781	15366046 2800 121378 123266 1781 1800 77 0.973 11.200708441096 245.07068237636 1300.7724912526
17780	15368846 2582 121378 123266 1781 1800 77 -2.7259712219238 2.5 30.381387710571 108.81997044252
17779	15371428 2869 121361 123266 1780.75 1800 78 5.6500000953674 15.02499961853 1069.776892662 15037.039034939
17778	15374297 2922 121344 123266 1780.5 1800 79 486.85000610352 486.85000610352 38461.150482178 18724811.346996
17777	15377219 2915 121344 123266 1780.5 1800 79 522.82489013672 785.82187652588 52424.358375549 35306840.011401
17788	15380134 2716 121418 123266 1781.5 1800 75 0.973 10.890793864427 258.47524566619 1306.0510779137
17787	15382850 2709 121418 123266 1781.5 1800 75 -4.238468170166 2.5 34.339002609253 108.15105713271
17786	15385559 2807 121397 123266 1781.25 1800 76 5.6500000953674 16.139154434204 1016.7551026344 14386.55959067
17785	15388366 2847 121378 123266 1781 1800 77 483.14999389648 483.14999389648 37202.549530029 17974411.578367
17784	15391213 2838 121378 123266 1781 1800 77 163.88433837891 413.53137207031 20908.390411377 6136239.6893987
17795	15394051 2668 121439 123266 1781.75 1800 74 0.973 11.200708441096 239.71822680976 1292.9025133891
17794	15396719 2516 121439 123266 1781.75 1800 74 -2.8643531799316 2.5 21.39999961853 134.39418533835
17793	15399235 2745 121418 123266 1781.5 1800 75 5.6500000953674 15.02499961853 1031.1494274139 14581.553477025
17792	15401980 2812 121397 123266 1781.25 1800 76 483.14999389648 483.14999389648 36719.399536133 17740977.661765
17791	15404792 2798 121397 123266 1781.25 1800 76 214.94219970703 469.54669189453 25348.093505859 8929392.2911482
17802	15407590 2612 121506 123266 1782.5 1800 71 1.9868928558056 9.6520614026431 240.04228860922 1088.7182692782
17801	15410202 2772 121506 123266 1782.5 1800 71 -0.048675537109375 2.5 38.856439590454 66.092566005409
17800	15412974 2658 121483 123266 1782.25 1800 72 5.5636706352234 15.326455116272 935.9333486557 12818.988097423
17799	15415632 2699 121460 123266 1782 1800 73 483.14999389648 483.14999389648 35269.949554443 17040675.911959
17798	15418331 2693 121460 123266 1782 1800 73 151.85626220703 380.81420898438 18328.921081543 4967805.3995672
17809	15421024 2100 121832 123266 1786 1800 57 1.9843671058383 10.274894611728 218.56039349915 1209.4801728037
17808	15423124 2163 121832 123266 1786 1800 57 -0.056774139404297 2.5 39.020387649536 87.083559152834
17807	15425287 2134 121807 123266 1785.75 1800 58 5.6500000953674 15.461867332458 798.09048461914 11419.662110122
17806	15427421 2182 121782 123266 1785.5 1800 59 483.14999389648 483.14999389648 28505.849639893 13772601.079528
17805	15429603 2180 121782 123266 1785.5 1800 59 155.81066894531 350.18078613281 14288.335571289 3677169.4377054
17816	15431783 1932 121936 123266 1787 1800 53 0.973 11.200708441096 195.88841780114 1198.287240401
17815	15433715 1911 121936 123266 1787 1800 53 -0.5 2.5 35.455591201782 94.340745310375
17814	15435626 1984 121909 123266 1786.75 1800 54 5.6500000953674 15.02499961853 718.47220516205 9892.6199612982
17813	15437610 2006 121882 123266 1786.5 1800 55 184.17810058594 358.9485168457 14466.184112549 3969192.0257699
17812	15439616 2034 121882 123266 1786.5 1800 55 486.85000610352 486.85000610352 26776.750335693 13036261.064365
17823	15441650 1058 122511 123266 1793 1800 29 0.973 11.648172402475 156.92263875896 1230.3624248519
17822	15442708 925 122511 123266 1793 1800 29 -0.41465759277344 2.5 38.380765914917 100.3927800518
17821	15443633 1099 122486 123266 1792.75 1800 30 5.6500000953674 15.64999961853 380.32384109497 5142.2853114015
17820	15444732 1146 122463 123266 1792.5 1800 31 483.14999389648 483.14999389648 14977.649810791 7236451.4146674
17819	15445878 1121 122463 123266 1792.5 1800 31 184.17810058594 274.13983154297 6868.4468383789 1547003.915532
17830	15446999 1033 122536 123266 1793.25 1800 28 2.0947737808434 11.648172402475 160.36723458488 1245.7087590484
17829	15448032 893 122536 123266 1793.25 1800 28 -0.03271484375 2.5 39.873285293579 100.00243433017
17828	15448925 1059 122511 123266 1793 1800 29 5.6500000953674 15.64999961853 368.55244827271 5017.3221610863
17827	15449984 1109 122486 123266 1792.75 1800 30 698.91491699219 785.82187652588 22501.825202942 16900400.359562
17826	15451093 1109 122486 123266 1792.75 1800 30 483.14999389648 483.14999389648 14494.499816895 7003017.4980652
17837	15452202 957 122590 123266 1793.75 1800 26 2.1223690753319 11.200708441096 154.99684958731 1151.2336765043
17836	15453159 808 122590 123266 1793.75 1800 26 -0.023963928222656 2.5 39.739828109741 94.409655366213
17835	15453967 987 122563 123266 1793.5 1800 27 5.6500000953674 15.598812103271 334.96118545532 4456.7022205184
17834	15454954 1019 122536 123266 1793.25 1800 28 184.17810058594 262.72888183594 6055.9470825195 1327008.5077142
17833	15455973 1036 122536 123266 1793.25 1800 28 486.85000610352 486.85000610352 13631.800170898 6636641.9964038
14294	15457009 622 0 123265 0 1800 31 0 23 369 5027
14295	15457631 635 0 123265 0 1800 31 0 134 2039 180027
