version 2
run nodebug-37-20200606-16:05:10-20656
attr configname nodebug
attr datetime 20200606-16:05:10
attr experiment nodebug
attr inifile omnetpp.ini
attr iterationvars ""
attr iterationvars2 $repetition=37
attr measurement ""
attr network "\"org.car2x.veins.modules.application.ExtTraCIScenarioManagerLaunchd.IntersectionExampleScenario\""
attr processid 20656
attr repetition 37
attr replication #37
attr resultdir results
attr runnumber 37
attr seedset 37
param **.coreDebug false
param **.debug false
param *.**.nic.mac1609_4.bitrate 18Mbps
param *.**.nic.mac1609_4.txPower 20mW
param *.**.nic.mac1609_4.useServiceChannel false
param *.**.nic.phy80211p.analogueModels "xmldoc(\"config.xml\")"
param *.**.nic.phy80211p.decider "xmldoc(\"config.xml\")"
param *.**.nic.phy80211p.sensitivity -89dBm
param *.**.nic.phy80211p.thermalNoise -110dBm
param *.**.nic.phy80211p.usePropagationDelay true
param *.**.nic.phy80211p.useThermalNoise true
param *.annotations.draw false
param *.connectionManager.alpha 2.0
param *.connectionManager.carrierFrequency "5.890e9 Hz"
param *.connectionManager.pMax 20mW
param *.connectionManager.sat -89dBm
param *.connectionManager.sendDirect true
param *.manager.autoShutdown true
param *.manager.host "\"localhost\""
param *.manager.launchConfig "xmldoc(\"paramics.launchd.xml\")"
param *.manager.margin 25
param *.manager.moduleDisplayString "\"\""
param *.manager.moduleName "\"node\""
param *.manager.moduleType "\"org.car2x.veins.nodes.Car\""
param *.manager.port 9999
param *.manager.updateInterval 250ms
param *.node[*0].veinsmobility.accidentCount 0
param *.node[*0].veinsmobility.accidentDuration 30s
param *.node[*0].veinsmobility.accidentStart 75s
param *.node[*].appl.LiderSelectZoneRadio 55.0
param *.node[*].appl.ShareDataZoneRadio 110.0
param *.node[*].appl.TiempoSemaforo 30.0
param *.node[*].appl.beaconInterval 1s
param *.node[*].appl.beaconPriority 3
param *.node[*].appl.dataOnSch false
param *.node[*].appl.dataPriority 2
param *.node[*].appl.debug false
param *.node[*].appl.headerLength "256 bit"
param *.node[*].appl.maxOffset 0.005s
param *.node[*].appl.sendBeacons false
param *.node[*].appl.sendData true
param *.node[*].applType "\"Dummy\""
param *.node[*].mobilityType "\"TraCIMobility\""
param *.node[*].mobilityType.debug true
param *.node[*].veinsmobility.x 0
param *.node[*].veinsmobility.y 0
param *.node[*].veinsmobility.z 1.895
param *.node[*].veinsmobilityType "\"org.car2x.veins.modules.mobility.traci.TraCIMobility\""
param *.node[*].veinsmobilityType.debug true
param *.playgroundSizeX 8500m
param *.playgroundSizeY 8500m
param *.playgroundSizeZ 50m
param *.world.use2D false
param *.world.useTorus false

scalar IntersectionExampleScenario.node[0].appl 	VehicleRemoved 	0
scalar IntersectionExampleScenario.node[0].appl 	ArrivedAtDest 	1
scalar IntersectionExampleScenario.node[0].appl 	IntersectionEnterTime 	0.75
scalar IntersectionExampleScenario.node[0].appl 	IntersectionExitTime 	24.322736859962
scalar IntersectionExampleScenario.node[0].appl 	NumberOfCollisions 	0
scalar IntersectionExampleScenario.node[0].nic.phy80211p 	busyTime 	0
scalar IntersectionExampleScenario.node[0].nic.mac1609_4 	ReceivedUnicastPackets 	0
scalar IntersectionExampleScenario.node[0].nic.mac1609_4 	ReceivedBroadcasts 	0
scalar IntersectionExampleScenario.node[0].nic.mac1609_4 	SentPackets 	0
scalar IntersectionExampleScenario.node[0].nic.mac1609_4 	SNIRLostPackets 	0
scalar IntersectionExampleScenario.node[0].nic.mac1609_4 	RXTXLostPackets 	0
scalar IntersectionExampleScenario.node[0].nic.mac1609_4 	TotalLostPackets 	0
scalar IntersectionExampleScenario.node[0].nic.mac1609_4 	DroppedPacketsInMac 	0
scalar IntersectionExampleScenario.node[0].nic.mac1609_4 	TooLittleTime 	0
scalar IntersectionExampleScenario.node[0].nic.mac1609_4 	TimesIntoBackoff 	0
scalar IntersectionExampleScenario.node[0].nic.mac1609_4 	SlotsBackoff 	0
scalar IntersectionExampleScenario.node[0].nic.mac1609_4 	NumInternalContention 	0
scalar IntersectionExampleScenario.node[0].nic.mac1609_4 	totalBusyTime 	0
scalar IntersectionExampleScenario.node[0].veinsmobility 	startTime 	0.75
scalar IntersectionExampleScenario.node[0].veinsmobility 	totalTime 	40
scalar IntersectionExampleScenario.node[0].veinsmobility 	stopTime 	41
scalar IntersectionExampleScenario.node[0].veinsmobility 	minSpeed 	5.6500000953674
scalar IntersectionExampleScenario.node[0].veinsmobility 	maxSpeed 	15.375
scalar IntersectionExampleScenario.node[0].veinsmobility 	totalDistance 	550.8793255085
scalar IntersectionExampleScenario.node[0].veinsmobility 	totalCO2Emission 	121.213193859
scalar IntersectionExampleScenario.node[1].appl 	VehicleRemoved 	0
scalar IntersectionExampleScenario.node[1].appl 	ArrivedAtDest 	1
scalar IntersectionExampleScenario.node[1].appl 	IntersectionEnterTime 	3.75
scalar IntersectionExampleScenario.node[1].appl 	IntersectionExitTime 	28.09318447081
scalar IntersectionExampleScenario.node[1].appl 	NumberOfCollisions 	0
scalar IntersectionExampleScenario.node[1].nic.phy80211p 	busyTime 	0
scalar IntersectionExampleScenario.node[1].nic.mac1609_4 	ReceivedUnicastPackets 	0
scalar IntersectionExampleScenario.node[1].nic.mac1609_4 	ReceivedBroadcasts 	0
scalar IntersectionExampleScenario.node[1].nic.mac1609_4 	SentPackets 	0
scalar IntersectionExampleScenario.node[1].nic.mac1609_4 	SNIRLostPackets 	0
scalar IntersectionExampleScenario.node[1].nic.mac1609_4 	RXTXLostPackets 	0
scalar IntersectionExampleScenario.node[1].nic.mac1609_4 	TotalLostPackets 	0
scalar IntersectionExampleScenario.node[1].nic.mac1609_4 	DroppedPacketsInMac 	0
scalar IntersectionExampleScenario.node[1].nic.mac1609_4 	TooLittleTime 	0
scalar IntersectionExampleScenario.node[1].nic.mac1609_4 	TimesIntoBackoff 	0
scalar IntersectionExampleScenario.node[1].nic.mac1609_4 	SlotsBackoff 	0
scalar IntersectionExampleScenario.node[1].nic.mac1609_4 	NumInternalContention 	0
scalar IntersectionExampleScenario.node[1].nic.mac1609_4 	totalBusyTime 	0
scalar IntersectionExampleScenario.node[1].veinsmobility 	startTime 	3.75
scalar IntersectionExampleScenario.node[1].veinsmobility 	totalTime 	40.75
scalar IntersectionExampleScenario.node[1].veinsmobility 	stopTime 	44.75
scalar IntersectionExampleScenario.node[1].veinsmobility 	minSpeed 	5.6500000953674
scalar IntersectionExampleScenario.node[1].veinsmobility 	maxSpeed 	15.375
scalar IntersectionExampleScenario.node[1].veinsmobility 	totalDistance 	564.57991822814
scalar IntersectionExampleScenario.node[1].veinsmobility 	totalCO2Emission 	123.75841475526
scalar IntersectionExampleScenario.node[3].appl 	VehicleRemoved 	0
scalar IntersectionExampleScenario.node[3].appl 	ArrivedAtDest 	1
scalar IntersectionExampleScenario.node[3].appl 	IntersectionEnterTime 	9
scalar IntersectionExampleScenario.node[3].appl 	IntersectionExitTime 	33.524600536184
scalar IntersectionExampleScenario.node[3].appl 	NumberOfCollisions 	0
scalar IntersectionExampleScenario.node[3].nic.phy80211p 	busyTime 	0
scalar IntersectionExampleScenario.node[3].nic.mac1609_4 	ReceivedUnicastPackets 	0
scalar IntersectionExampleScenario.node[3].nic.mac1609_4 	ReceivedBroadcasts 	0
scalar IntersectionExampleScenario.node[3].nic.mac1609_4 	SentPackets 	0
scalar IntersectionExampleScenario.node[3].nic.mac1609_4 	SNIRLostPackets 	0
scalar IntersectionExampleScenario.node[3].nic.mac1609_4 	RXTXLostPackets 	0
scalar IntersectionExampleScenario.node[3].nic.mac1609_4 	TotalLostPackets 	0
scalar IntersectionExampleScenario.node[3].nic.mac1609_4 	DroppedPacketsInMac 	0
scalar IntersectionExampleScenario.node[3].nic.mac1609_4 	TooLittleTime 	0
scalar IntersectionExampleScenario.node[3].nic.mac1609_4 	TimesIntoBackoff 	0
scalar IntersectionExampleScenario.node[3].nic.mac1609_4 	SlotsBackoff 	0
scalar IntersectionExampleScenario.node[3].nic.mac1609_4 	NumInternalContention 	0
scalar IntersectionExampleScenario.node[3].nic.mac1609_4 	totalBusyTime 	0
scalar IntersectionExampleScenario.node[3].veinsmobility 	startTime 	9
scalar IntersectionExampleScenario.node[3].veinsmobility 	totalTime 	40
scalar IntersectionExampleScenario.node[3].veinsmobility 	stopTime 	49.25
scalar IntersectionExampleScenario.node[3].veinsmobility 	minSpeed 	3.0168607234955
scalar IntersectionExampleScenario.node[3].veinsmobility 	maxSpeed 	16.625
scalar IntersectionExampleScenario.node[3].veinsmobility 	totalDistance 	548.77723589829
scalar IntersectionExampleScenario.node[3].veinsmobility 	totalCO2Emission 	137.97395802899
scalar IntersectionExampleScenario.node[2].appl 	VehicleRemoved 	0
scalar IntersectionExampleScenario.node[2].appl 	ArrivedAtDest 	1
scalar IntersectionExampleScenario.node[2].appl 	IntersectionEnterTime 	8.75
scalar IntersectionExampleScenario.node[2].appl 	IntersectionExitTime 	32.578425074345
scalar IntersectionExampleScenario.node[2].appl 	NumberOfCollisions 	0
scalar IntersectionExampleScenario.node[2].nic.phy80211p 	busyTime 	0
scalar IntersectionExampleScenario.node[2].nic.mac1609_4 	ReceivedUnicastPackets 	0
scalar IntersectionExampleScenario.node[2].nic.mac1609_4 	ReceivedBroadcasts 	0
scalar IntersectionExampleScenario.node[2].nic.mac1609_4 	SentPackets 	0
scalar IntersectionExampleScenario.node[2].nic.mac1609_4 	SNIRLostPackets 	0
scalar IntersectionExampleScenario.node[2].nic.mac1609_4 	RXTXLostPackets 	0
scalar IntersectionExampleScenario.node[2].nic.mac1609_4 	TotalLostPackets 	0
scalar IntersectionExampleScenario.node[2].nic.mac1609_4 	DroppedPacketsInMac 	0
scalar IntersectionExampleScenario.node[2].nic.mac1609_4 	TooLittleTime 	0
scalar IntersectionExampleScenario.node[2].nic.mac1609_4 	TimesIntoBackoff 	0
scalar IntersectionExampleScenario.node[2].nic.mac1609_4 	SlotsBackoff 	0
scalar IntersectionExampleScenario.node[2].nic.mac1609_4 	NumInternalContention 	0
scalar IntersectionExampleScenario.node[2].nic.mac1609_4 	totalBusyTime 	0
scalar IntersectionExampleScenario.node[2].veinsmobility 	startTime 	8.75
scalar IntersectionExampleScenario.node[2].veinsmobility 	totalTime 	40.25
scalar IntersectionExampleScenario.node[2].veinsmobility 	stopTime 	49.25
scalar IntersectionExampleScenario.node[2].veinsmobility 	minSpeed 	5.6500000953674
scalar IntersectionExampleScenario.node[2].veinsmobility 	maxSpeed 	15.875
scalar IntersectionExampleScenario.node[2].veinsmobility 	totalDistance 	548.07879454892
scalar IntersectionExampleScenario.node[2].veinsmobility 	totalCO2Emission 	127.59365252245
scalar IntersectionExampleScenario.node[4].appl 	VehicleRemoved 	0
scalar IntersectionExampleScenario.node[4].appl 	ArrivedAtDest 	1
scalar IntersectionExampleScenario.node[4].appl 	IntersectionEnterTime 	9.25
scalar IntersectionExampleScenario.node[4].appl 	IntersectionExitTime 	33.866157752345
scalar IntersectionExampleScenario.node[4].appl 	NumberOfCollisions 	0
scalar IntersectionExampleScenario.node[4].nic.phy80211p 	busyTime 	0
scalar IntersectionExampleScenario.node[4].nic.mac1609_4 	ReceivedUnicastPackets 	0
scalar IntersectionExampleScenario.node[4].nic.mac1609_4 	ReceivedBroadcasts 	0
scalar IntersectionExampleScenario.node[4].nic.mac1609_4 	SentPackets 	0
scalar IntersectionExampleScenario.node[4].nic.mac1609_4 	SNIRLostPackets 	0
scalar IntersectionExampleScenario.node[4].nic.mac1609_4 	RXTXLostPackets 	0
scalar IntersectionExampleScenario.node[4].nic.mac1609_4 	TotalLostPackets 	0
scalar IntersectionExampleScenario.node[4].nic.mac1609_4 	DroppedPacketsInMac 	0
scalar IntersectionExampleScenario.node[4].nic.mac1609_4 	TooLittleTime 	0
scalar IntersectionExampleScenario.node[4].nic.mac1609_4 	TimesIntoBackoff 	0
scalar IntersectionExampleScenario.node[4].nic.mac1609_4 	SlotsBackoff 	0
scalar IntersectionExampleScenario.node[4].nic.mac1609_4 	NumInternalContention 	0
scalar IntersectionExampleScenario.node[4].nic.mac1609_4 	totalBusyTime 	0
scalar IntersectionExampleScenario.node[4].veinsmobility 	startTime 	9.25
scalar IntersectionExampleScenario.node[4].veinsmobility 	totalTime 	41.5
scalar IntersectionExampleScenario.node[4].veinsmobility 	stopTime 	51
scalar IntersectionExampleScenario.node[4].veinsmobility 	minSpeed 	5.6500000953674
scalar IntersectionExampleScenario.node[4].veinsmobility 	maxSpeed 	15.02499961853
scalar IntersectionExampleScenario.node[4].veinsmobility 	totalDistance 	551.9190557268
scalar IntersectionExampleScenario.node[4].veinsmobility 	totalCO2Emission 	122.21529313729
scalar IntersectionExampleScenario.node[6].appl 	VehicleRemoved 	0
scalar IntersectionExampleScenario.node[6].appl 	ArrivedAtDest 	1
scalar IntersectionExampleScenario.node[6].appl 	IntersectionEnterTime 	24.25
scalar IntersectionExampleScenario.node[6].appl 	IntersectionExitTime 	47.559802484349
scalar IntersectionExampleScenario.node[6].appl 	NumberOfCollisions 	0
scalar IntersectionExampleScenario.node[6].nic.phy80211p 	busyTime 	0
scalar IntersectionExampleScenario.node[6].nic.mac1609_4 	ReceivedUnicastPackets 	0
scalar IntersectionExampleScenario.node[6].nic.mac1609_4 	ReceivedBroadcasts 	0
scalar IntersectionExampleScenario.node[6].nic.mac1609_4 	SentPackets 	0
scalar IntersectionExampleScenario.node[6].nic.mac1609_4 	SNIRLostPackets 	0
scalar IntersectionExampleScenario.node[6].nic.mac1609_4 	RXTXLostPackets 	0
scalar IntersectionExampleScenario.node[6].nic.mac1609_4 	TotalLostPackets 	0
scalar IntersectionExampleScenario.node[6].nic.mac1609_4 	DroppedPacketsInMac 	0
scalar IntersectionExampleScenario.node[6].nic.mac1609_4 	TooLittleTime 	0
scalar IntersectionExampleScenario.node[6].nic.mac1609_4 	TimesIntoBackoff 	0
scalar IntersectionExampleScenario.node[6].nic.mac1609_4 	SlotsBackoff 	0
scalar IntersectionExampleScenario.node[6].nic.mac1609_4 	NumInternalContention 	0
scalar IntersectionExampleScenario.node[6].nic.mac1609_4 	totalBusyTime 	0
scalar IntersectionExampleScenario.node[6].veinsmobility 	startTime 	24.25
scalar IntersectionExampleScenario.node[6].veinsmobility 	totalTime 	39.5
scalar IntersectionExampleScenario.node[6].veinsmobility 	stopTime 	64
scalar IntersectionExampleScenario.node[6].veinsmobility 	minSpeed 	5.6500000953674
scalar IntersectionExampleScenario.node[6].veinsmobility 	maxSpeed 	15.02499961853
scalar IntersectionExampleScenario.node[6].veinsmobility 	totalDistance 	552.03238677979
scalar IntersectionExampleScenario.node[6].veinsmobility 	totalCO2Emission 	115.03958548085
scalar IntersectionExampleScenario.node[5].appl 	VehicleRemoved 	0
scalar IntersectionExampleScenario.node[5].appl 	ArrivedAtDest 	1
scalar IntersectionExampleScenario.node[5].appl 	IntersectionEnterTime 	16.5
scalar IntersectionExampleScenario.node[5].appl 	IntersectionExitTime 	48.545590594615
scalar IntersectionExampleScenario.node[5].appl 	NumberOfCollisions 	0
scalar IntersectionExampleScenario.node[5].nic.phy80211p 	busyTime 	0
scalar IntersectionExampleScenario.node[5].nic.mac1609_4 	ReceivedUnicastPackets 	0
scalar IntersectionExampleScenario.node[5].nic.mac1609_4 	ReceivedBroadcasts 	0
scalar IntersectionExampleScenario.node[5].nic.mac1609_4 	SentPackets 	0
scalar IntersectionExampleScenario.node[5].nic.mac1609_4 	SNIRLostPackets 	0
scalar IntersectionExampleScenario.node[5].nic.mac1609_4 	RXTXLostPackets 	0
scalar IntersectionExampleScenario.node[5].nic.mac1609_4 	TotalLostPackets 	0
scalar IntersectionExampleScenario.node[5].nic.mac1609_4 	DroppedPacketsInMac 	0
scalar IntersectionExampleScenario.node[5].nic.mac1609_4 	TooLittleTime 	0
scalar IntersectionExampleScenario.node[5].nic.mac1609_4 	TimesIntoBackoff 	0
scalar IntersectionExampleScenario.node[5].nic.mac1609_4 	SlotsBackoff 	0
scalar IntersectionExampleScenario.node[5].nic.mac1609_4 	NumInternalContention 	0
scalar IntersectionExampleScenario.node[5].nic.mac1609_4 	totalBusyTime 	0
scalar IntersectionExampleScenario.node[5].veinsmobility 	startTime 	16.5
scalar IntersectionExampleScenario.node[5].veinsmobility 	totalTime 	48
scalar IntersectionExampleScenario.node[5].veinsmobility 	stopTime 	64.75
scalar IntersectionExampleScenario.node[5].veinsmobility 	minSpeed 	0
scalar IntersectionExampleScenario.node[5].veinsmobility 	maxSpeed 	16.5
scalar IntersectionExampleScenario.node[5].veinsmobility 	totalDistance 	544.47357083709
scalar IntersectionExampleScenario.node[5].veinsmobility 	totalCO2Emission 	147.51021691726
scalar IntersectionExampleScenario.node[7].appl 	VehicleRemoved 	0
scalar IntersectionExampleScenario.node[7].appl 	ArrivedAtDest 	1
scalar IntersectionExampleScenario.node[7].appl 	IntersectionEnterTime 	27.5
scalar IntersectionExampleScenario.node[7].appl 	IntersectionExitTime 	50.524857566576
scalar IntersectionExampleScenario.node[7].appl 	NumberOfCollisions 	0
scalar IntersectionExampleScenario.node[7].nic.phy80211p 	busyTime 	0
scalar IntersectionExampleScenario.node[7].nic.mac1609_4 	ReceivedUnicastPackets 	0
scalar IntersectionExampleScenario.node[7].nic.mac1609_4 	ReceivedBroadcasts 	0
scalar IntersectionExampleScenario.node[7].nic.mac1609_4 	SentPackets 	0
scalar IntersectionExampleScenario.node[7].nic.mac1609_4 	SNIRLostPackets 	0
scalar IntersectionExampleScenario.node[7].nic.mac1609_4 	RXTXLostPackets 	0
scalar IntersectionExampleScenario.node[7].nic.mac1609_4 	TotalLostPackets 	0
scalar IntersectionExampleScenario.node[7].nic.mac1609_4 	DroppedPacketsInMac 	0
scalar IntersectionExampleScenario.node[7].nic.mac1609_4 	TooLittleTime 	0
scalar IntersectionExampleScenario.node[7].nic.mac1609_4 	TimesIntoBackoff 	0
scalar IntersectionExampleScenario.node[7].nic.mac1609_4 	SlotsBackoff 	0
scalar IntersectionExampleScenario.node[7].nic.mac1609_4 	NumInternalContention 	0
scalar IntersectionExampleScenario.node[7].nic.mac1609_4 	totalBusyTime 	0
scalar IntersectionExampleScenario.node[7].veinsmobility 	startTime 	27.5
scalar IntersectionExampleScenario.node[7].veinsmobility 	totalTime 	38.75
scalar IntersectionExampleScenario.node[7].veinsmobility 	stopTime 	66.5
scalar IntersectionExampleScenario.node[7].veinsmobility 	minSpeed 	5.6500000953674
scalar IntersectionExampleScenario.node[7].veinsmobility 	maxSpeed 	16.27499961853
scalar IntersectionExampleScenario.node[7].veinsmobility 	totalDistance 	549.30688070625
scalar IntersectionExampleScenario.node[7].veinsmobility 	totalCO2Emission 	129.01464844947
scalar IntersectionExampleScenario.node[8].appl 	VehicleRemoved 	0
scalar IntersectionExampleScenario.node[8].appl 	ArrivedAtDest 	1
scalar IntersectionExampleScenario.node[8].appl 	IntersectionEnterTime 	28.25
scalar IntersectionExampleScenario.node[8].appl 	IntersectionExitTime 	52.853078498418
scalar IntersectionExampleScenario.node[8].appl 	NumberOfCollisions 	0
scalar IntersectionExampleScenario.node[8].nic.phy80211p 	busyTime 	0
scalar IntersectionExampleScenario.node[8].nic.mac1609_4 	ReceivedUnicastPackets 	0
scalar IntersectionExampleScenario.node[8].nic.mac1609_4 	ReceivedBroadcasts 	0
scalar IntersectionExampleScenario.node[8].nic.mac1609_4 	SentPackets 	0
scalar IntersectionExampleScenario.node[8].nic.mac1609_4 	SNIRLostPackets 	0
scalar IntersectionExampleScenario.node[8].nic.mac1609_4 	RXTXLostPackets 	0
scalar IntersectionExampleScenario.node[8].nic.mac1609_4 	TotalLostPackets 	0
scalar IntersectionExampleScenario.node[8].nic.mac1609_4 	DroppedPacketsInMac 	0
scalar IntersectionExampleScenario.node[8].nic.mac1609_4 	TooLittleTime 	0
scalar IntersectionExampleScenario.node[8].nic.mac1609_4 	TimesIntoBackoff 	0
scalar IntersectionExampleScenario.node[8].nic.mac1609_4 	SlotsBackoff 	0
scalar IntersectionExampleScenario.node[8].nic.mac1609_4 	NumInternalContention 	0
scalar IntersectionExampleScenario.node[8].nic.mac1609_4 	totalBusyTime 	0
scalar IntersectionExampleScenario.node[8].veinsmobility 	startTime 	28.25
scalar IntersectionExampleScenario.node[8].veinsmobility 	totalTime 	41.25
scalar IntersectionExampleScenario.node[8].veinsmobility 	stopTime 	69.75
scalar IntersectionExampleScenario.node[8].veinsmobility 	minSpeed 	5.6500000953674
scalar IntersectionExampleScenario.node[8].veinsmobility 	maxSpeed 	15.64999961853
scalar IntersectionExampleScenario.node[8].veinsmobility 	totalDistance 	544.09076195082
scalar IntersectionExampleScenario.node[8].veinsmobility 	totalCO2Emission 	138.20110066092
scalar IntersectionExampleScenario.node[9].appl 	VehicleRemoved 	0
scalar IntersectionExampleScenario.node[9].appl 	ArrivedAtDest 	1
scalar IntersectionExampleScenario.node[9].appl 	IntersectionEnterTime 	29.25
scalar IntersectionExampleScenario.node[9].appl 	IntersectionExitTime 	54.55061158078
scalar IntersectionExampleScenario.node[9].appl 	NumberOfCollisions 	0
scalar IntersectionExampleScenario.node[9].nic.phy80211p 	busyTime 	0
scalar IntersectionExampleScenario.node[9].nic.mac1609_4 	ReceivedUnicastPackets 	0
scalar IntersectionExampleScenario.node[9].nic.mac1609_4 	ReceivedBroadcasts 	0
scalar IntersectionExampleScenario.node[9].nic.mac1609_4 	SentPackets 	0
scalar IntersectionExampleScenario.node[9].nic.mac1609_4 	SNIRLostPackets 	0
scalar IntersectionExampleScenario.node[9].nic.mac1609_4 	RXTXLostPackets 	0
scalar IntersectionExampleScenario.node[9].nic.mac1609_4 	TotalLostPackets 	0
scalar IntersectionExampleScenario.node[9].nic.mac1609_4 	DroppedPacketsInMac 	0
scalar IntersectionExampleScenario.node[9].nic.mac1609_4 	TooLittleTime 	0
scalar IntersectionExampleScenario.node[9].nic.mac1609_4 	TimesIntoBackoff 	0
scalar IntersectionExampleScenario.node[9].nic.mac1609_4 	SlotsBackoff 	0
scalar IntersectionExampleScenario.node[9].nic.mac1609_4 	NumInternalContention 	0
scalar IntersectionExampleScenario.node[9].nic.mac1609_4 	totalBusyTime 	0
scalar IntersectionExampleScenario.node[9].veinsmobility 	startTime 	29.25
scalar IntersectionExampleScenario.node[9].veinsmobility 	totalTime 	42.5
scalar IntersectionExampleScenario.node[9].veinsmobility 	stopTime 	72
scalar IntersectionExampleScenario.node[9].veinsmobility 	minSpeed 	5.6500000953674
scalar IntersectionExampleScenario.node[9].veinsmobility 	maxSpeed 	15.25
scalar IntersectionExampleScenario.node[9].veinsmobility 	totalDistance 	563.84689338191
scalar IntersectionExampleScenario.node[9].veinsmobility 	totalCO2Emission 	126.04452379754
scalar IntersectionExampleScenario.node[10].appl 	VehicleRemoved 	0
scalar IntersectionExampleScenario.node[10].appl 	ArrivedAtDest 	1
scalar IntersectionExampleScenario.node[10].appl 	IntersectionEnterTime 	31.5
scalar IntersectionExampleScenario.node[10].appl 	IntersectionExitTime 	64.368259889743
scalar IntersectionExampleScenario.node[10].appl 	NumberOfCollisions 	0
scalar IntersectionExampleScenario.node[10].nic.phy80211p 	busyTime 	0
scalar IntersectionExampleScenario.node[10].nic.mac1609_4 	ReceivedUnicastPackets 	0
scalar IntersectionExampleScenario.node[10].nic.mac1609_4 	ReceivedBroadcasts 	0
scalar IntersectionExampleScenario.node[10].nic.mac1609_4 	SentPackets 	0
scalar IntersectionExampleScenario.node[10].nic.mac1609_4 	SNIRLostPackets 	0
scalar IntersectionExampleScenario.node[10].nic.mac1609_4 	RXTXLostPackets 	0
scalar IntersectionExampleScenario.node[10].nic.mac1609_4 	TotalLostPackets 	0
scalar IntersectionExampleScenario.node[10].nic.mac1609_4 	DroppedPacketsInMac 	0
scalar IntersectionExampleScenario.node[10].nic.mac1609_4 	TooLittleTime 	0
scalar IntersectionExampleScenario.node[10].nic.mac1609_4 	TimesIntoBackoff 	0
scalar IntersectionExampleScenario.node[10].nic.mac1609_4 	SlotsBackoff 	0
scalar IntersectionExampleScenario.node[10].nic.mac1609_4 	NumInternalContention 	0
scalar IntersectionExampleScenario.node[10].nic.mac1609_4 	totalBusyTime 	0
scalar IntersectionExampleScenario.node[10].veinsmobility 	startTime 	31.5
scalar IntersectionExampleScenario.node[10].veinsmobility 	totalTime 	48.5
scalar IntersectionExampleScenario.node[10].veinsmobility 	stopTime 	80.25
scalar IntersectionExampleScenario.node[10].veinsmobility 	minSpeed 	0
scalar IntersectionExampleScenario.node[10].veinsmobility 	maxSpeed 	16
scalar IntersectionExampleScenario.node[10].veinsmobility 	totalDistance 	550.96627916446
scalar IntersectionExampleScenario.node[10].veinsmobility 	totalCO2Emission 	144.10057941336
scalar IntersectionExampleScenario.node[11].appl 	VehicleRemoved 	0
scalar IntersectionExampleScenario.node[11].appl 	ArrivedAtDest 	1
scalar IntersectionExampleScenario.node[11].appl 	IntersectionEnterTime 	35.5
scalar IntersectionExampleScenario.node[11].appl 	IntersectionExitTime 	66.865962117881
scalar IntersectionExampleScenario.node[11].appl 	NumberOfCollisions 	0
scalar IntersectionExampleScenario.node[11].nic.phy80211p 	busyTime 	0
scalar IntersectionExampleScenario.node[11].nic.mac1609_4 	ReceivedUnicastPackets 	0
scalar IntersectionExampleScenario.node[11].nic.mac1609_4 	ReceivedBroadcasts 	0
scalar IntersectionExampleScenario.node[11].nic.mac1609_4 	SentPackets 	0
scalar IntersectionExampleScenario.node[11].nic.mac1609_4 	SNIRLostPackets 	0
scalar IntersectionExampleScenario.node[11].nic.mac1609_4 	RXTXLostPackets 	0
scalar IntersectionExampleScenario.node[11].nic.mac1609_4 	TotalLostPackets 	0
scalar IntersectionExampleScenario.node[11].nic.mac1609_4 	DroppedPacketsInMac 	0
scalar IntersectionExampleScenario.node[11].nic.mac1609_4 	TooLittleTime 	0
scalar IntersectionExampleScenario.node[11].nic.mac1609_4 	TimesIntoBackoff 	0
scalar IntersectionExampleScenario.node[11].nic.mac1609_4 	SlotsBackoff 	0
scalar IntersectionExampleScenario.node[11].nic.mac1609_4 	NumInternalContention 	0
scalar IntersectionExampleScenario.node[11].nic.mac1609_4 	totalBusyTime 	0
scalar IntersectionExampleScenario.node[11].veinsmobility 	startTime 	35.5
scalar IntersectionExampleScenario.node[11].veinsmobility 	totalTime 	48
scalar IntersectionExampleScenario.node[11].veinsmobility 	stopTime 	83.75
scalar IntersectionExampleScenario.node[11].veinsmobility 	minSpeed 	1.5499227046967
scalar IntersectionExampleScenario.node[11].veinsmobility 	maxSpeed 	15.02499961853
scalar IntersectionExampleScenario.node[11].veinsmobility 	totalDistance 	555.7822633012
scalar IntersectionExampleScenario.node[11].veinsmobility 	totalCO2Emission 	132.71300010271
scalar IntersectionExampleScenario.node[14].appl 	VehicleRemoved 	0
scalar IntersectionExampleScenario.node[14].appl 	ArrivedAtDest 	1
scalar IntersectionExampleScenario.node[14].appl 	IntersectionEnterTime 	45.5
scalar IntersectionExampleScenario.node[14].appl 	IntersectionExitTime 	69.042036163359
scalar IntersectionExampleScenario.node[14].appl 	NumberOfCollisions 	0
scalar IntersectionExampleScenario.node[14].nic.phy80211p 	busyTime 	0
scalar IntersectionExampleScenario.node[14].nic.mac1609_4 	ReceivedUnicastPackets 	0
scalar IntersectionExampleScenario.node[14].nic.mac1609_4 	ReceivedBroadcasts 	0
scalar IntersectionExampleScenario.node[14].nic.mac1609_4 	SentPackets 	0
scalar IntersectionExampleScenario.node[14].nic.mac1609_4 	SNIRLostPackets 	0
scalar IntersectionExampleScenario.node[14].nic.mac1609_4 	RXTXLostPackets 	0
scalar IntersectionExampleScenario.node[14].nic.mac1609_4 	TotalLostPackets 	0
scalar IntersectionExampleScenario.node[14].nic.mac1609_4 	DroppedPacketsInMac 	0
scalar IntersectionExampleScenario.node[14].nic.mac1609_4 	TooLittleTime 	0
scalar IntersectionExampleScenario.node[14].nic.mac1609_4 	TimesIntoBackoff 	0
scalar IntersectionExampleScenario.node[14].nic.mac1609_4 	SlotsBackoff 	0
scalar IntersectionExampleScenario.node[14].nic.mac1609_4 	NumInternalContention 	0
scalar IntersectionExampleScenario.node[14].nic.mac1609_4 	totalBusyTime 	0
scalar IntersectionExampleScenario.node[14].veinsmobility 	startTime 	45.5
scalar IntersectionExampleScenario.node[14].veinsmobility 	totalTime 	38.5
scalar IntersectionExampleScenario.node[14].veinsmobility 	stopTime 	84.25
scalar IntersectionExampleScenario.node[14].veinsmobility 	minSpeed 	5.6500000953674
scalar IntersectionExampleScenario.node[14].veinsmobility 	maxSpeed 	16.75
scalar IntersectionExampleScenario.node[14].veinsmobility 	totalDistance 	550.96213531494
scalar IntersectionExampleScenario.node[14].veinsmobility 	totalCO2Emission 	142.65362053922
scalar IntersectionExampleScenario.node[13].appl 	VehicleRemoved 	0
scalar IntersectionExampleScenario.node[13].appl 	ArrivedAtDest 	1
scalar IntersectionExampleScenario.node[13].appl 	IntersectionEnterTime 	43
scalar IntersectionExampleScenario.node[13].appl 	IntersectionExitTime 	69.332330474514
scalar IntersectionExampleScenario.node[13].appl 	NumberOfCollisions 	0
scalar IntersectionExampleScenario.node[13].nic.phy80211p 	busyTime 	0
scalar IntersectionExampleScenario.node[13].nic.mac1609_4 	ReceivedUnicastPackets 	0
scalar IntersectionExampleScenario.node[13].nic.mac1609_4 	ReceivedBroadcasts 	0
scalar IntersectionExampleScenario.node[13].nic.mac1609_4 	SentPackets 	0
scalar IntersectionExampleScenario.node[13].nic.mac1609_4 	SNIRLostPackets 	0
scalar IntersectionExampleScenario.node[13].nic.mac1609_4 	RXTXLostPackets 	0
scalar IntersectionExampleScenario.node[13].nic.mac1609_4 	TotalLostPackets 	0
scalar IntersectionExampleScenario.node[13].nic.mac1609_4 	DroppedPacketsInMac 	0
scalar IntersectionExampleScenario.node[13].nic.mac1609_4 	TooLittleTime 	0
scalar IntersectionExampleScenario.node[13].nic.mac1609_4 	TimesIntoBackoff 	0
scalar IntersectionExampleScenario.node[13].nic.mac1609_4 	SlotsBackoff 	0
scalar IntersectionExampleScenario.node[13].nic.mac1609_4 	NumInternalContention 	0
scalar IntersectionExampleScenario.node[13].nic.mac1609_4 	totalBusyTime 	0
scalar IntersectionExampleScenario.node[13].veinsmobility 	startTime 	43
scalar IntersectionExampleScenario.node[13].veinsmobility 	totalTime 	43
scalar IntersectionExampleScenario.node[13].veinsmobility 	stopTime 	86.25
scalar IntersectionExampleScenario.node[13].veinsmobility 	minSpeed 	0
scalar IntersectionExampleScenario.node[13].veinsmobility 	maxSpeed 	15.047772407532
scalar IntersectionExampleScenario.node[13].veinsmobility 	totalDistance 	543.81806124136
scalar IntersectionExampleScenario.node[13].veinsmobility 	totalCO2Emission 	134.19309538518
scalar IntersectionExampleScenario.node[16].appl 	VehicleRemoved 	0
scalar IntersectionExampleScenario.node[16].appl 	ArrivedAtDest 	1
scalar IntersectionExampleScenario.node[16].appl 	IntersectionEnterTime 	50
scalar IntersectionExampleScenario.node[16].appl 	IntersectionExitTime 	73.064352086745
scalar IntersectionExampleScenario.node[16].appl 	NumberOfCollisions 	0
scalar IntersectionExampleScenario.node[16].nic.phy80211p 	busyTime 	0
scalar IntersectionExampleScenario.node[16].nic.mac1609_4 	ReceivedUnicastPackets 	0
scalar IntersectionExampleScenario.node[16].nic.mac1609_4 	ReceivedBroadcasts 	0
scalar IntersectionExampleScenario.node[16].nic.mac1609_4 	SentPackets 	0
scalar IntersectionExampleScenario.node[16].nic.mac1609_4 	SNIRLostPackets 	0
scalar IntersectionExampleScenario.node[16].nic.mac1609_4 	RXTXLostPackets 	0
scalar IntersectionExampleScenario.node[16].nic.mac1609_4 	TotalLostPackets 	0
scalar IntersectionExampleScenario.node[16].nic.mac1609_4 	DroppedPacketsInMac 	0
scalar IntersectionExampleScenario.node[16].nic.mac1609_4 	TooLittleTime 	0
scalar IntersectionExampleScenario.node[16].nic.mac1609_4 	TimesIntoBackoff 	0
scalar IntersectionExampleScenario.node[16].nic.mac1609_4 	SlotsBackoff 	0
scalar IntersectionExampleScenario.node[16].nic.mac1609_4 	NumInternalContention 	0
scalar IntersectionExampleScenario.node[16].nic.mac1609_4 	totalBusyTime 	0
scalar IntersectionExampleScenario.node[16].veinsmobility 	startTime 	50
scalar IntersectionExampleScenario.node[16].veinsmobility 	totalTime 	39.25
scalar IntersectionExampleScenario.node[16].veinsmobility 	stopTime 	89.5
scalar IntersectionExampleScenario.node[16].veinsmobility 	minSpeed 	5.6500000953674
scalar IntersectionExampleScenario.node[16].veinsmobility 	maxSpeed 	15.5
scalar IntersectionExampleScenario.node[16].veinsmobility 	totalDistance 	552.29007720947
scalar IntersectionExampleScenario.node[16].veinsmobility 	totalCO2Emission 	115.97317806551
scalar IntersectionExampleScenario.node[12].appl 	VehicleRemoved 	0
scalar IntersectionExampleScenario.node[12].appl 	ArrivedAtDest 	1
scalar IntersectionExampleScenario.node[12].appl 	IntersectionEnterTime 	40.5
scalar IntersectionExampleScenario.node[12].appl 	IntersectionExitTime 	78.760732335562
scalar IntersectionExampleScenario.node[12].appl 	NumberOfCollisions 	0
scalar IntersectionExampleScenario.node[12].nic.phy80211p 	busyTime 	0
scalar IntersectionExampleScenario.node[12].nic.mac1609_4 	ReceivedUnicastPackets 	0
scalar IntersectionExampleScenario.node[12].nic.mac1609_4 	ReceivedBroadcasts 	0
scalar IntersectionExampleScenario.node[12].nic.mac1609_4 	SentPackets 	0
scalar IntersectionExampleScenario.node[12].nic.mac1609_4 	SNIRLostPackets 	0
scalar IntersectionExampleScenario.node[12].nic.mac1609_4 	RXTXLostPackets 	0
scalar IntersectionExampleScenario.node[12].nic.mac1609_4 	TotalLostPackets 	0
scalar IntersectionExampleScenario.node[12].nic.mac1609_4 	DroppedPacketsInMac 	0
scalar IntersectionExampleScenario.node[12].nic.mac1609_4 	TooLittleTime 	0
scalar IntersectionExampleScenario.node[12].nic.mac1609_4 	TimesIntoBackoff 	0
scalar IntersectionExampleScenario.node[12].nic.mac1609_4 	SlotsBackoff 	0
scalar IntersectionExampleScenario.node[12].nic.mac1609_4 	NumInternalContention 	0
scalar IntersectionExampleScenario.node[12].nic.mac1609_4 	totalBusyTime 	0
scalar IntersectionExampleScenario.node[12].veinsmobility 	startTime 	40.5
scalar IntersectionExampleScenario.node[12].veinsmobility 	totalTime 	55.25
scalar IntersectionExampleScenario.node[12].veinsmobility 	stopTime 	96
scalar IntersectionExampleScenario.node[12].veinsmobility 	minSpeed 	0
scalar IntersectionExampleScenario.node[12].veinsmobility 	maxSpeed 	14.75
scalar IntersectionExampleScenario.node[12].veinsmobility 	totalDistance 	548.53946810197
scalar IntersectionExampleScenario.node[12].veinsmobility 	totalCO2Emission 	140.52681683157
scalar IntersectionExampleScenario.node[15].appl 	VehicleRemoved 	0
scalar IntersectionExampleScenario.node[15].appl 	ArrivedAtDest 	1
scalar IntersectionExampleScenario.node[15].appl 	IntersectionEnterTime 	49.5
scalar IntersectionExampleScenario.node[15].appl 	IntersectionExitTime 	80.524016978889
scalar IntersectionExampleScenario.node[15].appl 	NumberOfCollisions 	0
scalar IntersectionExampleScenario.node[15].nic.phy80211p 	busyTime 	0
scalar IntersectionExampleScenario.node[15].nic.mac1609_4 	ReceivedUnicastPackets 	0
scalar IntersectionExampleScenario.node[15].nic.mac1609_4 	ReceivedBroadcasts 	0
scalar IntersectionExampleScenario.node[15].nic.mac1609_4 	SentPackets 	0
scalar IntersectionExampleScenario.node[15].nic.mac1609_4 	SNIRLostPackets 	0
scalar IntersectionExampleScenario.node[15].nic.mac1609_4 	RXTXLostPackets 	0
scalar IntersectionExampleScenario.node[15].nic.mac1609_4 	TotalLostPackets 	0
scalar IntersectionExampleScenario.node[15].nic.mac1609_4 	DroppedPacketsInMac 	0
scalar IntersectionExampleScenario.node[15].nic.mac1609_4 	TooLittleTime 	0
scalar IntersectionExampleScenario.node[15].nic.mac1609_4 	TimesIntoBackoff 	0
scalar IntersectionExampleScenario.node[15].nic.mac1609_4 	SlotsBackoff 	0
scalar IntersectionExampleScenario.node[15].nic.mac1609_4 	NumInternalContention 	0
scalar IntersectionExampleScenario.node[15].nic.mac1609_4 	totalBusyTime 	0
scalar IntersectionExampleScenario.node[15].veinsmobility 	startTime 	49.5
scalar IntersectionExampleScenario.node[15].veinsmobility 	totalTime 	48
scalar IntersectionExampleScenario.node[15].veinsmobility 	stopTime 	97.75
scalar IntersectionExampleScenario.node[15].veinsmobility 	minSpeed 	2.2089235782623
scalar IntersectionExampleScenario.node[15].veinsmobility 	maxSpeed 	15.25
scalar IntersectionExampleScenario.node[15].veinsmobility 	totalDistance 	544.81155040326
scalar IntersectionExampleScenario.node[15].veinsmobility 	totalCO2Emission 	134.347358872
scalar IntersectionExampleScenario.node[17].appl 	VehicleRemoved 	0
scalar IntersectionExampleScenario.node[17].appl 	ArrivedAtDest 	1
scalar IntersectionExampleScenario.node[17].appl 	IntersectionEnterTime 	53.5
scalar IntersectionExampleScenario.node[17].appl 	IntersectionExitTime 	82.551575071819
scalar IntersectionExampleScenario.node[17].appl 	NumberOfCollisions 	0
scalar IntersectionExampleScenario.node[17].nic.phy80211p 	busyTime 	0
scalar IntersectionExampleScenario.node[17].nic.mac1609_4 	ReceivedUnicastPackets 	0
scalar IntersectionExampleScenario.node[17].nic.mac1609_4 	ReceivedBroadcasts 	0
scalar IntersectionExampleScenario.node[17].nic.mac1609_4 	SentPackets 	0
scalar IntersectionExampleScenario.node[17].nic.mac1609_4 	SNIRLostPackets 	0
scalar IntersectionExampleScenario.node[17].nic.mac1609_4 	RXTXLostPackets 	0
scalar IntersectionExampleScenario.node[17].nic.mac1609_4 	TotalLostPackets 	0
scalar IntersectionExampleScenario.node[17].nic.mac1609_4 	DroppedPacketsInMac 	0
scalar IntersectionExampleScenario.node[17].nic.mac1609_4 	TooLittleTime 	0
scalar IntersectionExampleScenario.node[17].nic.mac1609_4 	TimesIntoBackoff 	0
scalar IntersectionExampleScenario.node[17].nic.mac1609_4 	SlotsBackoff 	0
scalar IntersectionExampleScenario.node[17].nic.mac1609_4 	NumInternalContention 	0
scalar IntersectionExampleScenario.node[17].nic.mac1609_4 	totalBusyTime 	0
scalar IntersectionExampleScenario.node[17].veinsmobility 	startTime 	53.5
scalar IntersectionExampleScenario.node[17].veinsmobility 	totalTime 	45
scalar IntersectionExampleScenario.node[17].veinsmobility 	stopTime 	98.75
scalar IntersectionExampleScenario.node[17].veinsmobility 	minSpeed 	4.6154441833496
scalar IntersectionExampleScenario.node[17].veinsmobility 	maxSpeed 	15.5
scalar IntersectionExampleScenario.node[17].veinsmobility 	totalDistance 	560.03308105469
scalar IntersectionExampleScenario.node[17].veinsmobility 	totalCO2Emission 	137.67347660057
scalar IntersectionExampleScenario.node[19].appl 	VehicleRemoved 	0
scalar IntersectionExampleScenario.node[19].appl 	ArrivedAtDest 	1
scalar IntersectionExampleScenario.node[19].appl 	IntersectionEnterTime 	68.25
scalar IntersectionExampleScenario.node[19].appl 	IntersectionExitTime 	91.04305443287
scalar IntersectionExampleScenario.node[19].appl 	NumberOfCollisions 	0
scalar IntersectionExampleScenario.node[19].nic.phy80211p 	busyTime 	0
scalar IntersectionExampleScenario.node[19].nic.mac1609_4 	ReceivedUnicastPackets 	0
scalar IntersectionExampleScenario.node[19].nic.mac1609_4 	ReceivedBroadcasts 	0
scalar IntersectionExampleScenario.node[19].nic.mac1609_4 	SentPackets 	0
scalar IntersectionExampleScenario.node[19].nic.mac1609_4 	SNIRLostPackets 	0
scalar IntersectionExampleScenario.node[19].nic.mac1609_4 	RXTXLostPackets 	0
scalar IntersectionExampleScenario.node[19].nic.mac1609_4 	TotalLostPackets 	0
scalar IntersectionExampleScenario.node[19].nic.mac1609_4 	DroppedPacketsInMac 	0
scalar IntersectionExampleScenario.node[19].nic.mac1609_4 	TooLittleTime 	0
scalar IntersectionExampleScenario.node[19].nic.mac1609_4 	TimesIntoBackoff 	0
scalar IntersectionExampleScenario.node[19].nic.mac1609_4 	SlotsBackoff 	0
scalar IntersectionExampleScenario.node[19].nic.mac1609_4 	NumInternalContention 	0
scalar IntersectionExampleScenario.node[19].nic.mac1609_4 	totalBusyTime 	0
scalar IntersectionExampleScenario.node[19].veinsmobility 	startTime 	68.25
scalar IntersectionExampleScenario.node[19].veinsmobility 	totalTime 	38.75
scalar IntersectionExampleScenario.node[19].veinsmobility 	stopTime 	107.25
scalar IntersectionExampleScenario.node[19].veinsmobility 	minSpeed 	5.6500000953674
scalar IntersectionExampleScenario.node[19].veinsmobility 	maxSpeed 	15.64999961853
scalar IntersectionExampleScenario.node[19].veinsmobility 	totalDistance 	552.89630126953
scalar IntersectionExampleScenario.node[19].veinsmobility 	totalCO2Emission 	117.69084027776
scalar IntersectionExampleScenario.node[18].appl 	VehicleRemoved 	0
scalar IntersectionExampleScenario.node[18].appl 	ArrivedAtDest 	1
scalar IntersectionExampleScenario.node[18].appl 	IntersectionEnterTime 	65.25
scalar IntersectionExampleScenario.node[18].appl 	IntersectionExitTime 	94.282421660813
scalar IntersectionExampleScenario.node[18].appl 	NumberOfCollisions 	0
scalar IntersectionExampleScenario.node[18].nic.phy80211p 	busyTime 	0
scalar IntersectionExampleScenario.node[18].nic.mac1609_4 	ReceivedUnicastPackets 	0
scalar IntersectionExampleScenario.node[18].nic.mac1609_4 	ReceivedBroadcasts 	0
scalar IntersectionExampleScenario.node[18].nic.mac1609_4 	SentPackets 	0
scalar IntersectionExampleScenario.node[18].nic.mac1609_4 	SNIRLostPackets 	0
scalar IntersectionExampleScenario.node[18].nic.mac1609_4 	RXTXLostPackets 	0
scalar IntersectionExampleScenario.node[18].nic.mac1609_4 	TotalLostPackets 	0
scalar IntersectionExampleScenario.node[18].nic.mac1609_4 	DroppedPacketsInMac 	0
scalar IntersectionExampleScenario.node[18].nic.mac1609_4 	TooLittleTime 	0
scalar IntersectionExampleScenario.node[18].nic.mac1609_4 	TimesIntoBackoff 	0
scalar IntersectionExampleScenario.node[18].nic.mac1609_4 	SlotsBackoff 	0
scalar IntersectionExampleScenario.node[18].nic.mac1609_4 	NumInternalContention 	0
scalar IntersectionExampleScenario.node[18].nic.mac1609_4 	totalBusyTime 	0
scalar IntersectionExampleScenario.node[18].veinsmobility 	startTime 	65.25
scalar IntersectionExampleScenario.node[18].veinsmobility 	totalTime 	44.5
scalar IntersectionExampleScenario.node[18].veinsmobility 	stopTime 	110
scalar IntersectionExampleScenario.node[18].veinsmobility 	minSpeed 	0
scalar IntersectionExampleScenario.node[18].veinsmobility 	maxSpeed 	16.27499961853
scalar IntersectionExampleScenario.node[18].veinsmobility 	totalDistance 	549.13504900088
scalar IntersectionExampleScenario.node[18].veinsmobility 	totalCO2Emission 	141.70043525107
scalar IntersectionExampleScenario.node[20].appl 	VehicleRemoved 	0
scalar IntersectionExampleScenario.node[20].appl 	ArrivedAtDest 	1
scalar IntersectionExampleScenario.node[20].appl 	IntersectionEnterTime 	71.75
scalar IntersectionExampleScenario.node[20].appl 	IntersectionExitTime 	97.290449836815
scalar IntersectionExampleScenario.node[20].appl 	NumberOfCollisions 	0
scalar IntersectionExampleScenario.node[20].nic.phy80211p 	busyTime 	0
scalar IntersectionExampleScenario.node[20].nic.mac1609_4 	ReceivedUnicastPackets 	0
scalar IntersectionExampleScenario.node[20].nic.mac1609_4 	ReceivedBroadcasts 	0
scalar IntersectionExampleScenario.node[20].nic.mac1609_4 	SentPackets 	0
scalar IntersectionExampleScenario.node[20].nic.mac1609_4 	SNIRLostPackets 	0
scalar IntersectionExampleScenario.node[20].nic.mac1609_4 	RXTXLostPackets 	0
scalar IntersectionExampleScenario.node[20].nic.mac1609_4 	TotalLostPackets 	0
scalar IntersectionExampleScenario.node[20].nic.mac1609_4 	DroppedPacketsInMac 	0
scalar IntersectionExampleScenario.node[20].nic.mac1609_4 	TooLittleTime 	0
scalar IntersectionExampleScenario.node[20].nic.mac1609_4 	TimesIntoBackoff 	0
scalar IntersectionExampleScenario.node[20].nic.mac1609_4 	SlotsBackoff 	0
scalar IntersectionExampleScenario.node[20].nic.mac1609_4 	NumInternalContention 	0
scalar IntersectionExampleScenario.node[20].nic.mac1609_4 	totalBusyTime 	0
scalar IntersectionExampleScenario.node[20].veinsmobility 	startTime 	71.75
scalar IntersectionExampleScenario.node[20].veinsmobility 	totalTime 	42.5
scalar IntersectionExampleScenario.node[20].veinsmobility 	stopTime 	114.5
scalar IntersectionExampleScenario.node[20].veinsmobility 	minSpeed 	5.6500000953674
scalar IntersectionExampleScenario.node[20].veinsmobility 	maxSpeed 	15.02499961853
scalar IntersectionExampleScenario.node[20].veinsmobility 	totalDistance 	551.58769688236
scalar IntersectionExampleScenario.node[20].veinsmobility 	totalCO2Emission 	126.72974143194
scalar IntersectionExampleScenario.node[22].appl 	VehicleRemoved 	0
scalar IntersectionExampleScenario.node[22].appl 	ArrivedAtDest 	1
scalar IntersectionExampleScenario.node[22].appl 	IntersectionEnterTime 	80
scalar IntersectionExampleScenario.node[22].appl 	IntersectionExitTime 	103.33308507173
scalar IntersectionExampleScenario.node[22].appl 	NumberOfCollisions 	0
scalar IntersectionExampleScenario.node[22].nic.phy80211p 	busyTime 	0
scalar IntersectionExampleScenario.node[22].nic.mac1609_4 	ReceivedUnicastPackets 	0
scalar IntersectionExampleScenario.node[22].nic.mac1609_4 	ReceivedBroadcasts 	0
scalar IntersectionExampleScenario.node[22].nic.mac1609_4 	SentPackets 	0
scalar IntersectionExampleScenario.node[22].nic.mac1609_4 	SNIRLostPackets 	0
scalar IntersectionExampleScenario.node[22].nic.mac1609_4 	RXTXLostPackets 	0
scalar IntersectionExampleScenario.node[22].nic.mac1609_4 	TotalLostPackets 	0
scalar IntersectionExampleScenario.node[22].nic.mac1609_4 	DroppedPacketsInMac 	0
scalar IntersectionExampleScenario.node[22].nic.mac1609_4 	TooLittleTime 	0
scalar IntersectionExampleScenario.node[22].nic.mac1609_4 	TimesIntoBackoff 	0
scalar IntersectionExampleScenario.node[22].nic.mac1609_4 	SlotsBackoff 	0
scalar IntersectionExampleScenario.node[22].nic.mac1609_4 	NumInternalContention 	0
scalar IntersectionExampleScenario.node[22].nic.mac1609_4 	totalBusyTime 	0
scalar IntersectionExampleScenario.node[22].veinsmobility 	startTime 	80
scalar IntersectionExampleScenario.node[22].veinsmobility 	totalTime 	39.75
scalar IntersectionExampleScenario.node[22].veinsmobility 	stopTime 	120
scalar IntersectionExampleScenario.node[22].veinsmobility 	minSpeed 	5.6500000953674
scalar IntersectionExampleScenario.node[22].veinsmobility 	maxSpeed 	15.64999961853
scalar IntersectionExampleScenario.node[22].veinsmobility 	totalDistance 	543.4578631961
scalar IntersectionExampleScenario.node[22].veinsmobility 	totalCO2Emission 	127.27995801514
scalar IntersectionExampleScenario.node[21].appl 	VehicleRemoved 	0
scalar IntersectionExampleScenario.node[21].appl 	ArrivedAtDest 	1
scalar IntersectionExampleScenario.node[21].appl 	IntersectionEnterTime 	76
scalar IntersectionExampleScenario.node[21].appl 	IntersectionExitTime 	108.84908123044
scalar IntersectionExampleScenario.node[21].appl 	NumberOfCollisions 	0
scalar IntersectionExampleScenario.node[21].nic.phy80211p 	busyTime 	0
scalar IntersectionExampleScenario.node[21].nic.mac1609_4 	ReceivedUnicastPackets 	0
scalar IntersectionExampleScenario.node[21].nic.mac1609_4 	ReceivedBroadcasts 	0
scalar IntersectionExampleScenario.node[21].nic.mac1609_4 	SentPackets 	0
scalar IntersectionExampleScenario.node[21].nic.mac1609_4 	SNIRLostPackets 	0
scalar IntersectionExampleScenario.node[21].nic.mac1609_4 	RXTXLostPackets 	0
scalar IntersectionExampleScenario.node[21].nic.mac1609_4 	TotalLostPackets 	0
scalar IntersectionExampleScenario.node[21].nic.mac1609_4 	DroppedPacketsInMac 	0
scalar IntersectionExampleScenario.node[21].nic.mac1609_4 	TooLittleTime 	0
scalar IntersectionExampleScenario.node[21].nic.mac1609_4 	TimesIntoBackoff 	0
scalar IntersectionExampleScenario.node[21].nic.mac1609_4 	SlotsBackoff 	0
scalar IntersectionExampleScenario.node[21].nic.mac1609_4 	NumInternalContention 	0
scalar IntersectionExampleScenario.node[21].nic.mac1609_4 	totalBusyTime 	0
scalar IntersectionExampleScenario.node[21].veinsmobility 	startTime 	76
scalar IntersectionExampleScenario.node[21].veinsmobility 	totalTime 	48.5
scalar IntersectionExampleScenario.node[21].veinsmobility 	stopTime 	124.75
scalar IntersectionExampleScenario.node[21].veinsmobility 	minSpeed 	0
scalar IntersectionExampleScenario.node[21].veinsmobility 	maxSpeed 	16.27499961853
scalar IntersectionExampleScenario.node[21].veinsmobility 	totalDistance 	551.54392366838
scalar IntersectionExampleScenario.node[21].veinsmobility 	totalCO2Emission 	146.12984106529
scalar IntersectionExampleScenario.node[23].appl 	VehicleRemoved 	0
scalar IntersectionExampleScenario.node[23].appl 	ArrivedAtDest 	1
scalar IntersectionExampleScenario.node[23].appl 	IntersectionEnterTime 	90
scalar IntersectionExampleScenario.node[23].appl 	IntersectionExitTime 	113.28779313155
scalar IntersectionExampleScenario.node[23].appl 	NumberOfCollisions 	0
scalar IntersectionExampleScenario.node[23].nic.phy80211p 	busyTime 	0
scalar IntersectionExampleScenario.node[23].nic.mac1609_4 	ReceivedUnicastPackets 	0
scalar IntersectionExampleScenario.node[23].nic.mac1609_4 	ReceivedBroadcasts 	0
scalar IntersectionExampleScenario.node[23].nic.mac1609_4 	SentPackets 	0
scalar IntersectionExampleScenario.node[23].nic.mac1609_4 	SNIRLostPackets 	0
scalar IntersectionExampleScenario.node[23].nic.mac1609_4 	RXTXLostPackets 	0
scalar IntersectionExampleScenario.node[23].nic.mac1609_4 	TotalLostPackets 	0
scalar IntersectionExampleScenario.node[23].nic.mac1609_4 	DroppedPacketsInMac 	0
scalar IntersectionExampleScenario.node[23].nic.mac1609_4 	TooLittleTime 	0
scalar IntersectionExampleScenario.node[23].nic.mac1609_4 	TimesIntoBackoff 	0
scalar IntersectionExampleScenario.node[23].nic.mac1609_4 	SlotsBackoff 	0
scalar IntersectionExampleScenario.node[23].nic.mac1609_4 	NumInternalContention 	0
scalar IntersectionExampleScenario.node[23].nic.mac1609_4 	totalBusyTime 	0
scalar IntersectionExampleScenario.node[23].veinsmobility 	startTime 	90
scalar IntersectionExampleScenario.node[23].veinsmobility 	totalTime 	39.5
scalar IntersectionExampleScenario.node[23].veinsmobility 	stopTime 	129.75
scalar IntersectionExampleScenario.node[23].veinsmobility 	minSpeed 	5.6500000953674
scalar IntersectionExampleScenario.node[23].veinsmobility 	maxSpeed 	15.64999961853
scalar IntersectionExampleScenario.node[23].veinsmobility 	totalDistance 	548.74129521157
scalar IntersectionExampleScenario.node[23].veinsmobility 	totalCO2Emission 	122.10212715358
scalar IntersectionExampleScenario.node[25].appl 	VehicleRemoved 	0
scalar IntersectionExampleScenario.node[25].appl 	ArrivedAtDest 	1
scalar IntersectionExampleScenario.node[25].appl 	IntersectionEnterTime 	93.75
scalar IntersectionExampleScenario.node[25].appl 	IntersectionExitTime 	117.78062421814
scalar IntersectionExampleScenario.node[25].appl 	NumberOfCollisions 	0
scalar IntersectionExampleScenario.node[25].nic.phy80211p 	busyTime 	0
scalar IntersectionExampleScenario.node[25].nic.mac1609_4 	ReceivedUnicastPackets 	0
scalar IntersectionExampleScenario.node[25].nic.mac1609_4 	ReceivedBroadcasts 	0
scalar IntersectionExampleScenario.node[25].nic.mac1609_4 	SentPackets 	0
scalar IntersectionExampleScenario.node[25].nic.mac1609_4 	SNIRLostPackets 	0
scalar IntersectionExampleScenario.node[25].nic.mac1609_4 	RXTXLostPackets 	0
scalar IntersectionExampleScenario.node[25].nic.mac1609_4 	TotalLostPackets 	0
scalar IntersectionExampleScenario.node[25].nic.mac1609_4 	DroppedPacketsInMac 	0
scalar IntersectionExampleScenario.node[25].nic.mac1609_4 	TooLittleTime 	0
scalar IntersectionExampleScenario.node[25].nic.mac1609_4 	TimesIntoBackoff 	0
scalar IntersectionExampleScenario.node[25].nic.mac1609_4 	SlotsBackoff 	0
scalar IntersectionExampleScenario.node[25].nic.mac1609_4 	NumInternalContention 	0
scalar IntersectionExampleScenario.node[25].nic.mac1609_4 	totalBusyTime 	0
scalar IntersectionExampleScenario.node[25].veinsmobility 	startTime 	93.75
scalar IntersectionExampleScenario.node[25].veinsmobility 	totalTime 	41.25
scalar IntersectionExampleScenario.node[25].veinsmobility 	stopTime 	135.25
scalar IntersectionExampleScenario.node[25].veinsmobility 	minSpeed 	5.6500000953674
scalar IntersectionExampleScenario.node[25].veinsmobility 	maxSpeed 	14.39999961853
scalar IntersectionExampleScenario.node[25].veinsmobility 	totalDistance 	553.73770141602
scalar IntersectionExampleScenario.node[25].veinsmobility 	totalCO2Emission 	111.00365439992
scalar IntersectionExampleScenario.node[26].appl 	VehicleRemoved 	0
scalar IntersectionExampleScenario.node[26].appl 	ArrivedAtDest 	1
scalar IntersectionExampleScenario.node[26].appl 	IntersectionEnterTime 	99.25
scalar IntersectionExampleScenario.node[26].appl 	IntersectionExitTime 	123.60158049391
scalar IntersectionExampleScenario.node[26].appl 	NumberOfCollisions 	0
scalar IntersectionExampleScenario.node[26].nic.phy80211p 	busyTime 	0
scalar IntersectionExampleScenario.node[26].nic.mac1609_4 	ReceivedUnicastPackets 	0
scalar IntersectionExampleScenario.node[26].nic.mac1609_4 	ReceivedBroadcasts 	0
scalar IntersectionExampleScenario.node[26].nic.mac1609_4 	SentPackets 	0
scalar IntersectionExampleScenario.node[26].nic.mac1609_4 	SNIRLostPackets 	0
scalar IntersectionExampleScenario.node[26].nic.mac1609_4 	RXTXLostPackets 	0
scalar IntersectionExampleScenario.node[26].nic.mac1609_4 	TotalLostPackets 	0
scalar IntersectionExampleScenario.node[26].nic.mac1609_4 	DroppedPacketsInMac 	0
scalar IntersectionExampleScenario.node[26].nic.mac1609_4 	TooLittleTime 	0
scalar IntersectionExampleScenario.node[26].nic.mac1609_4 	TimesIntoBackoff 	0
scalar IntersectionExampleScenario.node[26].nic.mac1609_4 	SlotsBackoff 	0
scalar IntersectionExampleScenario.node[26].nic.mac1609_4 	NumInternalContention 	0
scalar IntersectionExampleScenario.node[26].nic.mac1609_4 	totalBusyTime 	0
scalar IntersectionExampleScenario.node[26].veinsmobility 	startTime 	99.25
scalar IntersectionExampleScenario.node[26].veinsmobility 	totalTime 	40.25
scalar IntersectionExampleScenario.node[26].veinsmobility 	stopTime 	139.75
scalar IntersectionExampleScenario.node[26].veinsmobility 	minSpeed 	5.6500000953674
scalar IntersectionExampleScenario.node[26].veinsmobility 	maxSpeed 	15.64999961853
scalar IntersectionExampleScenario.node[26].veinsmobility 	totalDistance 	554.68785095215
scalar IntersectionExampleScenario.node[26].veinsmobility 	totalCO2Emission 	129.26848633553
scalar IntersectionExampleScenario.node[24].appl 	VehicleRemoved 	0
scalar IntersectionExampleScenario.node[24].appl 	ArrivedAtDest 	1
scalar IntersectionExampleScenario.node[24].appl 	IntersectionEnterTime 	92
scalar IntersectionExampleScenario.node[24].appl 	IntersectionExitTime 	123.5508803548
scalar IntersectionExampleScenario.node[24].appl 	NumberOfCollisions 	0
scalar IntersectionExampleScenario.node[24].nic.phy80211p 	busyTime 	0
scalar IntersectionExampleScenario.node[24].nic.mac1609_4 	ReceivedUnicastPackets 	0
scalar IntersectionExampleScenario.node[24].nic.mac1609_4 	ReceivedBroadcasts 	0
scalar IntersectionExampleScenario.node[24].nic.mac1609_4 	SentPackets 	0
scalar IntersectionExampleScenario.node[24].nic.mac1609_4 	SNIRLostPackets 	0
scalar IntersectionExampleScenario.node[24].nic.mac1609_4 	RXTXLostPackets 	0
scalar IntersectionExampleScenario.node[24].nic.mac1609_4 	TotalLostPackets 	0
scalar IntersectionExampleScenario.node[24].nic.mac1609_4 	DroppedPacketsInMac 	0
scalar IntersectionExampleScenario.node[24].nic.mac1609_4 	TooLittleTime 	0
scalar IntersectionExampleScenario.node[24].nic.mac1609_4 	TimesIntoBackoff 	0
scalar IntersectionExampleScenario.node[24].nic.mac1609_4 	SlotsBackoff 	0
scalar IntersectionExampleScenario.node[24].nic.mac1609_4 	NumInternalContention 	0
scalar IntersectionExampleScenario.node[24].nic.mac1609_4 	totalBusyTime 	0
scalar IntersectionExampleScenario.node[24].veinsmobility 	startTime 	92
scalar IntersectionExampleScenario.node[24].veinsmobility 	totalTime 	48
scalar IntersectionExampleScenario.node[24].veinsmobility 	stopTime 	140.25
scalar IntersectionExampleScenario.node[24].veinsmobility 	minSpeed 	0
scalar IntersectionExampleScenario.node[24].veinsmobility 	maxSpeed 	15.875
scalar IntersectionExampleScenario.node[24].veinsmobility 	totalDistance 	545.84707547576
scalar IntersectionExampleScenario.node[24].veinsmobility 	totalCO2Emission 	143.16323147963
scalar IntersectionExampleScenario.node[27].appl 	VehicleRemoved 	0
scalar IntersectionExampleScenario.node[27].appl 	ArrivedAtDest 	1
scalar IntersectionExampleScenario.node[27].appl 	IntersectionEnterTime 	99.5
scalar IntersectionExampleScenario.node[27].appl 	IntersectionExitTime 	126.77161660828
scalar IntersectionExampleScenario.node[27].appl 	NumberOfCollisions 	0
scalar IntersectionExampleScenario.node[27].nic.phy80211p 	busyTime 	0
scalar IntersectionExampleScenario.node[27].nic.mac1609_4 	ReceivedUnicastPackets 	0
scalar IntersectionExampleScenario.node[27].nic.mac1609_4 	ReceivedBroadcasts 	0
scalar IntersectionExampleScenario.node[27].nic.mac1609_4 	SentPackets 	0
scalar IntersectionExampleScenario.node[27].nic.mac1609_4 	SNIRLostPackets 	0
scalar IntersectionExampleScenario.node[27].nic.mac1609_4 	RXTXLostPackets 	0
scalar IntersectionExampleScenario.node[27].nic.mac1609_4 	TotalLostPackets 	0
scalar IntersectionExampleScenario.node[27].nic.mac1609_4 	DroppedPacketsInMac 	0
scalar IntersectionExampleScenario.node[27].nic.mac1609_4 	TooLittleTime 	0
scalar IntersectionExampleScenario.node[27].nic.mac1609_4 	TimesIntoBackoff 	0
scalar IntersectionExampleScenario.node[27].nic.mac1609_4 	SlotsBackoff 	0
scalar IntersectionExampleScenario.node[27].nic.mac1609_4 	NumInternalContention 	0
scalar IntersectionExampleScenario.node[27].nic.mac1609_4 	totalBusyTime 	0
scalar IntersectionExampleScenario.node[27].veinsmobility 	startTime 	99.5
scalar IntersectionExampleScenario.node[27].veinsmobility 	totalTime 	43.5
scalar IntersectionExampleScenario.node[27].veinsmobility 	stopTime 	143.25
scalar IntersectionExampleScenario.node[27].veinsmobility 	minSpeed 	5.0683808326721
scalar IntersectionExampleScenario.node[27].veinsmobility 	maxSpeed 	15.875
scalar IntersectionExampleScenario.node[27].veinsmobility 	totalDistance 	542.95854060671
scalar IntersectionExampleScenario.node[27].veinsmobility 	totalCO2Emission 	134.25783234721
scalar IntersectionExampleScenario.node[28].appl 	VehicleRemoved 	0
scalar IntersectionExampleScenario.node[28].appl 	ArrivedAtDest 	1
scalar IntersectionExampleScenario.node[28].appl 	IntersectionEnterTime 	99.75
scalar IntersectionExampleScenario.node[28].appl 	IntersectionExitTime 	138.76138378851
scalar IntersectionExampleScenario.node[28].appl 	NumberOfCollisions 	0
scalar IntersectionExampleScenario.node[28].nic.phy80211p 	busyTime 	0
scalar IntersectionExampleScenario.node[28].nic.mac1609_4 	ReceivedUnicastPackets 	0
scalar IntersectionExampleScenario.node[28].nic.mac1609_4 	ReceivedBroadcasts 	0
scalar IntersectionExampleScenario.node[28].nic.mac1609_4 	SentPackets 	0
scalar IntersectionExampleScenario.node[28].nic.mac1609_4 	SNIRLostPackets 	0
scalar IntersectionExampleScenario.node[28].nic.mac1609_4 	RXTXLostPackets 	0
scalar IntersectionExampleScenario.node[28].nic.mac1609_4 	TotalLostPackets 	0
scalar IntersectionExampleScenario.node[28].nic.mac1609_4 	DroppedPacketsInMac 	0
scalar IntersectionExampleScenario.node[28].nic.mac1609_4 	TooLittleTime 	0
scalar IntersectionExampleScenario.node[28].nic.mac1609_4 	TimesIntoBackoff 	0
scalar IntersectionExampleScenario.node[28].nic.mac1609_4 	SlotsBackoff 	0
scalar IntersectionExampleScenario.node[28].nic.mac1609_4 	NumInternalContention 	0
scalar IntersectionExampleScenario.node[28].nic.mac1609_4 	totalBusyTime 	0
scalar IntersectionExampleScenario.node[28].veinsmobility 	startTime 	99.75
scalar IntersectionExampleScenario.node[28].veinsmobility 	totalTime 	55
scalar IntersectionExampleScenario.node[28].veinsmobility 	stopTime 	155
scalar IntersectionExampleScenario.node[28].veinsmobility 	minSpeed 	0
scalar IntersectionExampleScenario.node[28].veinsmobility 	maxSpeed 	16
scalar IntersectionExampleScenario.node[28].veinsmobility 	totalDistance 	550.34798555803
scalar IntersectionExampleScenario.node[28].veinsmobility 	totalCO2Emission 	149.98808875181
scalar IntersectionExampleScenario.node[30].appl 	VehicleRemoved 	0
scalar IntersectionExampleScenario.node[30].appl 	ArrivedAtDest 	1
scalar IntersectionExampleScenario.node[30].appl 	IntersectionEnterTime 	110.25
scalar IntersectionExampleScenario.node[30].appl 	IntersectionExitTime 	139.37044192146
scalar IntersectionExampleScenario.node[30].appl 	NumberOfCollisions 	0
scalar IntersectionExampleScenario.node[30].nic.phy80211p 	busyTime 	0
scalar IntersectionExampleScenario.node[30].nic.mac1609_4 	ReceivedUnicastPackets 	0
scalar IntersectionExampleScenario.node[30].nic.mac1609_4 	ReceivedBroadcasts 	0
scalar IntersectionExampleScenario.node[30].nic.mac1609_4 	SentPackets 	0
scalar IntersectionExampleScenario.node[30].nic.mac1609_4 	SNIRLostPackets 	0
scalar IntersectionExampleScenario.node[30].nic.mac1609_4 	RXTXLostPackets 	0
scalar IntersectionExampleScenario.node[30].nic.mac1609_4 	TotalLostPackets 	0
scalar IntersectionExampleScenario.node[30].nic.mac1609_4 	DroppedPacketsInMac 	0
scalar IntersectionExampleScenario.node[30].nic.mac1609_4 	TooLittleTime 	0
scalar IntersectionExampleScenario.node[30].nic.mac1609_4 	TimesIntoBackoff 	0
scalar IntersectionExampleScenario.node[30].nic.mac1609_4 	SlotsBackoff 	0
scalar IntersectionExampleScenario.node[30].nic.mac1609_4 	NumInternalContention 	0
scalar IntersectionExampleScenario.node[30].nic.mac1609_4 	totalBusyTime 	0
scalar IntersectionExampleScenario.node[30].veinsmobility 	startTime 	110.25
scalar IntersectionExampleScenario.node[30].veinsmobility 	totalTime 	44.75
scalar IntersectionExampleScenario.node[30].veinsmobility 	stopTime 	155.25
scalar IntersectionExampleScenario.node[30].veinsmobility 	minSpeed 	0
scalar IntersectionExampleScenario.node[30].veinsmobility 	maxSpeed 	16
scalar IntersectionExampleScenario.node[30].veinsmobility 	totalDistance 	549.90858568301
scalar IntersectionExampleScenario.node[30].veinsmobility 	totalCO2Emission 	139.77041334589
scalar IntersectionExampleScenario.node[29].appl 	VehicleRemoved 	0
scalar IntersectionExampleScenario.node[29].appl 	ArrivedAtDest 	1
scalar IntersectionExampleScenario.node[29].appl 	IntersectionEnterTime 	101.75
scalar IntersectionExampleScenario.node[29].appl 	IntersectionExitTime 	141.5582490474
scalar IntersectionExampleScenario.node[29].appl 	NumberOfCollisions 	0
scalar IntersectionExampleScenario.node[29].nic.phy80211p 	busyTime 	0
scalar IntersectionExampleScenario.node[29].nic.mac1609_4 	ReceivedUnicastPackets 	0
scalar IntersectionExampleScenario.node[29].nic.mac1609_4 	ReceivedBroadcasts 	0
scalar IntersectionExampleScenario.node[29].nic.mac1609_4 	SentPackets 	0
scalar IntersectionExampleScenario.node[29].nic.mac1609_4 	SNIRLostPackets 	0
scalar IntersectionExampleScenario.node[29].nic.mac1609_4 	RXTXLostPackets 	0
scalar IntersectionExampleScenario.node[29].nic.mac1609_4 	TotalLostPackets 	0
scalar IntersectionExampleScenario.node[29].nic.mac1609_4 	DroppedPacketsInMac 	0
scalar IntersectionExampleScenario.node[29].nic.mac1609_4 	TooLittleTime 	0
scalar IntersectionExampleScenario.node[29].nic.mac1609_4 	TimesIntoBackoff 	0
scalar IntersectionExampleScenario.node[29].nic.mac1609_4 	SlotsBackoff 	0
scalar IntersectionExampleScenario.node[29].nic.mac1609_4 	NumInternalContention 	0
scalar IntersectionExampleScenario.node[29].nic.mac1609_4 	totalBusyTime 	0
scalar IntersectionExampleScenario.node[29].veinsmobility 	startTime 	101.75
scalar IntersectionExampleScenario.node[29].veinsmobility 	totalTime 	55.5
scalar IntersectionExampleScenario.node[29].veinsmobility 	stopTime 	157.5
scalar IntersectionExampleScenario.node[29].veinsmobility 	minSpeed 	0
scalar IntersectionExampleScenario.node[29].veinsmobility 	maxSpeed 	16
scalar IntersectionExampleScenario.node[29].veinsmobility 	totalDistance 	567.26940592821
scalar IntersectionExampleScenario.node[29].veinsmobility 	totalCO2Emission 	155.09750214675
scalar IntersectionExampleScenario.node[32].appl 	VehicleRemoved 	0
scalar IntersectionExampleScenario.node[32].appl 	ArrivedAtDest 	1
scalar IntersectionExampleScenario.node[32].appl 	IntersectionEnterTime 	118.25
scalar IntersectionExampleScenario.node[32].appl 	IntersectionExitTime 	142.75235868833
scalar IntersectionExampleScenario.node[32].appl 	NumberOfCollisions 	0
scalar IntersectionExampleScenario.node[32].nic.phy80211p 	busyTime 	0
scalar IntersectionExampleScenario.node[32].nic.mac1609_4 	ReceivedUnicastPackets 	0
scalar IntersectionExampleScenario.node[32].nic.mac1609_4 	ReceivedBroadcasts 	0
scalar IntersectionExampleScenario.node[32].nic.mac1609_4 	SentPackets 	0
scalar IntersectionExampleScenario.node[32].nic.mac1609_4 	SNIRLostPackets 	0
scalar IntersectionExampleScenario.node[32].nic.mac1609_4 	RXTXLostPackets 	0
scalar IntersectionExampleScenario.node[32].nic.mac1609_4 	TotalLostPackets 	0
scalar IntersectionExampleScenario.node[32].nic.mac1609_4 	DroppedPacketsInMac 	0
scalar IntersectionExampleScenario.node[32].nic.mac1609_4 	TooLittleTime 	0
scalar IntersectionExampleScenario.node[32].nic.mac1609_4 	TimesIntoBackoff 	0
scalar IntersectionExampleScenario.node[32].nic.mac1609_4 	SlotsBackoff 	0
scalar IntersectionExampleScenario.node[32].nic.mac1609_4 	NumInternalContention 	0
scalar IntersectionExampleScenario.node[32].nic.mac1609_4 	totalBusyTime 	0
scalar IntersectionExampleScenario.node[32].veinsmobility 	startTime 	118.25
scalar IntersectionExampleScenario.node[32].veinsmobility 	totalTime 	40.75
scalar IntersectionExampleScenario.node[32].veinsmobility 	stopTime 	159.25
scalar IntersectionExampleScenario.node[32].veinsmobility 	minSpeed 	5.6500000953674
scalar IntersectionExampleScenario.node[32].veinsmobility 	maxSpeed 	15.64999961853
scalar IntersectionExampleScenario.node[32].veinsmobility 	totalDistance 	549.12783627429
scalar IntersectionExampleScenario.node[32].veinsmobility 	totalCO2Emission 	133.0436032039
scalar IntersectionExampleScenario.node[31].appl 	VehicleRemoved 	0
scalar IntersectionExampleScenario.node[31].appl 	ArrivedAtDest 	1
scalar IntersectionExampleScenario.node[31].appl 	IntersectionEnterTime 	112.5
scalar IntersectionExampleScenario.node[31].appl 	IntersectionExitTime 	144.33895706158
scalar IntersectionExampleScenario.node[31].appl 	NumberOfCollisions 	0
scalar IntersectionExampleScenario.node[31].nic.phy80211p 	busyTime 	0
scalar IntersectionExampleScenario.node[31].nic.mac1609_4 	ReceivedUnicastPackets 	0
scalar IntersectionExampleScenario.node[31].nic.mac1609_4 	ReceivedBroadcasts 	0
scalar IntersectionExampleScenario.node[31].nic.mac1609_4 	SentPackets 	0
scalar IntersectionExampleScenario.node[31].nic.mac1609_4 	SNIRLostPackets 	0
scalar IntersectionExampleScenario.node[31].nic.mac1609_4 	RXTXLostPackets 	0
scalar IntersectionExampleScenario.node[31].nic.mac1609_4 	TotalLostPackets 	0
scalar IntersectionExampleScenario.node[31].nic.mac1609_4 	DroppedPacketsInMac 	0
scalar IntersectionExampleScenario.node[31].nic.mac1609_4 	TooLittleTime 	0
scalar IntersectionExampleScenario.node[31].nic.mac1609_4 	TimesIntoBackoff 	0
scalar IntersectionExampleScenario.node[31].nic.mac1609_4 	SlotsBackoff 	0
scalar IntersectionExampleScenario.node[31].nic.mac1609_4 	NumInternalContention 	0
scalar IntersectionExampleScenario.node[31].nic.mac1609_4 	totalBusyTime 	0
scalar IntersectionExampleScenario.node[31].veinsmobility 	startTime 	112.5
scalar IntersectionExampleScenario.node[31].veinsmobility 	totalTime 	49.25
scalar IntersectionExampleScenario.node[31].veinsmobility 	stopTime 	162
scalar IntersectionExampleScenario.node[31].veinsmobility 	minSpeed 	3.0281918048859
scalar IntersectionExampleScenario.node[31].veinsmobility 	maxSpeed 	14.39999961853
scalar IntersectionExampleScenario.node[31].veinsmobility 	totalDistance 	544.36721703351
scalar IntersectionExampleScenario.node[31].veinsmobility 	totalCO2Emission 	136.45426171919
scalar IntersectionExampleScenario.node[33].appl 	VehicleRemoved 	0
scalar IntersectionExampleScenario.node[33].appl 	ArrivedAtDest 	1
scalar IntersectionExampleScenario.node[33].appl 	IntersectionEnterTime 	120.5
scalar IntersectionExampleScenario.node[33].appl 	IntersectionExitTime 	154.31514014784
scalar IntersectionExampleScenario.node[33].appl 	NumberOfCollisions 	0
scalar IntersectionExampleScenario.node[33].nic.phy80211p 	busyTime 	0
scalar IntersectionExampleScenario.node[33].nic.mac1609_4 	ReceivedUnicastPackets 	0
scalar IntersectionExampleScenario.node[33].nic.mac1609_4 	ReceivedBroadcasts 	0
scalar IntersectionExampleScenario.node[33].nic.mac1609_4 	SentPackets 	0
scalar IntersectionExampleScenario.node[33].nic.mac1609_4 	SNIRLostPackets 	0
scalar IntersectionExampleScenario.node[33].nic.mac1609_4 	RXTXLostPackets 	0
scalar IntersectionExampleScenario.node[33].nic.mac1609_4 	TotalLostPackets 	0
scalar IntersectionExampleScenario.node[33].nic.mac1609_4 	DroppedPacketsInMac 	0
scalar IntersectionExampleScenario.node[33].nic.mac1609_4 	TooLittleTime 	0
scalar IntersectionExampleScenario.node[33].nic.mac1609_4 	TimesIntoBackoff 	0
scalar IntersectionExampleScenario.node[33].nic.mac1609_4 	SlotsBackoff 	0
scalar IntersectionExampleScenario.node[33].nic.mac1609_4 	NumInternalContention 	0
scalar IntersectionExampleScenario.node[33].nic.mac1609_4 	totalBusyTime 	0
scalar IntersectionExampleScenario.node[33].veinsmobility 	startTime 	120.5
scalar IntersectionExampleScenario.node[33].veinsmobility 	totalTime 	49
scalar IntersectionExampleScenario.node[33].veinsmobility 	stopTime 	169.75
scalar IntersectionExampleScenario.node[33].veinsmobility 	minSpeed 	0
scalar IntersectionExampleScenario.node[33].veinsmobility 	maxSpeed 	16.27499961853
scalar IntersectionExampleScenario.node[33].veinsmobility 	totalDistance 	547.72660173526
scalar IntersectionExampleScenario.node[33].veinsmobility 	totalCO2Emission 	147.54315256384
scalar IntersectionExampleScenario.node[34].appl 	VehicleRemoved 	0
scalar IntersectionExampleScenario.node[34].appl 	ArrivedAtDest 	1
scalar IntersectionExampleScenario.node[34].appl 	IntersectionEnterTime 	130.75
scalar IntersectionExampleScenario.node[34].appl 	IntersectionExitTime 	154.00968218417
scalar IntersectionExampleScenario.node[34].appl 	NumberOfCollisions 	0
scalar IntersectionExampleScenario.node[34].nic.phy80211p 	busyTime 	0
scalar IntersectionExampleScenario.node[34].nic.mac1609_4 	ReceivedUnicastPackets 	0
scalar IntersectionExampleScenario.node[34].nic.mac1609_4 	ReceivedBroadcasts 	0
scalar IntersectionExampleScenario.node[34].nic.mac1609_4 	SentPackets 	0
scalar IntersectionExampleScenario.node[34].nic.mac1609_4 	SNIRLostPackets 	0
scalar IntersectionExampleScenario.node[34].nic.mac1609_4 	RXTXLostPackets 	0
scalar IntersectionExampleScenario.node[34].nic.mac1609_4 	TotalLostPackets 	0
scalar IntersectionExampleScenario.node[34].nic.mac1609_4 	DroppedPacketsInMac 	0
scalar IntersectionExampleScenario.node[34].nic.mac1609_4 	TooLittleTime 	0
scalar IntersectionExampleScenario.node[34].nic.mac1609_4 	TimesIntoBackoff 	0
scalar IntersectionExampleScenario.node[34].nic.mac1609_4 	SlotsBackoff 	0
scalar IntersectionExampleScenario.node[34].nic.mac1609_4 	NumInternalContention 	0
scalar IntersectionExampleScenario.node[34].nic.mac1609_4 	totalBusyTime 	0
scalar IntersectionExampleScenario.node[34].veinsmobility 	startTime 	130.75
scalar IntersectionExampleScenario.node[34].veinsmobility 	totalTime 	39.5
scalar IntersectionExampleScenario.node[34].veinsmobility 	stopTime 	170.5
scalar IntersectionExampleScenario.node[34].veinsmobility 	minSpeed 	5.6500000953674
scalar IntersectionExampleScenario.node[34].veinsmobility 	maxSpeed 	15.5
scalar IntersectionExampleScenario.node[34].veinsmobility 	totalDistance 	553.49802398682
scalar IntersectionExampleScenario.node[34].veinsmobility 	totalCO2Emission 	120.37407547381
scalar IntersectionExampleScenario.node[36].appl 	VehicleRemoved 	0
scalar IntersectionExampleScenario.node[36].appl 	ArrivedAtDest 	1
scalar IntersectionExampleScenario.node[36].appl 	IntersectionEnterTime 	134.25
scalar IntersectionExampleScenario.node[36].appl 	IntersectionExitTime 	158.10721377775
scalar IntersectionExampleScenario.node[36].appl 	NumberOfCollisions 	0
scalar IntersectionExampleScenario.node[36].nic.phy80211p 	busyTime 	0
scalar IntersectionExampleScenario.node[36].nic.mac1609_4 	ReceivedUnicastPackets 	0
scalar IntersectionExampleScenario.node[36].nic.mac1609_4 	ReceivedBroadcasts 	0
scalar IntersectionExampleScenario.node[36].nic.mac1609_4 	SentPackets 	0
scalar IntersectionExampleScenario.node[36].nic.mac1609_4 	SNIRLostPackets 	0
scalar IntersectionExampleScenario.node[36].nic.mac1609_4 	RXTXLostPackets 	0
scalar IntersectionExampleScenario.node[36].nic.mac1609_4 	TotalLostPackets 	0
scalar IntersectionExampleScenario.node[36].nic.mac1609_4 	DroppedPacketsInMac 	0
scalar IntersectionExampleScenario.node[36].nic.mac1609_4 	TooLittleTime 	0
scalar IntersectionExampleScenario.node[36].nic.mac1609_4 	TimesIntoBackoff 	0
scalar IntersectionExampleScenario.node[36].nic.mac1609_4 	SlotsBackoff 	0
scalar IntersectionExampleScenario.node[36].nic.mac1609_4 	NumInternalContention 	0
scalar IntersectionExampleScenario.node[36].nic.mac1609_4 	totalBusyTime 	0
scalar IntersectionExampleScenario.node[36].veinsmobility 	startTime 	134.25
scalar IntersectionExampleScenario.node[36].veinsmobility 	totalTime 	40.25
scalar IntersectionExampleScenario.node[36].veinsmobility 	stopTime 	174.75
scalar IntersectionExampleScenario.node[36].veinsmobility 	minSpeed 	5.6500000953674
scalar IntersectionExampleScenario.node[36].veinsmobility 	maxSpeed 	15.875
scalar IntersectionExampleScenario.node[36].veinsmobility 	totalDistance 	554.95043938852
scalar IntersectionExampleScenario.node[36].veinsmobility 	totalCO2Emission 	129.95515320883
scalar IntersectionExampleScenario.node[35].appl 	VehicleRemoved 	0
scalar IntersectionExampleScenario.node[35].appl 	ArrivedAtDest 	1
scalar IntersectionExampleScenario.node[35].appl 	IntersectionEnterTime 	132.25
scalar IntersectionExampleScenario.node[35].appl 	IntersectionExitTime 	169.26795391965
scalar IntersectionExampleScenario.node[35].appl 	NumberOfCollisions 	0
scalar IntersectionExampleScenario.node[35].nic.phy80211p 	busyTime 	0
scalar IntersectionExampleScenario.node[35].nic.mac1609_4 	ReceivedUnicastPackets 	0
scalar IntersectionExampleScenario.node[35].nic.mac1609_4 	ReceivedBroadcasts 	0
scalar IntersectionExampleScenario.node[35].nic.mac1609_4 	SentPackets 	0
scalar IntersectionExampleScenario.node[35].nic.mac1609_4 	SNIRLostPackets 	0
scalar IntersectionExampleScenario.node[35].nic.mac1609_4 	RXTXLostPackets 	0
scalar IntersectionExampleScenario.node[35].nic.mac1609_4 	TotalLostPackets 	0
scalar IntersectionExampleScenario.node[35].nic.mac1609_4 	DroppedPacketsInMac 	0
scalar IntersectionExampleScenario.node[35].nic.mac1609_4 	TooLittleTime 	0
scalar IntersectionExampleScenario.node[35].nic.mac1609_4 	TimesIntoBackoff 	0
scalar IntersectionExampleScenario.node[35].nic.mac1609_4 	SlotsBackoff 	0
scalar IntersectionExampleScenario.node[35].nic.mac1609_4 	NumInternalContention 	0
scalar IntersectionExampleScenario.node[35].nic.mac1609_4 	totalBusyTime 	0
scalar IntersectionExampleScenario.node[35].veinsmobility 	startTime 	132.25
scalar IntersectionExampleScenario.node[35].veinsmobility 	totalTime 	53.25
scalar IntersectionExampleScenario.node[35].veinsmobility 	stopTime 	185.75
scalar IntersectionExampleScenario.node[35].veinsmobility 	minSpeed 	0
scalar IntersectionExampleScenario.node[35].veinsmobility 	maxSpeed 	15.375
scalar IntersectionExampleScenario.node[35].veinsmobility 	totalDistance 	553.37906646729
scalar IntersectionExampleScenario.node[35].veinsmobility 	totalCO2Emission 	143.86085560234
scalar IntersectionExampleScenario.node[37].appl 	VehicleRemoved 	0
scalar IntersectionExampleScenario.node[37].appl 	ArrivedAtDest 	1
scalar IntersectionExampleScenario.node[37].appl 	IntersectionEnterTime 	142.5
scalar IntersectionExampleScenario.node[37].appl 	IntersectionExitTime 	168.59537609253
scalar IntersectionExampleScenario.node[37].appl 	NumberOfCollisions 	0
scalar IntersectionExampleScenario.node[37].nic.phy80211p 	busyTime 	0
scalar IntersectionExampleScenario.node[37].nic.mac1609_4 	ReceivedUnicastPackets 	0
scalar IntersectionExampleScenario.node[37].nic.mac1609_4 	ReceivedBroadcasts 	0
scalar IntersectionExampleScenario.node[37].nic.mac1609_4 	SentPackets 	0
scalar IntersectionExampleScenario.node[37].nic.mac1609_4 	SNIRLostPackets 	0
scalar IntersectionExampleScenario.node[37].nic.mac1609_4 	RXTXLostPackets 	0
scalar IntersectionExampleScenario.node[37].nic.mac1609_4 	TotalLostPackets 	0
scalar IntersectionExampleScenario.node[37].nic.mac1609_4 	DroppedPacketsInMac 	0
scalar IntersectionExampleScenario.node[37].nic.mac1609_4 	TooLittleTime 	0
scalar IntersectionExampleScenario.node[37].nic.mac1609_4 	TimesIntoBackoff 	0
scalar IntersectionExampleScenario.node[37].nic.mac1609_4 	SlotsBackoff 	0
scalar IntersectionExampleScenario.node[37].nic.mac1609_4 	NumInternalContention 	0
scalar IntersectionExampleScenario.node[37].nic.mac1609_4 	totalBusyTime 	0
scalar IntersectionExampleScenario.node[37].veinsmobility 	startTime 	142.5
scalar IntersectionExampleScenario.node[37].veinsmobility 	totalTime 	43.25
scalar IntersectionExampleScenario.node[37].veinsmobility 	stopTime 	186
scalar IntersectionExampleScenario.node[37].veinsmobility 	minSpeed 	3.5011949539185
scalar IntersectionExampleScenario.node[37].veinsmobility 	maxSpeed 	14.75
scalar IntersectionExampleScenario.node[37].veinsmobility 	totalDistance 	549.92899245893
scalar IntersectionExampleScenario.node[37].veinsmobility 	totalCO2Emission 	126.59900419917
scalar IntersectionExampleScenario.node[38].appl 	VehicleRemoved 	0
scalar IntersectionExampleScenario.node[38].appl 	ArrivedAtDest 	1
scalar IntersectionExampleScenario.node[38].appl 	IntersectionEnterTime 	144.75
scalar IntersectionExampleScenario.node[38].appl 	IntersectionExitTime 	170.82274897787
scalar IntersectionExampleScenario.node[38].appl 	NumberOfCollisions 	0
scalar IntersectionExampleScenario.node[38].nic.phy80211p 	busyTime 	0
scalar IntersectionExampleScenario.node[38].nic.mac1609_4 	ReceivedUnicastPackets 	0
scalar IntersectionExampleScenario.node[38].nic.mac1609_4 	ReceivedBroadcasts 	0
scalar IntersectionExampleScenario.node[38].nic.mac1609_4 	SentPackets 	0
scalar IntersectionExampleScenario.node[38].nic.mac1609_4 	SNIRLostPackets 	0
scalar IntersectionExampleScenario.node[38].nic.mac1609_4 	RXTXLostPackets 	0
scalar IntersectionExampleScenario.node[38].nic.mac1609_4 	TotalLostPackets 	0
scalar IntersectionExampleScenario.node[38].nic.mac1609_4 	DroppedPacketsInMac 	0
scalar IntersectionExampleScenario.node[38].nic.mac1609_4 	TooLittleTime 	0
scalar IntersectionExampleScenario.node[38].nic.mac1609_4 	TimesIntoBackoff 	0
scalar IntersectionExampleScenario.node[38].nic.mac1609_4 	SlotsBackoff 	0
scalar IntersectionExampleScenario.node[38].nic.mac1609_4 	NumInternalContention 	0
scalar IntersectionExampleScenario.node[38].nic.mac1609_4 	totalBusyTime 	0
scalar IntersectionExampleScenario.node[38].veinsmobility 	startTime 	144.75
scalar IntersectionExampleScenario.node[38].veinsmobility 	totalTime 	42.5
scalar IntersectionExampleScenario.node[38].veinsmobility 	stopTime 	187.5
scalar IntersectionExampleScenario.node[38].veinsmobility 	minSpeed 	5.6500000953674
scalar IntersectionExampleScenario.node[38].veinsmobility 	maxSpeed 	15.30553817749
scalar IntersectionExampleScenario.node[38].veinsmobility 	totalDistance 	567.62294166766
scalar IntersectionExampleScenario.node[38].veinsmobility 	totalCO2Emission 	126.23862603137
scalar IntersectionExampleScenario.node[40].appl 	VehicleRemoved 	0
scalar IntersectionExampleScenario.node[40].appl 	ArrivedAtDest 	1
scalar IntersectionExampleScenario.node[40].appl 	IntersectionEnterTime 	153.25
scalar IntersectionExampleScenario.node[40].appl 	IntersectionExitTime 	183.53103503629
scalar IntersectionExampleScenario.node[40].appl 	NumberOfCollisions 	0
scalar IntersectionExampleScenario.node[40].nic.phy80211p 	busyTime 	0
scalar IntersectionExampleScenario.node[40].nic.mac1609_4 	ReceivedUnicastPackets 	0
scalar IntersectionExampleScenario.node[40].nic.mac1609_4 	ReceivedBroadcasts 	0
scalar IntersectionExampleScenario.node[40].nic.mac1609_4 	SentPackets 	0
scalar IntersectionExampleScenario.node[40].nic.mac1609_4 	SNIRLostPackets 	0
scalar IntersectionExampleScenario.node[40].nic.mac1609_4 	RXTXLostPackets 	0
scalar IntersectionExampleScenario.node[40].nic.mac1609_4 	TotalLostPackets 	0
scalar IntersectionExampleScenario.node[40].nic.mac1609_4 	DroppedPacketsInMac 	0
scalar IntersectionExampleScenario.node[40].nic.mac1609_4 	TooLittleTime 	0
scalar IntersectionExampleScenario.node[40].nic.mac1609_4 	TimesIntoBackoff 	0
[...]
scalar IntersectionExampleScenario.node[465].nic.mac1609_4 	NumInternalContention 	0
scalar IntersectionExampleScenario.node[465].nic.mac1609_4 	totalBusyTime 	0
scalar IntersectionExampleScenario.node[465].veinsmobility 	startTime 	1758
scalar IntersectionExampleScenario.node[465].veinsmobility 	totalTime 	39.5
scalar IntersectionExampleScenario.node[465].veinsmobility 	stopTime 	1797.75
scalar IntersectionExampleScenario.node[465].veinsmobility 	minSpeed 	5.6500000953674
scalar IntersectionExampleScenario.node[465].veinsmobility 	maxSpeed 	15.7737865448
scalar IntersectionExampleScenario.node[465].veinsmobility 	totalDistance 	575.20975494385
scalar IntersectionExampleScenario.node[465].veinsmobility 	totalCO2Emission 	123.11318231461
scalar IntersectionExampleScenario.manager 	EndTime 	1591474035
scalar IntersectionExampleScenario.manager 	StartTime 	1591473910
scalar IntersectionExampleScenario.manager 	TotalDuration 	125
scalar IntersectionExampleScenario.manager 	TotalFlux 	15.566666666667
scalar IntersectionExampleScenario.manager 	Direction-South-Flux 	3.5333333333333
scalar IntersectionExampleScenario.manager 	Direction-West-Flux 	4.0333333333333
scalar IntersectionExampleScenario.manager 	Direction-North-Flux 	3.6
scalar IntersectionExampleScenario.manager 	Direction-East-Flux 	4.4
scalar IntersectionExampleScenario.manager 	TotalMeanTime 	28.577513380428
scalar IntersectionExampleScenario.manager 	Direction-South-MeanTime 	28.488504439461
scalar IntersectionExampleScenario.manager 	Direction-West-MeanTime 	29.059975422561
scalar IntersectionExampleScenario.manager 	Direction-North-MeanTime 	27.324041733707
scalar IntersectionExampleScenario.manager 	Direction-East-MeanTime 	29.232301096264
scalar IntersectionExampleScenario.manager 	TotalStandardDeviation 	5.4086640542136
scalar IntersectionExampleScenario.manager 	Direction-South-StDev 	5.4474856966741
scalar IntersectionExampleScenario.manager 	Direction-West-StDev 	5.3078557516829
scalar IntersectionExampleScenario.manager 	Direction-North-StDev 	5.0202106466646
scalar IntersectionExampleScenario.manager 	Direction-East-StDev 	5.5933939695223
scalar IntersectionExampleScenario.node[466].appl 	VehicleRemoved 	0
scalar IntersectionExampleScenario.node[466].appl 	ArrivedAtDest 	0
scalar IntersectionExampleScenario.node[466].appl 	IntersectionEnterTime 	1764.25
scalar IntersectionExampleScenario.node[466].appl 	IntersectionExitTime 	1787.1194360179
scalar IntersectionExampleScenario.node[466].appl 	NumberOfCollisions 	0
scalar IntersectionExampleScenario.node[466].nic.phy80211p 	busyTime 	0
scalar IntersectionExampleScenario.node[466].nic.mac1609_4 	ReceivedUnicastPackets 	0
scalar IntersectionExampleScenario.node[466].nic.mac1609_4 	ReceivedBroadcasts 	0
scalar IntersectionExampleScenario.node[466].nic.mac1609_4 	SentPackets 	0
scalar IntersectionExampleScenario.node[466].nic.mac1609_4 	SNIRLostPackets 	0
scalar IntersectionExampleScenario.node[466].nic.mac1609_4 	RXTXLostPackets 	0
scalar IntersectionExampleScenario.node[466].nic.mac1609_4 	TotalLostPackets 	0
scalar IntersectionExampleScenario.node[466].nic.mac1609_4 	DroppedPacketsInMac 	0
scalar IntersectionExampleScenario.node[466].nic.mac1609_4 	TooLittleTime 	0
scalar IntersectionExampleScenario.node[466].nic.mac1609_4 	TimesIntoBackoff 	0
scalar IntersectionExampleScenario.node[466].nic.mac1609_4 	SlotsBackoff 	0
scalar IntersectionExampleScenario.node[466].nic.mac1609_4 	NumInternalContention 	0
scalar IntersectionExampleScenario.node[466].nic.mac1609_4 	totalBusyTime 	0
scalar IntersectionExampleScenario.node[466].veinsmobility 	startTime 	1764.25
scalar IntersectionExampleScenario.node[466].veinsmobility 	totalTime 	35.75
scalar IntersectionExampleScenario.node[466].veinsmobility 	stopTime 	1800
scalar IntersectionExampleScenario.node[466].veinsmobility 	minSpeed 	5.6500000953674
scalar IntersectionExampleScenario.node[466].veinsmobility 	maxSpeed 	15.64999961853
scalar IntersectionExampleScenario.node[466].veinsmobility 	totalDistance 	508.15384674072
scalar IntersectionExampleScenario.node[466].veinsmobility 	totalCO2Emission 	111.56338975922
scalar IntersectionExampleScenario.node[467].appl 	VehicleRemoved 	0
scalar IntersectionExampleScenario.node[467].appl 	ArrivedAtDest 	0
scalar IntersectionExampleScenario.node[467].appl 	IntersectionEnterTime 	1774.5
scalar IntersectionExampleScenario.node[467].appl 	IntersectionExitTime 	-1
scalar IntersectionExampleScenario.node[467].appl 	NumberOfCollisions 	0
scalar IntersectionExampleScenario.node[467].nic.phy80211p 	busyTime 	0
scalar IntersectionExampleScenario.node[467].nic.mac1609_4 	ReceivedUnicastPackets 	0
scalar IntersectionExampleScenario.node[467].nic.mac1609_4 	ReceivedBroadcasts 	0
scalar IntersectionExampleScenario.node[467].nic.mac1609_4 	SentPackets 	0
scalar IntersectionExampleScenario.node[467].nic.mac1609_4 	SNIRLostPackets 	0
scalar IntersectionExampleScenario.node[467].nic.mac1609_4 	RXTXLostPackets 	0
scalar IntersectionExampleScenario.node[467].nic.mac1609_4 	TotalLostPackets 	0
scalar IntersectionExampleScenario.node[467].nic.mac1609_4 	DroppedPacketsInMac 	0
scalar IntersectionExampleScenario.node[467].nic.mac1609_4 	TooLittleTime 	0
scalar IntersectionExampleScenario.node[467].nic.mac1609_4 	TimesIntoBackoff 	0
scalar IntersectionExampleScenario.node[467].nic.mac1609_4 	SlotsBackoff 	0
scalar IntersectionExampleScenario.node[467].nic.mac1609_4 	NumInternalContention 	0
scalar IntersectionExampleScenario.node[467].nic.mac1609_4 	totalBusyTime 	0
scalar IntersectionExampleScenario.node[467].veinsmobility 	startTime 	1774.5
scalar IntersectionExampleScenario.node[467].veinsmobility 	totalTime 	25.5
scalar IntersectionExampleScenario.node[467].veinsmobility 	stopTime 	1800
scalar IntersectionExampleScenario.node[467].veinsmobility 	minSpeed 	0
scalar IntersectionExampleScenario.node[467].veinsmobility 	maxSpeed 	15.64999961853
scalar IntersectionExampleScenario.node[467].veinsmobility 	totalDistance 	287.42188262939
scalar IntersectionExampleScenario.node[467].veinsmobility 	totalCO2Emission 	70.048225616271
scalar IntersectionExampleScenario.node[468].appl 	VehicleRemoved 	0
scalar IntersectionExampleScenario.node[468].appl 	ArrivedAtDest 	0
scalar IntersectionExampleScenario.node[468].appl 	IntersectionEnterTime 	1775.5
scalar IntersectionExampleScenario.node[468].appl 	IntersectionExitTime 	-1
scalar IntersectionExampleScenario.node[468].appl 	NumberOfCollisions 	0
scalar IntersectionExampleScenario.node[468].nic.phy80211p 	busyTime 	0
scalar IntersectionExampleScenario.node[468].nic.mac1609_4 	ReceivedUnicastPackets 	0
scalar IntersectionExampleScenario.node[468].nic.mac1609_4 	ReceivedBroadcasts 	0
scalar IntersectionExampleScenario.node[468].nic.mac1609_4 	SentPackets 	0
scalar IntersectionExampleScenario.node[468].nic.mac1609_4 	SNIRLostPackets 	0
scalar IntersectionExampleScenario.node[468].nic.mac1609_4 	RXTXLostPackets 	0
scalar IntersectionExampleScenario.node[468].nic.mac1609_4 	TotalLostPackets 	0
scalar IntersectionExampleScenario.node[468].nic.mac1609_4 	DroppedPacketsInMac 	0
scalar IntersectionExampleScenario.node[468].nic.mac1609_4 	TooLittleTime 	0
scalar IntersectionExampleScenario.node[468].nic.mac1609_4 	TimesIntoBackoff 	0
scalar IntersectionExampleScenario.node[468].nic.mac1609_4 	SlotsBackoff 	0
scalar IntersectionExampleScenario.node[468].nic.mac1609_4 	NumInternalContention 	0
scalar IntersectionExampleScenario.node[468].nic.mac1609_4 	totalBusyTime 	0
scalar IntersectionExampleScenario.node[468].veinsmobility 	startTime 	1775.5
scalar IntersectionExampleScenario.node[468].veinsmobility 	totalTime 	24.5
scalar IntersectionExampleScenario.node[468].veinsmobility 	stopTime 	1800
scalar IntersectionExampleScenario.node[468].veinsmobility 	minSpeed 	0
scalar IntersectionExampleScenario.node[468].veinsmobility 	maxSpeed 	16.00054359436
scalar IntersectionExampleScenario.node[468].veinsmobility 	totalDistance 	303.8395614624
scalar IntersectionExampleScenario.node[468].veinsmobility 	totalCO2Emission 	71.801760739197
scalar IntersectionExampleScenario.node[469].appl 	VehicleRemoved 	0
scalar IntersectionExampleScenario.node[469].appl 	ArrivedAtDest 	0
scalar IntersectionExampleScenario.node[469].appl 	IntersectionEnterTime 	1779.75
scalar IntersectionExampleScenario.node[469].appl 	IntersectionExitTime 	-1
scalar IntersectionExampleScenario.node[469].appl 	NumberOfCollisions 	0
scalar IntersectionExampleScenario.node[469].nic.phy80211p 	busyTime 	0
scalar IntersectionExampleScenario.node[469].nic.mac1609_4 	ReceivedUnicastPackets 	0
scalar IntersectionExampleScenario.node[469].nic.mac1609_4 	ReceivedBroadcasts 	0
scalar IntersectionExampleScenario.node[469].nic.mac1609_4 	SentPackets 	0
scalar IntersectionExampleScenario.node[469].nic.mac1609_4 	SNIRLostPackets 	0
scalar IntersectionExampleScenario.node[469].nic.mac1609_4 	RXTXLostPackets 	0
scalar IntersectionExampleScenario.node[469].nic.mac1609_4 	TotalLostPackets 	0
scalar IntersectionExampleScenario.node[469].nic.mac1609_4 	DroppedPacketsInMac 	0
scalar IntersectionExampleScenario.node[469].nic.mac1609_4 	TooLittleTime 	0
scalar IntersectionExampleScenario.node[469].nic.mac1609_4 	TimesIntoBackoff 	0
scalar IntersectionExampleScenario.node[469].nic.mac1609_4 	SlotsBackoff 	0
scalar IntersectionExampleScenario.node[469].nic.mac1609_4 	NumInternalContention 	0
scalar IntersectionExampleScenario.node[469].nic.mac1609_4 	totalBusyTime 	0
scalar IntersectionExampleScenario.node[469].veinsmobility 	startTime 	1779.75
scalar IntersectionExampleScenario.node[469].veinsmobility 	totalTime 	20.25
scalar IntersectionExampleScenario.node[469].veinsmobility 	stopTime 	1800
scalar IntersectionExampleScenario.node[469].veinsmobility 	minSpeed 	5.6500000953674
scalar IntersectionExampleScenario.node[469].veinsmobility 	maxSpeed 	15.64999961853
scalar IntersectionExampleScenario.node[469].veinsmobility 	totalDistance 	283.81658935547
scalar IntersectionExampleScenario.node[469].veinsmobility 	totalCO2Emission 	64.786082905364
scalar IntersectionExampleScenario.node[470].appl 	VehicleRemoved 	0
scalar IntersectionExampleScenario.node[470].appl 	ArrivedAtDest 	0
scalar IntersectionExampleScenario.node[470].appl 	IntersectionEnterTime 	1782
scalar IntersectionExampleScenario.node[470].appl 	IntersectionExitTime 	-1
scalar IntersectionExampleScenario.node[470].appl 	NumberOfCollisions 	0
scalar IntersectionExampleScenario.node[470].nic.phy80211p 	busyTime 	0
scalar IntersectionExampleScenario.node[470].nic.mac1609_4 	ReceivedUnicastPackets 	0
scalar IntersectionExampleScenario.node[470].nic.mac1609_4 	ReceivedBroadcasts 	0
scalar IntersectionExampleScenario.node[470].nic.mac1609_4 	SentPackets 	0
scalar IntersectionExampleScenario.node[470].nic.mac1609_4 	SNIRLostPackets 	0
scalar IntersectionExampleScenario.node[470].nic.mac1609_4 	RXTXLostPackets 	0
scalar IntersectionExampleScenario.node[470].nic.mac1609_4 	TotalLostPackets 	0
scalar IntersectionExampleScenario.node[470].nic.mac1609_4 	DroppedPacketsInMac 	0
scalar IntersectionExampleScenario.node[470].nic.mac1609_4 	TooLittleTime 	0
scalar IntersectionExampleScenario.node[470].nic.mac1609_4 	TimesIntoBackoff 	0
scalar IntersectionExampleScenario.node[470].nic.mac1609_4 	SlotsBackoff 	0
scalar IntersectionExampleScenario.node[470].nic.mac1609_4 	NumInternalContention 	0
scalar IntersectionExampleScenario.node[470].nic.mac1609_4 	totalBusyTime 	0
scalar IntersectionExampleScenario.node[470].veinsmobility 	startTime 	1782
scalar IntersectionExampleScenario.node[470].veinsmobility 	totalTime 	18
scalar IntersectionExampleScenario.node[470].veinsmobility 	stopTime 	1800
scalar IntersectionExampleScenario.node[470].veinsmobility 	minSpeed 	5.6500000953674
scalar IntersectionExampleScenario.node[470].veinsmobility 	maxSpeed 	15.02499961853
scalar IntersectionExampleScenario.node[470].veinsmobility 	totalDistance 	233.46057891846
scalar IntersectionExampleScenario.node[470].veinsmobility 	totalCO2Emission 	54.711257580224
scalar IntersectionExampleScenario.node[471].appl 	VehicleRemoved 	0
scalar IntersectionExampleScenario.node[471].appl 	ArrivedAtDest 	0
scalar IntersectionExampleScenario.node[471].appl 	IntersectionEnterTime 	1783.25
scalar IntersectionExampleScenario.node[471].appl 	IntersectionExitTime 	-1
scalar IntersectionExampleScenario.node[471].appl 	NumberOfCollisions 	0
scalar IntersectionExampleScenario.node[471].nic.phy80211p 	busyTime 	0
scalar IntersectionExampleScenario.node[471].nic.mac1609_4 	ReceivedUnicastPackets 	0
scalar IntersectionExampleScenario.node[471].nic.mac1609_4 	ReceivedBroadcasts 	0
scalar IntersectionExampleScenario.node[471].nic.mac1609_4 	SentPackets 	0
scalar IntersectionExampleScenario.node[471].nic.mac1609_4 	SNIRLostPackets 	0
scalar IntersectionExampleScenario.node[471].nic.mac1609_4 	RXTXLostPackets 	0
scalar IntersectionExampleScenario.node[471].nic.mac1609_4 	TotalLostPackets 	0
scalar IntersectionExampleScenario.node[471].nic.mac1609_4 	DroppedPacketsInMac 	0
scalar IntersectionExampleScenario.node[471].nic.mac1609_4 	TooLittleTime 	0
scalar IntersectionExampleScenario.node[471].nic.mac1609_4 	TimesIntoBackoff 	0
scalar IntersectionExampleScenario.node[471].nic.mac1609_4 	SlotsBackoff 	0
scalar IntersectionExampleScenario.node[471].nic.mac1609_4 	NumInternalContention 	0
scalar IntersectionExampleScenario.node[471].nic.mac1609_4 	totalBusyTime 	0
scalar IntersectionExampleScenario.node[471].veinsmobility 	startTime 	1783.25
scalar IntersectionExampleScenario.node[471].veinsmobility 	totalTime 	16.75
scalar IntersectionExampleScenario.node[471].veinsmobility 	stopTime 	1800
scalar IntersectionExampleScenario.node[471].veinsmobility 	minSpeed 	5.6500000953674
scalar IntersectionExampleScenario.node[471].veinsmobility 	maxSpeed 	15.236261367798
scalar IntersectionExampleScenario.node[471].veinsmobility 	totalDistance 	230.47895050049
scalar IntersectionExampleScenario.node[471].veinsmobility 	totalCO2Emission 	57.184859170544
scalar IntersectionExampleScenario.node[472].appl 	VehicleRemoved 	0
scalar IntersectionExampleScenario.node[472].appl 	ArrivedAtDest 	0
scalar IntersectionExampleScenario.node[472].appl 	IntersectionEnterTime 	1785.5
scalar IntersectionExampleScenario.node[472].appl 	IntersectionExitTime 	-1
scalar IntersectionExampleScenario.node[472].appl 	NumberOfCollisions 	0
scalar IntersectionExampleScenario.node[472].nic.phy80211p 	busyTime 	0
scalar IntersectionExampleScenario.node[472].nic.mac1609_4 	ReceivedUnicastPackets 	0
scalar IntersectionExampleScenario.node[472].nic.mac1609_4 	ReceivedBroadcasts 	0
scalar IntersectionExampleScenario.node[472].nic.mac1609_4 	SentPackets 	0
scalar IntersectionExampleScenario.node[472].nic.mac1609_4 	SNIRLostPackets 	0
scalar IntersectionExampleScenario.node[472].nic.mac1609_4 	RXTXLostPackets 	0
scalar IntersectionExampleScenario.node[472].nic.mac1609_4 	TotalLostPackets 	0
scalar IntersectionExampleScenario.node[472].nic.mac1609_4 	DroppedPacketsInMac 	0
scalar IntersectionExampleScenario.node[472].nic.mac1609_4 	TooLittleTime 	0
scalar IntersectionExampleScenario.node[472].nic.mac1609_4 	TimesIntoBackoff 	0
scalar IntersectionExampleScenario.node[472].nic.mac1609_4 	SlotsBackoff 	0
scalar IntersectionExampleScenario.node[472].nic.mac1609_4 	NumInternalContention 	0
scalar IntersectionExampleScenario.node[472].nic.mac1609_4 	totalBusyTime 	0
scalar IntersectionExampleScenario.node[472].veinsmobility 	startTime 	1785.5
scalar IntersectionExampleScenario.node[472].veinsmobility 	totalTime 	14.5
scalar IntersectionExampleScenario.node[472].veinsmobility 	stopTime 	1800
scalar IntersectionExampleScenario.node[472].veinsmobility 	minSpeed 	5.6500000953674
scalar IntersectionExampleScenario.node[472].veinsmobility 	maxSpeed 	15.64999961853
scalar IntersectionExampleScenario.node[472].veinsmobility 	totalDistance 	201.63224029541
scalar IntersectionExampleScenario.node[472].veinsmobility 	totalCO2Emission 	54.921745855353
scalar IntersectionExampleScenario.node[473].appl 	VehicleRemoved 	0
scalar IntersectionExampleScenario.node[473].appl 	ArrivedAtDest 	0
scalar IntersectionExampleScenario.node[473].appl 	IntersectionEnterTime 	1788
scalar IntersectionExampleScenario.node[473].appl 	IntersectionExitTime 	-1
scalar IntersectionExampleScenario.node[473].appl 	NumberOfCollisions 	0
scalar IntersectionExampleScenario.node[473].nic.phy80211p 	busyTime 	0
scalar IntersectionExampleScenario.node[473].nic.mac1609_4 	ReceivedUnicastPackets 	0
scalar IntersectionExampleScenario.node[473].nic.mac1609_4 	ReceivedBroadcasts 	0
scalar IntersectionExampleScenario.node[473].nic.mac1609_4 	SentPackets 	0
scalar IntersectionExampleScenario.node[473].nic.mac1609_4 	SNIRLostPackets 	0
scalar IntersectionExampleScenario.node[473].nic.mac1609_4 	RXTXLostPackets 	0
scalar IntersectionExampleScenario.node[473].nic.mac1609_4 	TotalLostPackets 	0
scalar IntersectionExampleScenario.node[473].nic.mac1609_4 	DroppedPacketsInMac 	0
scalar IntersectionExampleScenario.node[473].nic.mac1609_4 	TooLittleTime 	0
scalar IntersectionExampleScenario.node[473].nic.mac1609_4 	TimesIntoBackoff 	0
scalar IntersectionExampleScenario.node[473].nic.mac1609_4 	SlotsBackoff 	0
scalar IntersectionExampleScenario.node[473].nic.mac1609_4 	NumInternalContention 	0
scalar IntersectionExampleScenario.node[473].nic.mac1609_4 	totalBusyTime 	0
scalar IntersectionExampleScenario.node[473].veinsmobility 	startTime 	1788
scalar IntersectionExampleScenario.node[473].veinsmobility 	totalTime 	12
scalar IntersectionExampleScenario.node[473].veinsmobility 	stopTime 	1800
scalar IntersectionExampleScenario.node[473].veinsmobility 	minSpeed 	5.6500000953674
scalar IntersectionExampleScenario.node[473].veinsmobility 	maxSpeed 	15.64999961853
scalar IntersectionExampleScenario.node[473].veinsmobility 	totalDistance 	164.70343017578
scalar IntersectionExampleScenario.node[473].veinsmobility 	totalCO2Emission 	50.416692400154
scalar IntersectionExampleScenario.node[474].appl 	VehicleRemoved 	0
scalar IntersectionExampleScenario.node[474].appl 	ArrivedAtDest 	0
scalar IntersectionExampleScenario.node[474].appl 	IntersectionEnterTime 	1794
scalar IntersectionExampleScenario.node[474].appl 	IntersectionExitTime 	-1
scalar IntersectionExampleScenario.node[474].appl 	NumberOfCollisions 	0
scalar IntersectionExampleScenario.node[474].nic.phy80211p 	busyTime 	0
scalar IntersectionExampleScenario.node[474].nic.mac1609_4 	ReceivedUnicastPackets 	0
scalar IntersectionExampleScenario.node[474].nic.mac1609_4 	ReceivedBroadcasts 	0
scalar IntersectionExampleScenario.node[474].nic.mac1609_4 	SentPackets 	0
scalar IntersectionExampleScenario.node[474].nic.mac1609_4 	SNIRLostPackets 	0
scalar IntersectionExampleScenario.node[474].nic.mac1609_4 	RXTXLostPackets 	0
scalar IntersectionExampleScenario.node[474].nic.mac1609_4 	TotalLostPackets 	0
scalar IntersectionExampleScenario.node[474].nic.mac1609_4 	DroppedPacketsInMac 	0
scalar IntersectionExampleScenario.node[474].nic.mac1609_4 	TooLittleTime 	0
scalar IntersectionExampleScenario.node[474].nic.mac1609_4 	TimesIntoBackoff 	0
scalar IntersectionExampleScenario.node[474].nic.mac1609_4 	SlotsBackoff 	0
scalar IntersectionExampleScenario.node[474].nic.mac1609_4 	NumInternalContention 	0
scalar IntersectionExampleScenario.node[474].nic.mac1609_4 	totalBusyTime 	0
scalar IntersectionExampleScenario.node[474].veinsmobility 	startTime 	1794
scalar IntersectionExampleScenario.node[474].veinsmobility 	totalTime 	6
scalar IntersectionExampleScenario.node[474].veinsmobility 	stopTime 	1800
scalar IntersectionExampleScenario.node[474].veinsmobility 	minSpeed 	5.6500000953674
scalar IntersectionExampleScenario.node[474].veinsmobility 	maxSpeed 	15.941303253174
scalar IntersectionExampleScenario.node[474].veinsmobility 	totalDistance 	71.696495056152
scalar IntersectionExampleScenario.node[474].veinsmobility 	totalCO2Emission 	38.447962235801
