file 15930437 1591473777                                        
version 2
run nodebug-35-20200606-16:00:39-20656
attr configname nodebug
attr datetime 20200606-16:00:39
attr experiment nodebug
attr inifile omnetpp.ini
attr iterationvars ""
attr iterationvars2 $repetition=35
attr measurement ""
attr network "\"org.car2x.veins.modules.application.ExtTraCIScenarioManagerLaunchd.IntersectionExampleScenario\""
attr processid 20656
attr repetition 35
attr replication #35
attr resultdir results
attr runnumber 35
attr seedset 35
param **.coreDebug false
param **.debug false
param *.**.nic.mac1609_4.bitrate 18Mbps
param *.**.nic.mac1609_4.txPower 20mW
param *.**.nic.mac1609_4.useServiceChannel false
param *.**.nic.phy80211p.analogueModels "xmldoc(\"config.xml\")"
param *.**.nic.phy80211p.decider "xmldoc(\"config.xml\")"
param *.**.nic.phy80211p.sensitivity -89dBm
param *.**.nic.phy80211p.thermalNoise -110dBm
param *.**.nic.phy80211p.usePropagationDelay true
param *.**.nic.phy80211p.useThermalNoise true
param *.annotations.draw false
param *.connectionManager.alpha 2.0
param *.connectionManager.carrierFrequency "5.890e9 Hz"
param *.connectionManager.pMax 20mW
param *.connectionManager.sat -89dBm
param *.connectionManager.sendDirect true
param *.manager.autoShutdown true
param *.manager.host "\"localhost\""
param *.manager.launchConfig "xmldoc(\"paramics.launchd.xml\")"
param *.manager.margin 25
param *.manager.moduleDisplayString "\"\""
param *.manager.moduleName "\"node\""
param *.manager.moduleType "\"org.car2x.veins.nodes.Car\""
param *.manager.port 9999
param *.manager.updateInterval 250ms
param *.node[*0].veinsmobility.accidentCount 0
param *.node[*0].veinsmobility.accidentDuration 30s
param *.node[*0].veinsmobility.accidentStart 75s
param *.node[*].appl.LiderSelectZoneRadio 55.0
param *.node[*].appl.ShareDataZoneRadio 110.0
param *.node[*].appl.TiempoSemaforo 30.0
param *.node[*].appl.beaconInterval 1s
param *.node[*].appl.beaconPriority 3
param *.node[*].appl.dataOnSch false
param *.node[*].appl.dataPriority 2
param *.node[*].appl.debug false
param *.node[*].appl.headerLength "256 bit"
param *.node[*].appl.maxOffset 0.005s
param *.node[*].appl.sendBeacons false
param *.node[*].appl.sendData true
param *.node[*].applType "\"Dummy\""
param *.node[*].mobilityType "\"TraCIMobility\""
param *.node[*].mobilityType.debug true
param *.node[*].veinsmobility.x 0
param *.node[*].veinsmobility.y 0
param *.node[*].veinsmobility.z 1.895
param *.node[*].veinsmobilityType "\"org.car2x.veins.modules.mobility.traci.TraCIMobility\""
param *.node[*].veinsmobilityType.debug true
param *.playgroundSizeX 8500m
param *.playgroundSizeY 8500m
param *.playgroundSizeZ 50m
param *.world.use2D false
param *.world.useTorus false

vector 32067  IntersectionExampleScenario.manager  vehiclesinsim  ETV
attr type  int
vector 32068  IntersectionExampleScenario.manager  realtime  ETV
attr type  int
attr unit  s
vector 32071  IntersectionExampleScenario.node[0].veinsmobility  posx  ETV
vector 32072  IntersectionExampleScenario.node[0].veinsmobility  posy  ETV
vector 32073  IntersectionExampleScenario.node[0].veinsmobility  speed  ETV
vector 32074  IntersectionExampleScenario.node[0].veinsmobility  acceleration  ETV
vector 32075  IntersectionExampleScenario.node[0].veinsmobility  co2emission  ETV
vector 32078  IntersectionExampleScenario.node[1].veinsmobility  posx  ETV
vector 32079  IntersectionExampleScenario.node[1].veinsmobility  posy  ETV
vector 32080  IntersectionExampleScenario.node[1].veinsmobility  speed  ETV
vector 32081  IntersectionExampleScenario.node[1].veinsmobility  acceleration  ETV
vector 32082  IntersectionExampleScenario.node[1].veinsmobility  co2emission  ETV
vector 32085  IntersectionExampleScenario.node[2].veinsmobility  posx  ETV
vector 32086  IntersectionExampleScenario.node[2].veinsmobility  posy  ETV
vector 32087  IntersectionExampleScenario.node[2].veinsmobility  speed  ETV
vector 32088  IntersectionExampleScenario.node[2].veinsmobility  acceleration  ETV
vector 32089  IntersectionExampleScenario.node[2].veinsmobility  co2emission  ETV
vector 32092  IntersectionExampleScenario.node[3].veinsmobility  posx  ETV
vector 32093  IntersectionExampleScenario.node[3].veinsmobility  posy  ETV
vector 32094  IntersectionExampleScenario.node[3].veinsmobility  speed  ETV
vector 32095  IntersectionExampleScenario.node[3].veinsmobility  acceleration  ETV
vector 32096  IntersectionExampleScenario.node[3].veinsmobility  co2emission  ETV
vector 32099  IntersectionExampleScenario.node[4].veinsmobility  posx  ETV
vector 32100  IntersectionExampleScenario.node[4].veinsmobility  posy  ETV
vector 32101  IntersectionExampleScenario.node[4].veinsmobility  speed  ETV
vector 32102  IntersectionExampleScenario.node[4].veinsmobility  acceleration  ETV
vector 32103  IntersectionExampleScenario.node[4].veinsmobility  co2emission  ETV
vector 32106  IntersectionExampleScenario.node[5].veinsmobility  posx  ETV
vector 32107  IntersectionExampleScenario.node[5].veinsmobility  posy  ETV
vector 32108  IntersectionExampleScenario.node[5].veinsmobility  speed  ETV
vector 32109  IntersectionExampleScenario.node[5].veinsmobility  acceleration  ETV
vector 32110  IntersectionExampleScenario.node[5].veinsmobility  co2emission  ETV
vector 32113  IntersectionExampleScenario.node[6].veinsmobility  posx  ETV
vector 32114  IntersectionExampleScenario.node[6].veinsmobility  posy  ETV
vector 32115  IntersectionExampleScenario.node[6].veinsmobility  speed  ETV
vector 32116  IntersectionExampleScenario.node[6].veinsmobility  acceleration  ETV
vector 32117  IntersectionExampleScenario.node[6].veinsmobility  co2emission  ETV
vector 32120  IntersectionExampleScenario.node[7].veinsmobility  posx  ETV
vector 32121  IntersectionExampleScenario.node[7].veinsmobility  posy  ETV
vector 32122  IntersectionExampleScenario.node[7].veinsmobility  speed  ETV
vector 32123  IntersectionExampleScenario.node[7].veinsmobility  acceleration  ETV
vector 32124  IntersectionExampleScenario.node[7].veinsmobility  co2emission  ETV
vector 32127  IntersectionExampleScenario.node[8].veinsmobility  posx  ETV
vector 32128  IntersectionExampleScenario.node[8].veinsmobility  posy  ETV
vector 32129  IntersectionExampleScenario.node[8].veinsmobility  speed  ETV
vector 32130  IntersectionExampleScenario.node[8].veinsmobility  acceleration  ETV
vector 32131  IntersectionExampleScenario.node[8].veinsmobility  co2emission  ETV
vector 32134  IntersectionExampleScenario.node[9].veinsmobility  posx  ETV
vector 32135  IntersectionExampleScenario.node[9].veinsmobility  posy  ETV
vector 32136  IntersectionExampleScenario.node[9].veinsmobility  speed  ETV
vector 32137  IntersectionExampleScenario.node[9].veinsmobility  acceleration  ETV
vector 32138  IntersectionExampleScenario.node[9].veinsmobility  co2emission  ETV
vector 32141  IntersectionExampleScenario.node[10].veinsmobility  posx  ETV
vector 32142  IntersectionExampleScenario.node[10].veinsmobility  posy  ETV
vector 32143  IntersectionExampleScenario.node[10].veinsmobility  speed  ETV
vector 32144  IntersectionExampleScenario.node[10].veinsmobility  acceleration  ETV
vector 32145  IntersectionExampleScenario.node[10].veinsmobility  co2emission  ETV
vector 32148  IntersectionExampleScenario.node[11].veinsmobility  posx  ETV
vector 32149  IntersectionExampleScenario.node[11].veinsmobility  posy  ETV
vector 32150  IntersectionExampleScenario.node[11].veinsmobility  speed  ETV
vector 32151  IntersectionExampleScenario.node[11].veinsmobility  acceleration  ETV
vector 32152  IntersectionExampleScenario.node[11].veinsmobility  co2emission  ETV
32089	7698 4747 146 2558 9.75 47 150 0.973 12.099024792222 483.88166497964 2737.8900499212
32088	12445 4495 146 2558 9.75 47 150 -3.0432586669922 2.5 40.378400802612 207.69167533523
32087	16940 4678 139 2558 9.5 47 151 5.6500000953674 16.27499961853 2213.592461586 33203.646420893
32086	21618 4946 132 2558 9.25 47 152 486.85000610352 486.85000610352 74001.200927734 36027485.123335
32085	26564 4920 132 2558 9.25 47 152 237.74908447266 785.82187652588 79431.000816345 45528999.464051
vector 32155  IntersectionExampleScenario.node[12].veinsmobility  posx  ETV
vector 32156  IntersectionExampleScenario.node[12].veinsmobility  posy  ETV
vector 32157  IntersectionExampleScenario.node[12].veinsmobility  speed  ETV
vector 32158  IntersectionExampleScenario.node[12].veinsmobility  acceleration  ETV
vector 32159  IntersectionExampleScenario.node[12].veinsmobility  co2emission  ETV
vector 32162  IntersectionExampleScenario.node[13].veinsmobility  posx  ETV
vector 32163  IntersectionExampleScenario.node[13].veinsmobility  posy  ETV
vector 32164  IntersectionExampleScenario.node[13].veinsmobility  speed  ETV
vector 32165  IntersectionExampleScenario.node[13].veinsmobility  acceleration  ETV
vector 32166  IntersectionExampleScenario.node[13].veinsmobility  co2emission  ETV
vector 32169  IntersectionExampleScenario.node[14].veinsmobility  posx  ETV
vector 32170  IntersectionExampleScenario.node[14].veinsmobility  posy  ETV
vector 32171  IntersectionExampleScenario.node[14].veinsmobility  speed  ETV
32075	32518 5660 15 2754 2.5 50 191 0.96333723109819 12.099024792222 578.52618753455 3199.0041511634
32074	38178 5346 15 2754 2.5 50 191 -6.7176246643066 4 40.208654403687 481.76706844698
32073	43524 5522 12 2754 2.25 50 192 0 16.27499961853 2211.3687682152 32034.178808988
32072	49046 6197 9 2754 2 50 193 483.14999389648 785.82187652588 107708.7950058 62015837.07734
32071	55243 6210 9 2754 2 50 193 483.14999389648 735.19940185547 101545.96218872 54463941.656488
vector 32172  IntersectionExampleScenario.node[14].veinsmobility  acceleration  ETV
vector 32173  IntersectionExampleScenario.node[14].veinsmobility  co2emission  ETV
32082	61622 5808 52 2917 5.25 52.5 190 0.97223939240464 11.648172402475 560.42517356652 2893.1230325196
32081	67430 5696 52 2917 5.25 52.5 190 -4.5 2.5000009536743 38.680875778198 406.35845727268
32080	73126 5982 47 2917 5 52.5 191 0 15.64999961853 2261.3624905739 31580.682230218
32079	79108 6211 42 2917 4.75 52.5 192 482.8825378418 800.04531860352 108854.66535187 63824963.873477
32078	85319 6207 42 2917 4.75 52.5 192 483.14999389648 732.99090576172 101122.01499939 54285122.013625
32117	91526 5015 595 3255 19.5 58.5 157 0.973 11.648172402475 489.93848290835 2630.9394071346
32116	96541 4582 595 3255 19.5 58.5 157 -3.2447280883789 2.5 38.341367721558 231.96890981277
32115	101123 4905 580 3255 19.25 58.5 158 5.6500000953674 15.64999961853 2204.4889039993 31683.154117764
32114	106028 5209 565 3255 19 58.5 159 483.14999389648 785.82187652588 90941.229881287 53788234.538224
32113	111237 5199 565 3255 19 58.5 159 483.14999389648 732.29183959961 85173.61227417 46573379.161166
vector 32176  IntersectionExampleScenario.node[15].veinsmobility  posx  ETV
vector 32177  IntersectionExampleScenario.node[15].veinsmobility  posy  ETV
vector 32178  IntersectionExampleScenario.node[15].veinsmobility  speed  ETV
vector 32179  IntersectionExampleScenario.node[15].veinsmobility  acceleration  ETV
vector 32180  IntersectionExampleScenario.node[15].veinsmobility  co2emission  ETV
32124	116837 4930 884 3465 24.25 62.75 155 0.973 12.099024792222 522.71217105116 2954.8565922724
32123	121767 4822 884 3465 24.25 62.75 155 -4.4868545532227 2.5 40.887662887573 306.12627991889
32122	126589 4819 867 3465 24 62.75 156 5.6500000953674 16.27499961853 2183.2190628052 32104.12461276
32121	131408 5154 850 3465 23.75 62.75 157 184.17810058594 483.19122314453 62379.454986572 26493927.127008
32120	136562 5168 850 3465 23.75 62.75 157 486.85000610352 733.00787353516 84318.616638184 46174829.745687
vector 32183  IntersectionExampleScenario.node[16].veinsmobility  posx  ETV
vector 32184  IntersectionExampleScenario.node[16].veinsmobility  posy  ETV
vector 32190  IntersectionExampleScenario.node[17].veinsmobility  posx  ETV
vector 32191  IntersectionExampleScenario.node[17].veinsmobility  posy  ETV
vector 32185  IntersectionExampleScenario.node[16].veinsmobility  speed  ETV
vector 32186  IntersectionExampleScenario.node[16].veinsmobility  acceleration  ETV
vector 32187  IntersectionExampleScenario.node[16].veinsmobility  co2emission  ETV
vector 32192  IntersectionExampleScenario.node[17].veinsmobility  speed  ETV
vector 32193  IntersectionExampleScenario.node[17].veinsmobility  acceleration  ETV
vector 32194  IntersectionExampleScenario.node[17].veinsmobility  co2emission  ETV
32096	142532 6453 185 3595 11 65.25 218 0.973 11.450879080643 582.06274130364 2826.5577770766
32095	148985 5615 185 3595 11 65.25 218 -27.046257019043 4 37.15309715271 1119.7383099423
32094	154600 6110 176 3595 10.75 65.25 219 0 15.375 2184.683590889 30731.851422913
32093	160710 7193 167 3595 10.5 65.25 220 483.14999389648 733.74011230469 114887.14289856 61097079.017476
32092	167903 7177 167 3595 10.5 65.25 220 184.17810058594 486.85000610352 91882.435211182 40398261.294307
32110	175080 6195 318 3634 14.25 66 208 0.973 11.200708441096 549.43792187479 2661.155462101
32109	181275 5802 318 3634 14.25 66 208 -9.1907272338867 4 35.285810470581 481.83186570852
32108	187077 6020 305 3634 14 66 209 0 15.02499961853 2119.3467576504 28706.711784327
32107	193097 6880 292 3634 13.75 66 210 486.85000610352 486.85000610352 102238.50128174 49774814.973028
32106	199977 6853 292 3634 13.75 66 210 236.45141601562 762.81875610352 106287.78536987 57593304.040631
32103	206830 6543 270 3686 13.25 67 216 0.96931264383463 11.366432719538 614.51214056847 3076.4485172143
32102	213373 6487 270 3686 13.25 67 216 -4.5 2.5000009536743 38.428068161011 494.7208917227
32101	219860 6747 259 3686 13 67 217 0 16.187343597412 2245.3503801497 31780.767511725
32100	226607 7140 248 3686 12.75 67 218 486.85000610352 486.85000610352 106133.30133057 51670998.400572
32099	233747 7112 248 3686 12.75 67 218 238.29992675781 795.46562957764 114530.78875732 64663230.875562
vector 32197  IntersectionExampleScenario.node[18].veinsmobility  posx  ETV
vector 32198  IntersectionExampleScenario.node[18].veinsmobility  posy  ETV
vector 32199  IntersectionExampleScenario.node[18].veinsmobility  speed  ETV
vector 32200  IntersectionExampleScenario.node[18].veinsmobility  acceleration  ETV
vector 32201  IntersectionExampleScenario.node[18].veinsmobility  co2emission  ETV
vector 32204  IntersectionExampleScenario.node[19].veinsmobility  posx  ETV
vector 32205  IntersectionExampleScenario.node[19].veinsmobility  posy  ETV
vector 32206  IntersectionExampleScenario.node[19].veinsmobility  speed  ETV
vector 32207  IntersectionExampleScenario.node[19].veinsmobility  acceleration  ETV
vector 32208  IntersectionExampleScenario.node[19].veinsmobility  co2emission  ETV
32145	241661 4890 1664 4042 34.75 73 154 0.973 12.099024792222 503.06032169341 2900.0431997035
32144	246551 4612 1664 4042 34.75 73 154 -3.2763252258301 2.5 40.038900375366 253.89157325251
32143	251163 4814 1645 4042 34.5 73 155 5.6500000953674 16.27499961853 2209.5418395996 32542.583874545
32142	255977 5137 1625 4042 34.25 73 156 483.14999389648 733.59259033203 83589.823303223 45727610.559691
32141	261114 5120 1625 4042 34.25 73 156 184.17810058594 486.88021850586 62083.112121582 26456249.551934
32138	266234 5142 1606 4076 34 73.5 159 0.973 11.200708441096 456.73025792377 2199.7707180944
32137	271376 4598 1606 4076 34 73.5 159 -3.6071472167969 2.5 35.964826583862 173.54154657218
32136	275974 5049 1587 4076 33.75 73.5 160 5.6500000953674 15.02499961853 2217.4458866119 31251.695486063
32135	281023 5313 1568 4076 33.5 73.5 161 486.85000610352 486.85000610352 78382.850982666 38160691.479322
32134	286336 5274 1568 4076 33.5 73.5 161 236.46484375 785.82187652588 83779.400169373 47862632.295379
vector 32211  IntersectionExampleScenario.node[20].veinsmobility  posx  ETV
vector 32212  IntersectionExampleScenario.node[20].veinsmobility  posy  ETV
vector 32213  IntersectionExampleScenario.node[20].veinsmobility  speed  ETV
vector 32214  IntersectionExampleScenario.node[20].veinsmobility  acceleration  ETV
vector 32215  IntersectionExampleScenario.node[20].veinsmobility  co2emission  ETV
32152	292011 5478 1800 4474 36.5 80 175 0.973 11.648172402475 553.6435846185 2942.8186837379
32151	297489 5072 1800 4474 36.5 80 175 -9.059645652771 4 39.359884262085 495.33682416731
32150	302561 5387 1780 4474 36.25 80 176 0 15.64999961853 2199.7334735394 31437.153583153
32149	307948 5805 1759 4474 36 80 177 184.17810058594 486.85000610352 71824.359344482 30995631.250984
32148	313753 5834 1759 4474 36 80 177 237.83215332031 486.85000610352 77961.160400391 35319396.845253
32131	319587 6640 956 4504 25.25 80.5 222 0.973 11.450879080643 590.60205593997 2864.4958888462
32130	326227 5754 956 4504 25.25 80.5 222 -45.930889129639 4 37.15309715271 2412.8323157414
32129	331981 6255 937 4504 25 80.5 223 0 15.375 2207.7423782349 31397.788582834
32128	338236 7375 918 4504 24.75 80.5 224 236.75714111328 785.82187652588 115211.77376556 63483205.818049
32127	345611 7387 918 4504 24.75 80.5 224 483.14999389648 483.14999389648 108225.59863281 52289197.318887
vector 32218  IntersectionExampleScenario.node[21].veinsmobility  posx  ETV
vector 32219  IntersectionExampleScenario.node[21].veinsmobility  posy  ETV
vector 32220  IntersectionExampleScenario.node[21].veinsmobility  speed  ETV
vector 32221  IntersectionExampleScenario.node[21].veinsmobility  acceleration  ETV
vector 32222  IntersectionExampleScenario.node[21].veinsmobility  co2emission  ETV
vector 32225  IntersectionExampleScenario.node[22].veinsmobility  posx  ETV
vector 32226  IntersectionExampleScenario.node[22].veinsmobility  posy  ETV
vector 32227  IntersectionExampleScenario.node[22].veinsmobility  speed  ETV
vector 32228  IntersectionExampleScenario.node[22].veinsmobility  acceleration  ETV
vector 32229  IntersectionExampleScenario.node[22].veinsmobility  co2emission  ETV
vector 32232  IntersectionExampleScenario.node[23].veinsmobility  posx  ETV
vector 32233  IntersectionExampleScenario.node[23].veinsmobility  posy  ETV
vector 32234  IntersectionExampleScenario.node[23].veinsmobility  speed  ETV
vector 32235  IntersectionExampleScenario.node[23].veinsmobility  acceleration  ETV
vector 32236  IntersectionExampleScenario.node[23].veinsmobility  co2emission  ETV
vector 32239  IntersectionExampleScenario.node[24].veinsmobility  posx  ETV
vector 32240  IntersectionExampleScenario.node[24].veinsmobility  posy  ETV
vector 32241  IntersectionExampleScenario.node[24].veinsmobility  speed  ETV
vector 32242  IntersectionExampleScenario.node[24].veinsmobility  acceleration  ETV
vector 32243  IntersectionExampleScenario.node[24].veinsmobility  co2emission  ETV
32173	354602 5275 2771 5087 50.25 91.25 165 0.973 11.200708441096 489.24583359627 2471.5767355219
32172	359877 4769 2771 5087 50.25 91.25 165 -3.2952842712402 2.5 35.625318527222 252.82269031127
32171	364646 5171 2754 5087 50 91.25 166 5.6500000953674 15.02499961853 2181.7937364578 29821.532476815
32170	369817 5505 2737 5087 49.75 91.25 167 486.71420288086 785.82187652588 95522.59311676 56422413.073475
32169	375322 5502 2737 5087 49.75 91.25 167 237.38464355469 483.14999389648 72167.808288574 32144133.077836
32159	380824 5837 2622 5322 48 95.25 190 0.973 11.648172402475 562.64491236005 2948.9672685118
32158	386661 5398 2622 5322 48 95.25 190 -7.0929417610168 4 38.341367721558 482.03536989279
32157	392059 5721 2605 5322 47.75 95.25 191 0 15.64999961853 2212.6930657625 31413.159395651
32156	397780 6336 2588 5322 47.5 95.25 192 483.14999389648 483.14999389648 92764.798828125 44819311.987617
32155	404116 6303 2588 5322 47.5 95.25 192 184.17810058594 733.41819763184 86944.051498413 43528904.748782
vector 32246  IntersectionExampleScenario.node[25].veinsmobility  posx  ETV
vector 32247  IntersectionExampleScenario.node[25].veinsmobility  posy  ETV
vector 32248  IntersectionExampleScenario.node[25].veinsmobility  speed  ETV
vector 32249  IntersectionExampleScenario.node[25].veinsmobility  acceleration  ETV
vector 32250  IntersectionExampleScenario.node[25].veinsmobility  co2emission  ETV
32166	410820 6061 2722 5449 49.5 97.5 193 0.973 11.200708441096 560.23277201511 2731.7553419267
32165	416881 5794 2722 5449 49.5 97.5 193 -4.5 2.5 37.32285118103 413.0528551241
32164	422675 6275 2706 5449 49.25 97.5 194 0 15.196486473083 2293.8872400429 31718.224936811
32163	428950 6434 2689 5449 49 97.5 195 483.14999389648 483.14999389648 94214.248809814 45519613.737424
32162	435384 6393 2689 5449 49 97.5 195 163.88433837891 732.72956848145 86287.281356812 42846589.748325
32180	441777 5055 3348 5569 60.5 99.5 157 0.973 11.54047740176 464.515727801 2331.5343583805
32179	446832 4543 3348 5569 60.5 99.5 157 -3.6199722290039 2.5 36.98334312439 185.99759120812
32178	451375 4963 3335 5569 60.25 99.5 158 5.6500000953674 15.5 2220.1634054184 31769.100361968
32177	456338 5246 3322 5569 60 99.5 159 486.85000610352 486.85000610352 77409.150970459 37686645.622436
32176	461584 5239 3322 5569 60 99.5 159 235.88525390625 785.82187652588 82773.169471741 47318648.965285
vector 32253  IntersectionExampleScenario.node[26].veinsmobility  posx  ETV
vector 32254  IntersectionExampleScenario.node[26].veinsmobility  posy  ETV
vector 32260  IntersectionExampleScenario.node[27].veinsmobility  posx  ETV
vector 32261  IntersectionExampleScenario.node[27].veinsmobility  posy  ETV
vector 32255  IntersectionExampleScenario.node[26].veinsmobility  speed  ETV
32187	467209 4980 3569 5796 64.75 103.25 155 0.973 11.90022389248 500.52554855579 2781.3659964429
32186	472189 4484 3569 5796 64.75 103.25 155 -3.2846527099609 2.5 39.869146347046 241.68198894314
32185	476673 4863 3556 5796 64.5 103.25 156 5.6500000953674 16 2213.0224189758 32437.108865515
32184	481536 5177 3543 5796 64.25 103.25 157 483.14999389648 734.23080444336 84137.684555054 46037684.003542
32183	486713 5175 3543 5796 64.25 103.25 157 184.17810058594 486.85000610352 62504.023132324 26643239.540765
vector 32256  IntersectionExampleScenario.node[26].veinsmobility  acceleration  ETV
vector 32257  IntersectionExampleScenario.node[26].veinsmobility  co2emission  ETV
vector 32262  IntersectionExampleScenario.node[27].veinsmobility  speed  ETV
vector 32267  IntersectionExampleScenario.node[28].veinsmobility  posx  ETV
vector 32268  IntersectionExampleScenario.node[28].veinsmobility  posy  ETV
vector 32263  IntersectionExampleScenario.node[27].veinsmobility  acceleration  ETV
vector 32264  IntersectionExampleScenario.node[27].veinsmobility  co2emission  ETV
vector 32269  IntersectionExampleScenario.node[28].veinsmobility  speed  ETV
vector 32270  IntersectionExampleScenario.node[28].veinsmobility  acceleration  ETV
vector 32271  IntersectionExampleScenario.node[28].veinsmobility  co2emission  ETV
32194	492705 5392 3582 6044 65 106.25 166 0.973 11.450879080643 508.61277644271 2601.7919233942
32193	498097 4963 3582 6044 65 106.25 166 -4.5 2.5 38.680875778198 247.44727234397
32192	503060 5260 3569 6044 64.75 106.25 167 5.6500000953674 15.606944084167 2306.4312868118 32877.063860023
32191	508320 5559 3556 6044 64.5 106.25 168 483.14999389648 733.02084350586 89526.151092529 48682938.715781
32190	513879 5559 3556 6044 64.5 106.25 168 159.76721191406 486.86370849609 65136.237976074 27455919.82163
vector 32274  IntersectionExampleScenario.node[29].veinsmobility  posx  ETV
vector 32275  IntersectionExampleScenario.node[29].veinsmobility  posy  ETV
vector 32276  IntersectionExampleScenario.node[29].veinsmobility  speed  ETV
vector 32277  IntersectionExampleScenario.node[29].veinsmobility  acceleration  ETV
vector 32278  IntersectionExampleScenario.node[29].veinsmobility  co2emission  ETV
vector 32281  IntersectionExampleScenario.node[30].veinsmobility  posx  ETV
vector 32282  IntersectionExampleScenario.node[30].veinsmobility  posy  ETV
vector 32283  IntersectionExampleScenario.node[30].veinsmobility  speed  ETV
vector 32284  IntersectionExampleScenario.node[30].veinsmobility  acceleration  ETV
vector 32285  IntersectionExampleScenario.node[30].veinsmobility  co2emission  ETV
32208	520240 5212 3923 6460 71.25 111.25 161 0.973 11.200708441096 470.78717057546 2373.2455448461
32207	525452 4757 3923 6460 71.25 111.25 161 -2.8715667724609 2.5 35.455564498901 192.30159783658
32206	530209 5174 3906 6460 71 111.25 162 5.6500000953674 15.02499961853 2222.9162797928 30999.872410058
32205	535383 5402 3889 6460 70.75 111.25 163 234.98101806641 785.82187652588 84673.074028015 48310134.311601
32204	540785 5425 3889 6460 70.75 111.25 163 483.14999389648 483.14999389648 78753.449005127 38049728.406154
vector 32288  IntersectionExampleScenario.node[31].veinsmobility  posx  ETV
vector 32289  IntersectionExampleScenario.node[31].veinsmobility  posy  ETV
vector 32290  IntersectionExampleScenario.node[31].veinsmobility  speed  ETV
vector 32291  IntersectionExampleScenario.node[31].veinsmobility  acceleration  ETV
vector 32292  IntersectionExampleScenario.node[31].veinsmobility  co2emission  ETV
vector 32295  IntersectionExampleScenario.node[32].veinsmobility  posx  ETV
vector 32296  IntersectionExampleScenario.node[32].veinsmobility  posy  ETV
vector 32297  IntersectionExampleScenario.node[32].veinsmobility  speed  ETV
vector 32298  IntersectionExampleScenario.node[32].veinsmobility  acceleration  ETV
vector 32299  IntersectionExampleScenario.node[32].veinsmobility  co2emission  ETV
vector 32302  IntersectionExampleScenario.node[33].veinsmobility  posx  ETV
vector 32303  IntersectionExampleScenario.node[33].veinsmobility  posy  ETV
vector 32304  IntersectionExampleScenario.node[33].veinsmobility  speed  ETV
vector 32305  IntersectionExampleScenario.node[33].veinsmobility  acceleration  ETV
vector 32306  IntersectionExampleScenario.node[33].veinsmobility  co2emission  ETV
32222	547413 5183 4714 7460 84.5 124.25 160 0.973 11.990504229548 533.7896174727 3007.5645136612
32221	552596 4863 4714 7460 84.5 124.25 160 -3.343225479126 2.5 39.699392318726 343.78841628846
32220	557459 5266 4701 7460 84.25 124.25 161 4.4477143287659 16.125 2215.547832489 32123.894546625
32219	562725 5443 4688 7460 84 124.25 162 486.85000610352 486.85000610352 78869.70098877 38397714.407765
32218	568168 5429 4688 7460 84 124.25 162 236.48675537109 785.82187652588 84401.81162262 48059572.155736
32201	573597 6749 3859 7556 70.25 125.5 222 0.973 11.200708441096 576.73418694862 2708.3404201218
32200	580346 6047 3859 7556 70.25 125.5 222 -27.615619659424 4 35.795072555542 1136.8188661256
32199	586393 6421 3844 7556 70 125.5 223 0 15.02499961853 2219.3234014511 30653.963507552
32198	592814 7492 3829 7556 69.75 125.5 224 483.14999389648 732.46864318848 116925.50668335 62143680.660349
32197	600306 7486 3829 7556 69.75 125.5 224 173.34155273438 486.85000610352 92674.83303833 40577613.958989
32215	607792 5728 4444 7591 79.5 126 187 0.973 11.990504229548 553.28552743177 3028.7128573172
32214	613520 5998 4444 7591 79.5 126 187 -2.503532409668 2.5 39.529638290405 317.09288766332
32213	619518 6097 4428 7591 79.25 126 188 1.8057225942612 16.125 2209.6577447653 30176.487324464
32212	625615 6340 4411 7591 79 126 189 483.14999389648 483.14999389648 91315.348846436 44119010.237811
32211	631955 6289 4411 7591 79 126 189 184.17810058594 731.54350280762 84532.769088745 41868372.991644
32229	638244 5313 4809 7642 86.25 126.75 163 0.973 11.648172402475 494.5295828641 2564.18150118
32228	643557 4981 4809 7642 86.25 126.75 163 -4.5 2.5 38.850629806519 210.72011824968
32227	648538 5320 4794 7642 86 126.75 164 5.6500000953674 15.64999961853 2299.7424726486 33123.309597622
32226	653858 5554 4779 7642 85.75 126.75 165 486.85000610352 486.85000610352 80330.25100708 39108783.193094
32225	659412 5526 4779 7642 85.75 126.75 165 235.53076171875 805.05782318115 87478.244293213 50956250.208785
vector 32309  IntersectionExampleScenario.node[34].veinsmobility  posx  ETV
vector 32310  IntersectionExampleScenario.node[34].veinsmobility  posy  ETV
vector 32311  IntersectionExampleScenario.node[34].veinsmobility  speed  ETV
vector 32312  IntersectionExampleScenario.node[34].veinsmobility  acceleration  ETV
vector 32313  IntersectionExampleScenario.node[34].veinsmobility  co2emission  ETV
32243	665339 5038 5087 7886 91.25 130.5 158 0.93438186594183 12.26218747632 575.75127042086 3868.4666088079
32242	670377 4842 5087 7886 91.25 130.5 158 -3.6938056945801 2.5000038146973 41.057416915894 385.54765577914
32241	675219 5026 5072 7886 91 130.5 159 5.6500000953674 16.5 2189.737244606 31696.531800775
32240	680245 5397 5057 7886 90.75 130.5 160 235.56140136719 483.14999389648 69375.380004883 30991968.326434
32239	685642 5379 5057 7886 90.75 130.5 160 184.17810058594 483.14999389648 63531.512207031 26935123.584149
vector 32316  IntersectionExampleScenario.node[35].veinsmobility  posx  ETV
vector 32317  IntersectionExampleScenario.node[35].veinsmobility  posy  ETV
vector 32318  IntersectionExampleScenario.node[35].veinsmobility  speed  ETV
vector 32319  IntersectionExampleScenario.node[35].veinsmobility  acceleration  ETV
vector 32320  IntersectionExampleScenario.node[35].veinsmobility  co2emission  ETV
vector 32323  IntersectionExampleScenario.node[36].veinsmobility  posx  ETV
vector 32324  IntersectionExampleScenario.node[36].veinsmobility  posy  ETV
vector 32325  IntersectionExampleScenario.node[36].veinsmobility  speed  ETV
vector 32326  IntersectionExampleScenario.node[36].veinsmobility  acceleration  ETV
vector 32327  IntersectionExampleScenario.node[36].veinsmobility  co2emission  ETV
vector 32330  IntersectionExampleScenario.node[37].veinsmobility  posx  ETV
vector 32331  IntersectionExampleScenario.node[37].veinsmobility  posy  ETV
vector 32332  IntersectionExampleScenario.node[37].veinsmobility  speed  ETV
vector 32333  IntersectionExampleScenario.node[37].veinsmobility  acceleration  ETV
vector 32334  IntersectionExampleScenario.node[37].veinsmobility  co2emission  ETV
vector 32337  IntersectionExampleScenario.node[38].veinsmobility  posx  ETV
vector 32338  IntersectionExampleScenario.node[38].veinsmobility  posy  ETV
vector 32339  IntersectionExampleScenario.node[38].veinsmobility  speed  ETV
vector 32340  IntersectionExampleScenario.node[38].veinsmobility  acceleration  ETV
vector 32341  IntersectionExampleScenario.node[38].veinsmobility  co2emission  ETV
32236	692625 6118 5017 8558 90 139.5 199 0.973 12.353032912318 610.191460986 3492.2839192726
32235	698743 5663 5017 8558 90 139.5 199 -9.5903043746948 4 41.736440658569 569.9681617096
32234	704406 5870 5002 8558 89.75 139.5 200 0 16.625 2198.5171966553 32553.723577075
32233	710276 6763 4987 8558 89.5 139.5 201 184.17810058594 486.85000610352 83406.050598145 36534395.133665
32232	717039 6788 4987 8558 89.5 139.5 201 237.53265380859 486.85000610352 89921.140258789 41231625.268889
32250	723827 5665 5404 8685 96.75 141.5 180 0.973 11.648172402475 532.25788206052 2858.5566788331
32249	729492 5764 5404 8685 96.75 141.5 180 -2.3770217895508 2.5000009536743 38.341367721558 291.16883525286
32248	735256 5944 5389 8685 96.5 141.5 181 2.9143214225769 15.64999961853 2216.571092844 30106.734505635
32247	741200 6136 5374 8685 96.25 141.5 182 184.17810058594 733.13565063477 81491.206054688 40632283.194465
32246	747336 6174 5374 8685 96.25 141.5 182 486.85000610352 486.85000610352 88606.70111084 43138172.976625
32264	753510 5230 5834 8856 103.75 144.5 164 0.973 11.90022389248 574.41569115216 3674.9681697058
32263	758740 5028 5834 8856 103.75 144.5 164 -3.2630043029785 2.5 39.699392318726 364.19249998892
32262	763768 5306 5815 8856 103.5 144.5 165 5.6500000953674 16 2203.3692779541 30643.754105903
32261	769074 5615 5796 8856 103.25 144.5 166 184.17810058594 486.87744140625 65967.943389893 27975740.114981
32260	774689 5641 5796 8856 103.25 144.5 166 237.62902832031 486.85000610352 72637.700012207 32739212.66784
32285	780330 5255 6384 9142 110.25 150 160 0.973 11.648172402475 503.90677212828 2733.2900424409
32284	785585 4810 6384 9142 110.25 150 160 -3.2702255249023 2.5 38.171613693237 275.06492432623
32283	790395 5150 6363 9142 110 150 161 5.6500000953674 15.64999961853 2184.0002031326 30964.93814542
32282	795545 5495 6342 9142 109.75 150 162 486.82656860352 785.82187652588 92711.844261169 54804508.054652
32281	801040 5501 6342 9142 109.75 150 162 236.77911376953 483.14999389648 70051.994934082 31219876.334774
vector 32344  IntersectionExampleScenario.node[39].veinsmobility  posx  ETV
vector 32345  IntersectionExampleScenario.node[39].veinsmobility  posy  ETV
vector 32346  IntersectionExampleScenario.node[39].veinsmobility  speed  ETV
vector 32347  IntersectionExampleScenario.node[39].veinsmobility  acceleration  ETV
vector 32348  IntersectionExampleScenario.node[39].veinsmobility  co2emission  ETV
32292	806942 5293 6634 9348 113.75 153.5 160 0.973 11.450879080643 483.18542032161 2511.7475286608
32291	812235 4923 6634 9348 113.75 153.5 160 -3.4921379089355 2.5 36.813589096069 228.08473260454
32290	817158 5185 6615 9348 113.5 153.5 161 5.6500000953674 15.375 2210.3703899384 31160.857443586
32289	822343 5483 6596 9348 113.25 153.5 162 184.17810058594 487.07043457031 64511.870544434 27489002.677592
32288	827826 5503 6596 9348 113.25 153.5 162 235.95770263672 486.85000610352 70204.156433105 31410217.931741
32257	833329 6315 5815 9420 103.5 154.75 206 0.93438186594183 12.26218747632 599.44580490871 3349.2148428844
32256	839644 6080 5815 9420 103.5 154.75 206 -7.4302177429199 4 41.057416915894 519.44849520919
32255	845724 6074 5796 9420 103.25 154.75 207 0 16.5 2183.4567406178 31930.670415659
32254	851798 6986 5779 9420 103 154.75 208 235.44110107422 483.14999389648 92556.275695801 42188738.774264
32253	858784 7049 5779 9420 103 154.75 208 184.17810058594 483.36395263672 86426.534729004 37828994.616937
32278	865833 6165 6174 9485 107.75 156 194 0.973 11.200708441096 543.87612624929 2642.845444924
32277	871998 5550 6174 9485 107.75 156 194 -8.6476802825928 4 35.795072555542 472.97505521195
32276	877548 6013 6151 9485 107.5 156 195 0 15.02499961853 2185.8129124641 29680.115937667
32275	883561 6604 6128 9485 107.25 156 196 486.85000610352 735.56745910645 104112.0791626 56355335.24226
32274	890165 6657 6128 9485 107.25 156 196 486.63604736328 785.82187652588 109980.62528229 63627483.808082
32271	896822 6762 5876 9498 104.25 156.25 209 0.973 11.54047740176 588.65401169245 2905.8475696478
32270	903584 6397 5876 9498 104.25 156.25 209 -4.5 2.5 38.511121749878 443.3354492999
32269	909981 6791 5855 9498 104 156.25 210 0 15.5 2305.8499534335 32414.292612405
32268	916772 7174 5834 9498 103.75 156.25 211 483.14999389648 483.14999389648 101944.64871216 49254556.403058
32267	923946 7141 5834 9498 103.75 156.25 211 161.1796875 732.83020019531 93382.975341797 46032085.492677
vector 32351  IntersectionExampleScenario.node[40].veinsmobility  posx  ETV
vector 32352  IntersectionExampleScenario.node[40].veinsmobility  posy  ETV
vector 32353  IntersectionExampleScenario.node[40].veinsmobility  speed  ETV
vector 32354  IntersectionExampleScenario.node[40].veinsmobility  acceleration  ETV
vector 32355  IntersectionExampleScenario.node[40].veinsmobility  co2emission  ETV
32306	931488 5108 7103 9655 120 159.25 158 0.973 12.099024792222 576.30567750679 3612.3611740519
32305	936596 5028 7103 9655 120 159.25 158 -3.245174407959 2.5 41.396924972534 341.72883204022
32304	941624 5122 7081 9655 119.75 159.25 159 5.6500000953674 16.27499961853 2215.1410894394 32032.873664325
32303	946746 5436 7060 9655 119.5 159.25 160 483.14999389648 735.11999511719 85498.187713623 46637139.143382
32302	952182 5409 7060 9655 119.5 159.25 160 184.17810058594 486.87811279297 63744.190948486 27139075.113719
vector 32358  IntersectionExampleScenario.node[41].veinsmobility  posx  ETV
vector 32359  IntersectionExampleScenario.node[41].veinsmobility  posy  ETV
vector 32365  IntersectionExampleScenario.node[42].veinsmobility  posx  ETV
vector 32366  IntersectionExampleScenario.node[42].veinsmobility  posy  ETV
vector 32360  IntersectionExampleScenario.node[41].veinsmobility  speed  ETV
vector 32361  IntersectionExampleScenario.node[41].veinsmobility  acceleration  ETV
vector 32362  IntersectionExampleScenario.node[41].veinsmobility  co2emission  ETV
vector 32367  IntersectionExampleScenario.node[42].veinsmobility  speed  ETV
vector 32368  IntersectionExampleScenario.node[42].veinsmobility  acceleration  ETV
vector 32369  IntersectionExampleScenario.node[42].veinsmobility  co2emission  ETV
vector 32372  IntersectionExampleScenario.node[43].veinsmobility  posx  ETV
vector 32373  IntersectionExampleScenario.node[43].veinsmobility  posy  ETV
vector 32374  IntersectionExampleScenario.node[43].veinsmobility  speed  ETV
vector 32375  IntersectionExampleScenario.node[43].veinsmobility  acceleration  ETV
vector 32376  IntersectionExampleScenario.node[43].veinsmobility  co2emission  ETV
vector 32379  IntersectionExampleScenario.node[44].veinsmobility  posx  ETV
vector 32380  IntersectionExampleScenario.node[44].veinsmobility  posy  ETV
vector 32381  IntersectionExampleScenario.node[44].veinsmobility  speed  ETV
vector 32382  IntersectionExampleScenario.node[44].veinsmobility  acceleration  ETV
vector 32383  IntersectionExampleScenario.node[44].veinsmobility  co2emission  ETV
32299	959195 6860 6813 10385 116.25 171 220 0.973 11.200708441096 575.82864873952 2713.4038777035
32298	966055 6488 6813 10385 116.25 171 220 -9.2599487304688 4 35.795072555542 484.08359486176
32297	972543 6652 6794 10385 116 171 221 0 15.02499961853 2271.2904510498 31049.557964596
32296	979195 7545 6775 10385 115.75 171 222 168.58435058594 486.85000610352 91306.929016113 39868571.515594
32295	986740 7561 6775 10385 115.75 171 222 235.04376220703 486.85000610352 99203.251403809 45466065.821607
32327	994301 5233 8196 10545 134.75 173.75 157 0.973 11.648172402475 489.93848290835 2630.9394071346
32326	999534 4800 8196 10545 134.75 173.75 157 -3.2447280883789 2.5 38.341367721558 231.96890981277
32325	1004334 5124 8177 10545 134.5 173.75 158 5.6500000953674 15.64999961853 2204.4889039993 31683.154117764
32324	1009458 5433 8158 10545 134.25 173.75 159 483.14999389648 785.82187652588 90941.229881287 53788234.538224
32323	1014891 5423 8158 10545 134.25 173.75 159 483.14999389648 732.29183959961 85173.61227417 46573379.161166
vector 32386  IntersectionExampleScenario.node[45].veinsmobility  posx  ETV
vector 32387  IntersectionExampleScenario.node[45].veinsmobility  posy  ETV
vector 32388  IntersectionExampleScenario.node[45].veinsmobility  speed  ETV
vector 32393  IntersectionExampleScenario.node[46].veinsmobility  posx  ETV
vector 32394  IntersectionExampleScenario.node[46].veinsmobility  posy  ETV
vector 32389  IntersectionExampleScenario.node[45].veinsmobility  acceleration  ETV
vector 32390  IntersectionExampleScenario.node[45].veinsmobility  co2emission  ETV
vector 32395  IntersectionExampleScenario.node[46].veinsmobility  speed  ETV
vector 32396  IntersectionExampleScenario.node[46].veinsmobility  acceleration  ETV
vector 32397  IntersectionExampleScenario.node[46].veinsmobility  co2emission  ETV
vector 32400  IntersectionExampleScenario.node[47].veinsmobility  posx  ETV
vector 32401  IntersectionExampleScenario.node[47].veinsmobility  posy  ETV
vector 32407  IntersectionExampleScenario.node[48].veinsmobility  posx  ETV
vector 32408  IntersectionExampleScenario.node[48].veinsmobility  posy  ETV
vector 32402  IntersectionExampleScenario.node[47].veinsmobility  speed  ETV
vector 32403  IntersectionExampleScenario.node[47].veinsmobility  acceleration  ETV
vector 32404  IntersectionExampleScenario.node[47].veinsmobility  co2emission  ETV
vector 32409  IntersectionExampleScenario.node[48].veinsmobility  speed  ETV
vector 32410  IntersectionExampleScenario.node[48].veinsmobility  acceleration  ETV
vector 32411  IntersectionExampleScenario.node[48].veinsmobility  co2emission  ETV
vector 32414  IntersectionExampleScenario.node[49].veinsmobility  posx  ETV
vector 32415  IntersectionExampleScenario.node[49].veinsmobility  posy  ETV
vector 32416  IntersectionExampleScenario.node[49].veinsmobility  speed  ETV
vector 32421  IntersectionExampleScenario.node[50].veinsmobility  posx  ETV
vector 32422  IntersectionExampleScenario.node[50].veinsmobility  posy  ETV
vector 32417  IntersectionExampleScenario.node[49].veinsmobility  acceleration  ETV
vector 32418  IntersectionExampleScenario.node[49].veinsmobility  co2emission  ETV
32334	1022473 5668 8295 10861 136 178.25 170 0.973 11.200708441096 502.42354286773 2503.6113814656
32333	1028141 5116 8295 10861 136 178.25 170 -3.4488716125488 2.5 35.795072555542 261.97357411328
32332	1033257 5559 8274 10861 135.75 178.25 171 5.6500000953674 15.02499961853 2265.8793478012 31171.864957633
32331	1038816 5895 8253 10861 135.5 178.25 172 486.83233642578 807.09531402588 99867.752243042 60105307.040206
32330	1044711 5896 8253 10861 135.5 178.25 172 237.40197753906 483.14999389648 74610.929199219 33333464.989866
vector 32423  IntersectionExampleScenario.node[50].veinsmobility  speed  ETV
vector 32424  IntersectionExampleScenario.node[50].veinsmobility  acceleration  ETV
vector 32425  IntersectionExampleScenario.node[50].veinsmobility  co2emission  ETV
vector 32428  IntersectionExampleScenario.node[51].veinsmobility  posx  ETV
vector 32429  IntersectionExampleScenario.node[51].veinsmobility  posy  ETV
vector 32430  IntersectionExampleScenario.node[51].veinsmobility  speed  ETV
vector 32431  IntersectionExampleScenario.node[51].veinsmobility  acceleration  ETV
vector 32432  IntersectionExampleScenario.node[51].veinsmobility  co2emission  ETV
32313	1051255 6703 7886 11488 130.5 184.75 218 0.973 12.26218747632 613.75440813207 3352.5404264709
32312	1057958 6194 7886 11488 130.5 184.75 218 -27.831275939941 4 41.227170944214 1159.5068468027
32311	1064152 6336 7869 11488 130.25 184.75 219 0 16.5 2187.6678934097 32277.086977856
32310	1070488 7479 7852 11488 130 184.75 220 486.85000610352 735.02058410645 115056.2638855 61195052.477664
32309	1077967 7551 7852 11488 130 184.75 220 486.63604736328 785.82187652588 121279.01819611 68812704.986303
vector 32435  IntersectionExampleScenario.node[52].veinsmobility  posx  ETV
vector 32436  IntersectionExampleScenario.node[52].veinsmobility  posy  ETV
vector 32442  IntersectionExampleScenario.node[53].veinsmobility  posx  ETV
vector 32443  IntersectionExampleScenario.node[53].veinsmobility  posy  ETV
vector 32437  IntersectionExampleScenario.node[52].veinsmobility  speed  ETV
vector 32444  IntersectionExampleScenario.node[53].veinsmobility  speed  ETV
vector 32438  IntersectionExampleScenario.node[52].veinsmobility  acceleration  ETV
vector 32439  IntersectionExampleScenario.node[52].veinsmobility  co2emission  ETV
vector 32445  IntersectionExampleScenario.node[53].veinsmobility  acceleration  ETV
vector 32446  IntersectionExampleScenario.node[53].veinsmobility  co2emission  ETV
vector 32449  IntersectionExampleScenario.node[54].veinsmobility  posx  ETV
vector 32450  IntersectionExampleScenario.node[54].veinsmobility  posy  ETV
vector 32451  IntersectionExampleScenario.node[54].veinsmobility  speed  ETV
vector 32452  IntersectionExampleScenario.node[54].veinsmobility  acceleration  ETV
vector 32453  IntersectionExampleScenario.node[54].veinsmobility  co2emission  ETV
32341	1086721 6312 8558 11775 139.5 187.75 194 0.973 11.200708441096 545.79537753158 2659.7561843991
32340	1093033 6185 8558 11775 139.5 187.75 194 -8.6544361114502 4 35.795072555542 478.31415845081
32339	1099218 6463 8541 11775 139.25 187.75 195 0 15.02499961853 2196.9216155112 29845.408560908
32338	1105681 6748 8524 11775 139 187.75 196 483.14999389648 733.67347717285 103504.45001221 55732008.330374
32337	1112429 6734 8524 11775 139 187.75 196 184.17810058594 487.03039550781 80410.470397949 34944273.484231
32320	1119163 7597 7975 11982 131.75 189.75 233 0.973 11.200708441096 614.036895914 2867.9994788744
32319	1126760 7330 7975 11982 131.75 189.75 233 -20.806661605835 4 37.15309715271 932.54771516316
32318	1134090 7675 7956 11982 131.5 189.75 234 0 15.141219139099 2258.4115148094 30803.122103551
32317	1141765 8075 7937 11982 131.25 189.75 235 486.85000610352 731.79177856445 122655.4657135 65072538.440412
32316	1149840 8073 7937 11982 131.25 189.75 235 486.76498413086 807.09531402588 131563.90270996 76020892.567924
vector 32456  IntersectionExampleScenario.node[55].veinsmobility  posx  ETV
vector 32457  IntersectionExampleScenario.node[55].veinsmobility  posy  ETV
vector 32458  IntersectionExampleScenario.node[55].veinsmobility  speed  ETV
vector 32459  IntersectionExampleScenario.node[55].veinsmobility  acceleration  ETV
vector 32460  IntersectionExampleScenario.node[55].veinsmobility  co2emission  ETV
vector 32463  IntersectionExampleScenario.node[56].veinsmobility  posx  ETV
vector 32464  IntersectionExampleScenario.node[56].veinsmobility  posy  ETV
vector 32465  IntersectionExampleScenario.node[56].veinsmobility  speed  ETV
vector 32466  IntersectionExampleScenario.node[56].veinsmobility  acceleration  ETV
vector 32467  IntersectionExampleScenario.node[56].veinsmobility  co2emission  ETV
vector 32470  IntersectionExampleScenario.node[57].veinsmobility  posx  ETV
vector 32471  IntersectionExampleScenario.node[57].veinsmobility  posy  ETV
vector 32477  IntersectionExampleScenario.node[58].veinsmobility  posx  ETV
vector 32478  IntersectionExampleScenario.node[58].veinsmobility  posy  ETV
vector 32472  IntersectionExampleScenario.node[57].veinsmobility  speed  ETV
vector 32473  IntersectionExampleScenario.node[57].veinsmobility  acceleration  ETV
vector 32474  IntersectionExampleScenario.node[57].veinsmobility  co2emission  ETV
vector 32479  IntersectionExampleScenario.node[58].veinsmobility  speed  ETV
vector 32480  IntersectionExampleScenario.node[58].veinsmobility  acceleration  ETV
vector 32481  IntersectionExampleScenario.node[58].veinsmobility  co2emission  ETV
vector 32484  IntersectionExampleScenario.node[59].veinsmobility  posx  ETV
vector 32485  IntersectionExampleScenario.node[59].veinsmobility  posy  ETV
vector 32486  IntersectionExampleScenario.node[59].veinsmobility  speed  ETV
vector 32487  IntersectionExampleScenario.node[59].veinsmobility  acceleration  ETV
vector 32488  IntersectionExampleScenario.node[59].veinsmobility  co2emission  ETV
32355	1159918 5251 9590 12826 158 197 157 0.973 11.810082123732 519.36634167902 3011.8810837475
32354	1165169 5104 9590 12826 158 197 157 -3.5480842590332 2.5 39.699392318726 297.73337580928
32353	1170273 5186 9577 12826 157.75 197 158 5.6500000953674 16.043870925903 2186.5533542633 31710.93136504
32352	1175459 5521 9563 12826 157.5 197 159 486.85000610352 733.75611877441 85461.595901489 46848343.052205
32351	1180980 5530 9563 12826 157.5 197 159 486.85000610352 785.82187652588 91045.653694153 53859837.89372
32348	1186510 6165 9198 13148 151 199.5 195 0.95785320846514 12.353032912318 597.45952675996 3389.9992389163
32347	1192675 5928 9198 13148 151 199.5 195 -7.8437223434448 4 42.075933456421 509.50076747767
32346	1198603 6004 9183 13148 150.75 199.5 196 0 16.645282745361 2203.7023696899 32682.444890793
32345	1204607 6826 9168 13148 150.5 199.5 197 483.14999389648 785.82187652588 109546.94353485 62825236.408165
32344	1211433 6832 9168 13148 150.5 199.5 197 483.14999389648 733.4281463623 103138.63684082 55001883.796299
vector 32491  IntersectionExampleScenario.node[60].veinsmobility  posx  ETV
vector 32492  IntersectionExampleScenario.node[60].veinsmobility  posy  ETV
vector 32493  IntersectionExampleScenario.node[60].veinsmobility  speed  ETV
vector 32498  IntersectionExampleScenario.node[61].veinsmobility  posx  ETV
vector 32499  IntersectionExampleScenario.node[61].veinsmobility  posy  ETV
vector 32494  IntersectionExampleScenario.node[60].veinsmobility  acceleration  ETV
vector 32495  IntersectionExampleScenario.node[60].veinsmobility  co2emission  ETV
vector 32500  IntersectionExampleScenario.node[61].veinsmobility  speed  ETV
vector 32501  IntersectionExampleScenario.node[61].veinsmobility  acceleration  ETV
vector 32502  IntersectionExampleScenario.node[61].veinsmobility  co2emission  ETV
32362	1219067 5259 9819 13335 162.5 201 155 0.973 11.90022389248 508.55844564855 2872.8316765536
32361	1224326 4854 9819 13335 162.5 201 155 -3.3054618835449 2.5 39.699392318726 259.10859094188
32360	1229180 5153 9804 13335 162.25 201 156 5.6500000953674 16 2206.4289054871 32215.840533888
32359	1234333 5450 9791 13335 162 201 157 184.17810058594 486.87603759766 62463.548614502 26608240.724782
32358	1239783 5473 9791 13335 162 201 157 237.32055664062 486.85000610352 68235.02432251 30590578.689367
vector 32505  IntersectionExampleScenario.node[62].veinsmobility  posx  ETV
vector 32506  IntersectionExampleScenario.node[62].veinsmobility  posy  ETV
vector 32507  IntersectionExampleScenario.node[62].veinsmobility  speed  ETV
vector 32508  IntersectionExampleScenario.node[62].veinsmobility  acceleration  ETV
vector 32509  IntersectionExampleScenario.node[62].veinsmobility  co2emission  ETV
32376	1245657 5352 9988 13815 165.25 205 160 0.973 11.810082123732 557.68555895779 3495.6875626928
32375	1251009 5127 9988 13815 165.25 205 160 -3.3717136383057 2.5 39.529638290405 353.08570962662
32374	1256136 5299 9971 13815 165 205 161 5.6500000953674 15.875 2188.997235775 31197.312799945
32373	1261435 5660 9954 13815 164.75 205 162 486.85000610352 785.82187652588 92723.968269348 54804493.360985
32372	1267095 5661 9954 13815 164.75 205 162 235.63330078125 483.14999389648 70150.121307373 31304214.519012
32383	1272756 5207 10196 13989 168.25 206.5 154 0.973 12.26218747632 525.57751217248 3071.5084985384
32382	1277963 5066 10196 13989 168.25 206.5 154 -3.8369216918945 2.5 41.396924972534 304.61736061317
32381	1283029 5073 10177 13989 168 206.5 155 5.6500000953674 16.5 2179.023270607 32249.348409128
32380	1288102 5434 10158 13989 167.75 206.5 156 184.17810058594 483.14999389648 61921.061645508 26282200.612523
32379	1293536 5452 10158 13989 167.75 206.5 156 486.85000610352 731.9905090332 83694.20451355 45777274.470864
vector 32512  IntersectionExampleScenario.node[63].veinsmobility  posx  ETV
vector 32513  IntersectionExampleScenario.node[63].veinsmobility  posy  ETV
vector 32514  IntersectionExampleScenario.node[63].veinsmobility  speed  ETV
vector 32515  IntersectionExampleScenario.node[63].veinsmobility  acceleration  ETV
vector 32516  IntersectionExampleScenario.node[63].veinsmobility  co2emission  ETV
vector 32519  IntersectionExampleScenario.node[64].veinsmobility  posx  ETV
vector 32520  IntersectionExampleScenario.node[64].veinsmobility  posy  ETV
vector 32521  IntersectionExampleScenario.node[64].veinsmobility  speed  ETV
vector 32522  IntersectionExampleScenario.node[64].veinsmobility  acceleration  ETV
vector 32523  IntersectionExampleScenario.node[64].veinsmobility  co2emission  ETV
vector 32526  IntersectionExampleScenario.node[65].veinsmobility  posx  ETV
vector 32527  IntersectionExampleScenario.node[65].veinsmobility  posy  ETV
vector 32528  IntersectionExampleScenario.node[65].veinsmobility  speed  ETV
vector 32529  IntersectionExampleScenario.node[65].veinsmobility  acceleration  ETV
vector 32530  IntersectionExampleScenario.node[65].veinsmobility  co2emission  ETV
vector 32533  IntersectionExampleScenario.node[66].veinsmobility  posx  ETV
vector 32534  IntersectionExampleScenario.node[66].veinsmobility  posy  ETV
vector 32535  IntersectionExampleScenario.node[66].veinsmobility  speed  ETV
vector 32536  IntersectionExampleScenario.node[66].veinsmobility  acceleration  ETV
vector 32537  IntersectionExampleScenario.node[66].veinsmobility  co2emission  ETV
32397	1300592 5382 10674 15082 176 215.25 158 0.973 11.648172402475 508.05819860721 2768.1823026985
32396	1305974 4790 10674 15082 176 215.25 158 -4.4689598083496 2.5 38.850629806519 271.56013035661
32395	1310764 5280 10657 15082 175.75 215.25 159 5.6500000953674 15.64999961853 2208.5726137161 31696.518686998
32394	1316044 5592 10640 15082 175.5 215.25 160 236.69500732422 486.85000610352 69542.453552246 31181508.541646
32393	1321636 5591 10640 15082 175.5 215.25 160 483.11987304688 785.82187652588 91421.786750793 54010532.127756
vector 32540  IntersectionExampleScenario.node[67].veinsmobility  posx  ETV
vector 32541  IntersectionExampleScenario.node[67].veinsmobility  posy  ETV
32404	1327381 5354 10731 15139 176.75 215.75 157 0.973 11.990504229548 524.17370095282 2938.7793931117
32403	1332735 4933 10731 15139 176.75 215.75 157 -4.5 2.5 41.227170944214 264.99897209893
32402	1337668 5285 10710 15139 176.5 215.75 158 5.6500000953674 16.125 2307.1252374649 34548.855295333
32401	1342953 5567 10691 15139 176.25 215.75 159 486.85000610352 486.85000610352 77409.150970459 37686645.622436
32400	1348520 5543 10691 15139 176.25 215.75 159 237.93176269531 808.82032012939 84944.61882782 49875181.636842
vector 32542  IntersectionExampleScenario.node[67].veinsmobility  speed  ETV
32369	1354141 6857 9834 15168 162.75 216 214 0.973 11.00486315618 552.52066793162 2555.8613321273
32368	1360998 6446 9834 15168 162.75 216 214 -7.1895370483398 4 34.267293930054 447.55225731677
32367	1367444 6659 9819 15168 162.5 216 215 0 14.75 2186.445864439 29178.854518523
32366	1374103 7531 9804 15168 162.25 216 216 483.14999389648 734.54695129395 113423.93557739 60702245.347278
32365	1381634 7522 9804 15168 162.25 216 216 184.17810058594 486.85000610352 89594.580871582 39200228.275782
vector 32543  IntersectionExampleScenario.node[67].veinsmobility  acceleration  ETV
vector 32544  IntersectionExampleScenario.node[67].veinsmobility  co2emission  ETV
32425	1389325 5536 10911 15525 178.75 219.25 163 0.973 11.648172402475 507.97005548814 2692.0022362988
32424	1394861 5155 10911 15525 178.75 219.25 163 -3.3523216247559 2.5 39.699392318726 228.19635192541
32423	1400016 5455 10886 15525 178.5 219.25 164 5.6500000953674 15.64999961853 2326.6470594406 34029.692736038
32422	1405471 5770 10861 15525 178.25 219.25 165 236.93127441406 486.85000610352 72095.326385498 32460033.585952
32421	1411241 5767 10861 15525 178.25 219.25 165 483.14999389648 815.42110443115 96322.974403381 58459588.615764
32418	1417008 5573 10861 15575 178.25 219.75 167 0.973 11.200708441096 521.83729787243 2927.8387625086
32417	1422581 5325 10861 15575 178.25 219.75 167 -2.9269752502441 2.5 35.795072555542 275.75035987184
32416	1427906 5602 10838 15575 178 219.75 168 5.6500000953674 15.02499961853 2214.4919319153 30009.734035852
32415	1433508 5905 10815 15575 177.75 219.75 169 483.14999389648 735.2183380127 90553.04637146 49547017.107577
32414	1439413 5892 10815 15575 177.75 219.75 169 184.17810058594 486.85000610352 67479.095916748 28765873.08296
32446	1445305 5570 11646 16233 186.5 227.25 164 0.973 11.200708441096 489.18991891622 2474.8953455387
32445	1450875 5008 11646 16233 186.5 227.25 164 -3.4310665130615 2.5 35.795072555542 256.38855581272
32444	1455883 5483 11621 16233 186.25 227.25 165 5.6500000953674 15.02499961853 2178.6426405907 29893.988256713
32443	1461366 5805 11596 16233 186 227.25 166 238.04205322266 483.14999389648 71761.217559814 31969554.090544
32442	1467171 5790 11596 16233 186 227.25 166 184.17810058594 483.14999389648 66009.311065674 28025662.921782
vector 32547  IntersectionExampleScenario.node[68].veinsmobility  posx  ETV
vector 32548  IntersectionExampleScenario.node[68].veinsmobility  posy  ETV
vector 32549  IntersectionExampleScenario.node[68].veinsmobility  speed  ETV
vector 32550  IntersectionExampleScenario.node[68].veinsmobility  acceleration  ETV
vector 32551  IntersectionExampleScenario.node[68].veinsmobility  co2emission  ETV
32439	1473362 5868 11646 16437 186.5 229.75 174 0.973 10.756497587458 485.84459031645 2201.3923057801
32438	1479230 5697 11646 16437 186.5 229.75 174 -3.5146522521973 2.5 33.758031845093 227.07801061366
32437	1484927 6070 11621 16437 186.25 229.75 175 5.6500000953674 14.39999961853 2214.7334098816 29186.470010315
32436	1490997 6149 11596 16437 186 229.75 176 234.78955078125 486.85000610352 76315.758392334 34145921.639371
32435	1497146 6151 11596 16437 186 229.75 176 483.14999389648 785.82187652588 99892.308547974 58601748.657225
32411	1503297 6839 10752 16475 177 230.25 214 0.973 11.648172402475 590.10828421427 2980.9480481312
32410	1510136 6277 10752 16475 177 230.25 214 -23.611289978027 4 38.511121749878 976.89228551649
32409	1516413 6502 10731 16475 176.75 230.25 215 0 15.64999961853 2202.6186475754 31569.662310056
32408	1522915 7552 10710 16475 176.5 230.25 216 483.14999389648 785.82187652588 119324.62706757 67917984.181451
32407	1530467 7551 10710 16475 176.5 230.25 216 483.14999389648 733.24354553223 112749.35388184 59925763.338346
32390	1538018 7064 10640 16493 175.5 230.5 221 0.973 11.450879080643 591.65091080777 2872.2152968191
32389	1545082 6032 10640 16493 175.5 230.5 221 -42.981872558594 4 37.492597579956 2163.6634533556
32388	1551114 6684 10625 16493 175.25 230.5 222 0 15.375 2214.3831100464 31609.493344463
32387	1557798 7775 10610 16493 175 230.5 223 184.17810058594 734.38114929199 101668.42221069 50584925.44755
32386	1565573 7804 10610 16493 175 230.5 223 486.85000610352 486.85000610352 108567.55136108 52856113.042787
32432	1573377 6221 11391 16595 183.75 232 194 0.973 11.648172402475 560.2080625441 2930.472759348
32431	1579598 6456 11391 16595 183.75 232 194 -2.4065608978271 2.5 39.529638290405 317.14319200134
32430	1586054 6592 11366 16595 183.5 232 195 1.5316151380539 15.64999961853 2187.7428684235 29258.817168127
32429	1592646 6832 11341 16595 183.25 232 196 184.17810058594 483.17846679688 79710.890380859 34232642.609088
32428	1599478 6837 11341 16595 183.25 232 196 486.85000610352 733.71415710449 103503.86907959 55649513.351935
32453	1606315 5953 11775 16681 187.75 233.5 184 0.973 12.099024792222 554.10864970859 2953.5888441374
32452	1612268 6227 11775 16681 187.75 233.5 184 -2.1220741271973 2.5 40.038900375366 289.89766104663
32451	1618495 6442 11748 16681 187.5 233.5 185 3.413810968399 16.27499961853 2213.5413677692 29846.647029711
32450	1624937 6481 11721 16681 187.25 233.5 186 483.14999389648 785.82187652588 104905.58490753 60997000.547647
32449	1631418 6496 11721 16681 187.25 233.5 186 483.14999389648 734.64038085938 98221.022064209 52881809.517422
32460	1637914 6037 12061 16776 190.5 235.75 182 0.973 11.36141391502 567.27342606373 3074.5645072721
32459	1643951 5777 12061 16776 190.5 235.75 182 -4.4574890136719 2.5 37.492597579956 406.47966996932
32458	1649728 6094 12034 16776 190.25 235.75 183 4.8361773490906 15.25 2243.1221446991 29771.528808498
32457	1655822 6433 12007 16776 190 235.75 184 486.85000610352 800.04531860352 105855.90614319 62894268.938077
32456	1662255 6431 12007 16776 190 235.75 184 235.83508300781 483.14999389648 80540.897583008 36249729.633581
32488	1668686 5339 12694 16785 196 236 161 0.973 11.54047740176 526.78824810534 2852.0117423586
32487	1674025 5041 12694 16785 196 236 161 -5.8168792724609 2.5 40.038900375366 306.46192162142
32486	1679066 5426 12661 16785 195.75 236 162 5.6500000953674 15.705196380615 2121.0077166557 29247.789215906
32485	1684492 5693 12628 16785 195.5 236 163 237.58123779297 762.29962158203 83964.15120697 46850741.802209
32484	1690185 5704 12628 16785 195.5 236 163 483.14999389648 483.14999389648 78753.449005127 38049728.406154
32474	1695889 5965 12442 16872 194 238.5 179 0.973 10.420382492614 505.83042440323 2362.1087949253
32473	1701854 5950 12442 16872 194 238.5 179 -4.0651969909668 2.5 37.15309715271 203.2511209251
32472	1707804 6102 12411 16872 193.75 238.5 180 5.6500000953674 15.084467887878 2283.2815246582 30056.46872092
32471	1713906 6316 12382 16872 193.5 238.5 181 236.53369140625 802.57735443115 97428.723327637 57343667.651315
32470	1720222 6335 12382 16872 193.5 238.5 181 483.14999389648 483.14999389648 87450.148895264 42251538.904993
vector 32554  IntersectionExampleScenario.node[69].veinsmobility  posx  ETV
vector 32555  IntersectionExampleScenario.node[69].veinsmobility  posy  ETV
vector 32556  IntersectionExampleScenario.node[69].veinsmobility  speed  ETV
vector 32561  IntersectionExampleScenario.node[70].veinsmobility  posx  ETV
vector 32562  IntersectionExampleScenario.node[70].veinsmobility  posy  ETV
vector 32557  IntersectionExampleScenario.node[69].veinsmobility  acceleration  ETV
vector 32558  IntersectionExampleScenario.node[69].veinsmobility  co2emission  ETV
vector 32568  IntersectionExampleScenario.node[71].veinsmobility  posx  ETV
vector 32569  IntersectionExampleScenario.node[71].veinsmobility  posy  ETV
vector 32563  IntersectionExampleScenario.node[70].veinsmobility  speed  ETV
vector 32564  IntersectionExampleScenario.node[70].veinsmobility  acceleration  ETV
vector 32565  IntersectionExampleScenario.node[70].veinsmobility  co2emission  ETV
vector 32570  IntersectionExampleScenario.node[71].veinsmobility  speed  ETV
vector 32571  IntersectionExampleScenario.node[71].veinsmobility  acceleration  ETV
vector 32572  IntersectionExampleScenario.node[71].veinsmobility  co2emission  ETV
vector 32575  IntersectionExampleScenario.node[72].veinsmobility  posx  ETV
vector 32576  IntersectionExampleScenario.node[72].veinsmobility  posy  ETV
vector 32577  IntersectionExampleScenario.node[72].veinsmobility  speed  ETV
vector 32578  IntersectionExampleScenario.node[72].veinsmobility  acceleration  ETV
vector 32579  IntersectionExampleScenario.node[72].veinsmobility  co2emission  ETV
32481	1728161 6486 12473 17223 194.25 245.25 205 0.973 11.648172402475 566.04782681882 2913.2988737259
32480	1734647 6227 12473 17223 194.25 245.25 205 -6.7720994949341 4 38.850629806519 444.54799843603
32479	1740874 6371 12442 17223 194 245.25 206 0 15.64999961853 2184.6844055653 30736.048441575
32478	1747245 7177 12411 17223 193.75 245.25 207 235.28198242188 483.14999389648 91785.76550293 41726341.74159
32477	1754422 7220 12411 17223 193.75 245.25 207 184.17810058594 483.36395263672 85650.868682861 37368646.311461
32467	1761642 6926 12166 17223 191.5 245.25 216 0.973 11.450879080643 592.81711804686 2832.3041820337
32466	1768568 6237 12166 17223 191.5 245.25 216 -36.955917358398 4 38.341367721558 1715.8294706375
32465	1774805 6558 12139 17223 191.25 245.25 217 0 15.375 2213.118016243 31843.813766199
32464	1781363 7629 12112 17223 191 245.25 218 486.85000610352 486.85000610352 106133.30133057 51670998.400572
32463	1788992 7609 12112 17223 191 245.25 218 236.58178710938 785.82187652588 112290.66986847 62024469.774058
32502	1796601 5850 13304 17249 200.75 245.75 181 0.973 12.353032912318 574.58974569397 3244.9158976815
32501	1802451 5970 13304 17249 200.75 245.75 181 -3.0947456359863 2.5 42.754949569702 352.8641771201
32500	1808421 6116 13272 17249 200.5 245.75 182 1.2163634300232 16.625 2210.4670759439 31712.55812147
32499	1814537 6396 13239 17249 200.25 245.75 183 483.14999389648 733.95196533203 96335.112319946 51691087.381358
32498	1820933 6380 13239 17249 200.25 245.75 183 184.17810058594 487.04550170898 74447.838531494 32097316.738032
32509	1827313 5776 13670 17335 203.75 247.5 176 0.96333723109819 12.099024792222 550.81979361278 3269.9526933039
32508	1833089 5672 13670 17335 203.75 247.5 176 -3.3632316589355 2.5 40.208654403687 321.97052560624
32507	1838761 5950 13641 17335 203.5 247.5 177 5.1604118347168 16.27499961853 2267.073536396 31352.059053527
32506	1844711 6231 13611 17335 203.25 247.5 178 483.14999389648 483.14999389648 86000.698913574 41551237.155187
32505	1850942 6183 13611 17335 203.25 247.5 178 171.40313720703 732.78385925293 78145.388931274 38645935.198427
32495	1857125 6462 13239 17434 200.25 249.75 199 0.973 11.36141391502 576.3526122252 2920.8095608575
32494	1863587 6369 13239 17434 200.25 249.75 199 -31.14688873291 4 37.32285118103 1350.7906937595
32493	1869956 6735 13208 17434 200 249.75 200 0 15.25 2176.8504464626 28456.977093482
32492	1876691 7032 13177 17434 199.75 249.75 201 486.85000610352 734.22018432617 106243.33866882 57187141.356041
32491	1883723 7027 13177 17434 199.75 249.75 201 486.65667724609 785.82187652588 113058.24526215 65452590.914539
32516	1890750 5624 14138 17456 207.75 250.25 171 0.973 11.450879080643 545.86227751188 3109.4764555997
32515	1896374 5339 14138 17456 207.75 250.25 171 -4.5 2.5 37.15309715271 331.16895695665
32514	1901713 5729 14107 17456 207.5 250.25 172 5.6500000953674 15.375 2201.2432875633 29331.482549657
32513	1907442 6049 14076 17456 207.25 250.25 173 238.03259277344 486.85000610352 75743.079528809 34153146.446539
32512	1913491 6047 14076 17456 207.25 250.25 173 483.1321105957 785.82187652588 98825.180671692 58256097.830789
32530	1919538 5243 14582 17478 211.25 250.75 159 0.973 11.648172402475 497.33567786262 2914.1248572536
32529	1924781 5099 14582 17478 211.25 250.75 159 -2.8151168823242 2.5 38.850629806519 236.53908920085
32528	1929880 5371 14551 17478 211 250.75 160 5.6500000953674 15.64999961853 2222.703371048 31593.328918191
32527	1935251 5636 14519 17478 210.75 250.75 161 483.14999389648 483.14999389648 77787.149017334 37582860.57295
32526	1940887 5603 14519 17478 210.75 250.75 161 184.17810058594 734.58036804199 71946.682266235 36320744.356573
32537	1946490 5685 14865 17646 213.5 255 167 0.973 11.200708441096 504.14013865738 2597.5031579409
32536	1952175 5406 14865 17646 213.5 255 167 -4.1912574768066 2.5 35.625318527222 247.92505343494
32535	1957581 5604 14832 17646 213.25 255 168 5.6500000953674 15.02499961853 2273.0730781555 31486.241531223
32534	1963185 5905 14799 17646 213 255 169 483.14999389648 733.5311126709 90454.031692505 49425698.30343
32533	1969090 5893 14799 17646 213 255 169 167.29217529297 487.03030395508 66164.760345459 27986145.833923
32523	1974983 6444 14359 17817 209.5 259.75 202 0.973 12.099024792222 594.61330745552 3087.7719926835
32522	1981427 6252 14359 17817 209.5 259.75 202 -7.2880620956421 4 41.057416915894 483.31079575248
32521	1987679 6309 14326 17817 209.25 259.75 203 0 16.27499961853 2210.5007455349 32342.139801057
32520	1993988 7107 14293 17817 209 259.75 204 184.17810058594 732.7797088623 92542.062133789 46010936.479776
32519	2001095 7140 14293 17817 209 259.75 204 486.85000610352 486.85000610352 99317.401245117 48352677.40237
vector 32582  IntersectionExampleScenario.node[73].veinsmobility  posx  ETV
vector 32583  IntersectionExampleScenario.node[73].veinsmobility  posy  ETV
32544	2008389 6251 15197 17951 216.25 263.75 191 0.973 10.756497587458 523.07344002218 2444.9696747817
32543	2014640 6256 15197 17951 216.25 263.75 191 -2.1220169067383 2.5 34.267293930054 259.24376926125
32542	2020896 6596 15168 17951 216 263.75 192 3.1160023212433 14.39999961853 2215.3416447639 28193.604983942
32541	2027492 6712 15139 17951 215.75 263.75 193 184.17810058594 733.67044067383 86800.499267578 43414184.845117
32540	2034204 6756 15139 17951 215.75 263.75 193 486.85000610352 486.85000610352 93962.051177979 45745425.189498
vector 32584  IntersectionExampleScenario.node[73].veinsmobility  speed  ETV
vector 32585  IntersectionExampleScenario.node[73].veinsmobility  acceleration  ETV
vector 32586  IntersectionExampleScenario.node[73].veinsmobility  co2emission  ETV
vector 32589  IntersectionExampleScenario.node[74].veinsmobility  posx  ETV
vector 32590  IntersectionExampleScenario.node[74].veinsmobility  posy  ETV
vector 32591  IntersectionExampleScenario.node[74].veinsmobility  speed  ETV
vector 32592  IntersectionExampleScenario.node[74].veinsmobility  acceleration  ETV
vector 32593  IntersectionExampleScenario.node[74].veinsmobility  co2emission  ETV
32551	2041608 5434 16418 18121 229.5 269.25 160 0.973 11.450879080643 484.43435314376 2529.2329882873
32550	2047042 5337 16418 18121 229.5 269.25 160 -3.8013610839844 2.5 36.813589096069 228.59584512737
32549	2052379 5342 16398 18121 229.25 269.25 161 5.6500000953674 15.375 2209.3380050659 31128.909959882
32548	2057721 5645 16377 18121 229 269.25 162 184.17810058594 487.04125976562 64504.453674316 27482393.498873
32547	2063366 5662 16377 18121 229 269.25 162 235.67065429688 486.85000610352 70185.809509277 31397297.651578
vector 32596  IntersectionExampleScenario.node[75].veinsmobility  posx  ETV
vector 32597  IntersectionExampleScenario.node[75].veinsmobility  posy  ETV
vector 32598  IntersectionExampleScenario.node[75].veinsmobility  speed  ETV
vector 32599  IntersectionExampleScenario.node[75].veinsmobility  acceleration  ETV
vector 32600  IntersectionExampleScenario.node[75].veinsmobility  co2emission  ETV
vector 32603  IntersectionExampleScenario.node[76].veinsmobility  posx  ETV
vector 32604  IntersectionExampleScenario.node[76].veinsmobility  posy  ETV
vector 32605  IntersectionExampleScenario.node[76].veinsmobility  speed  ETV
vector 32606  IntersectionExampleScenario.node[76].veinsmobility  acceleration  ETV
vector 32607  IntersectionExampleScenario.node[76].veinsmobility  co2emission  ETV
32565	2069830 5333 16936 18555 240.25 279.25 157 0.973 11.810082123732 515.43055861261 2886.8724378541
32564	2075163 4834 16936 18555 240.25 279.25 157 -3.4797992706299 2.5 39.869146347046 288.3537892539
32563	2079997 5217 16923 18555 240 279.25 158 5.6500000953674 15.875 2188.3650727272 31769.767524
32562	2085214 5527 16911 18555 239.75 279.25 159 486.85000610352 734.21775817871 85471.097793579 46861496.956436
32561	2090741 5555 16911 18555 239.75 279.25 159 486.85000610352 785.82187652588 91043.511863708 53856883.081526
32558	2096296 5612 16911 18609 239.75 280.75 165 0.973 11.200708441096 489.53123084703 2471.7711966845
32557	2101908 5074 16911 18609 239.75 280.75 165 -3.5762805938721 2.5 35.455564498901 261.22152429186
32556	2106982 5518 16902 18609 239.5 280.75 166 5.6500000953674 15.02499961853 2187.5217623711 29919.224116323
32555	2112500 5837 16893 18609 239.25 280.75 167 235.87164306641 483.14999389648 72052.299194336 32061881.282107
32554	2118337 5816 16893 18609 239.25 280.75 167 184.17810058594 483.32922363281 66449.597503662 28225566.69939
vector 32610  IntersectionExampleScenario.node[77].veinsmobility  posx  ETV
vector 32611  IntersectionExampleScenario.node[77].veinsmobility  posy  ETV
vector 32612  IntersectionExampleScenario.node[77].veinsmobility  speed  ETV
vector 32613  IntersectionExampleScenario.node[77].veinsmobility  acceleration  ETV
vector 32614  IntersectionExampleScenario.node[77].veinsmobility  co2emission  ETV
vector 32617  IntersectionExampleScenario.node[78].veinsmobility  posx  ETV
vector 32618  IntersectionExampleScenario.node[78].veinsmobility  posy  ETV
vector 32619  IntersectionExampleScenario.node[78].veinsmobility  speed  ETV
vector 32620  IntersectionExampleScenario.node[78].veinsmobility  acceleration  ETV
vector 32621  IntersectionExampleScenario.node[78].veinsmobility  co2emission  ETV
vector 32624  IntersectionExampleScenario.node[79].veinsmobility  posx  ETV
vector 32625  IntersectionExampleScenario.node[79].veinsmobility  posy  ETV
vector 32626  IntersectionExampleScenario.node[79].veinsmobility  speed  ETV
vector 32627  IntersectionExampleScenario.node[79].veinsmobility  acceleration  ETV
vector 32628  IntersectionExampleScenario.node[79].veinsmobility  co2emission  ETV
32572	2125356 6409 16949 19025 240.5 290 199 0.973 11.810082123732 578.68649147058 3054.9143920216
32571	2131765 5930 16949 19025 240.5 290 199 -7.26416015625 4 39.699392318726 483.29115084588
32570	2137695 6199 16936 19025 240.25 290 200 0 15.875 2180.8752837181 31208.171219839
32569	2143894 7006 16923 19025 240 290 201 184.17810058594 483.36395263672 82939.26663208 36128927.601269
32568	2150900 6964 16923 19025 240 290 201 486.85000610352 733.87629699707 105919.71205139 56815375.051857
32579	2157864 6707 17005 19103 241.5 291.5 201 0.973 11.648172402475 582.26818497398 2962.721082803
32578	2164571 6217 17005 19103 241.5 291.5 201 -4.5 2.5 38.850629806519 452.92664567555
32577	2170788 6684 16990 19103 241.25 291.5 202 0 15.64999961853 2295.4210635051 32252.905576825
32576	2177472 7071 16975 19103 241 291.5 203 162.00311279297 487.04776000977 81859.689453125 35296304.613177
32575	2184543 7098 16975 19103 241 291.5 203 236.88348388672 486.85000610352 90491.550628662 41384501.183656
vector 32631  IntersectionExampleScenario.node[80].veinsmobility  posx  ETV
vector 32632  IntersectionExampleScenario.node[80].veinsmobility  posy  ETV
vector 32633  IntersectionExampleScenario.node[80].veinsmobility  speed  ETV
vector 32634  IntersectionExampleScenario.node[80].veinsmobility  acceleration  ETV
vector 32635  IntersectionExampleScenario.node[80].veinsmobility  co2emission  ETV
vector 32638  IntersectionExampleScenario.node[81].veinsmobility  posx  ETV
vector 32639  IntersectionExampleScenario.node[81].veinsmobility  posy  ETV
vector 32640  IntersectionExampleScenario.node[81].veinsmobility  speed  ETV
vector 32641  IntersectionExampleScenario.node[81].veinsmobility  acceleration  ETV
vector 32642  IntersectionExampleScenario.node[81].veinsmobility  co2emission  ETV
vector 32645  IntersectionExampleScenario.node[82].veinsmobility  posx  ETV
vector 32646  IntersectionExampleScenario.node[82].veinsmobility  posy  ETV
vector 32647  IntersectionExampleScenario.node[82].veinsmobility  speed  ETV
vector 32648  IntersectionExampleScenario.node[82].veinsmobility  acceleration  ETV
vector 32649  IntersectionExampleScenario.node[82].veinsmobility  co2emission  ETV
vector 32652  IntersectionExampleScenario.node[83].veinsmobility  posx  ETV
vector 32653  IntersectionExampleScenario.node[83].veinsmobility  posy  ETV
vector 32659  IntersectionExampleScenario.node[84].veinsmobility  posx  ETV
vector 32660  IntersectionExampleScenario.node[84].veinsmobility  posy  ETV
vector 32654  IntersectionExampleScenario.node[83].veinsmobility  speed  ETV
vector 32655  IntersectionExampleScenario.node[83].veinsmobility  acceleration  ETV
vector 32656  IntersectionExampleScenario.node[83].veinsmobility  co2emission  ETV
vector 32661  IntersectionExampleScenario.node[84].veinsmobility  speed  ETV
vector 32662  IntersectionExampleScenario.node[84].veinsmobility  acceleration  ETV
vector 32663  IntersectionExampleScenario.node[84].veinsmobility  co2emission  ETV
vector 32666  IntersectionExampleScenario.node[85].veinsmobility  posx  ETV
vector 32667  IntersectionExampleScenario.node[85].veinsmobility  posy  ETV
vector 32668  IntersectionExampleScenario.node[85].veinsmobility  speed  ETV
vector 32669  IntersectionExampleScenario.node[85].veinsmobility  acceleration  ETV
vector 32670  IntersectionExampleScenario.node[85].veinsmobility  co2emission  ETV
vector 32673  IntersectionExampleScenario.node[86].veinsmobility  posx  ETV
vector 32674  IntersectionExampleScenario.node[86].veinsmobility  posy  ETV
vector 32675  IntersectionExampleScenario.node[86].veinsmobility  speed  ETV
vector 32676  IntersectionExampleScenario.node[86].veinsmobility  acceleration  ETV
vector 32677  IntersectionExampleScenario.node[86].veinsmobility  co2emission  ETV
32586	2194448 5666 17965 20007 264.25 305.75 167 0.973 11.200708441096 495.66228066995 2501.1749804084
32585	2200114 5156 17965 20007 264.25 305.75 167 -3.1101055145264 2.5 35.625318527222 266.99688693249
32584	2205270 5574 17958 20007 264 305.75 168 5.6500000953674 15.02499961853 2179.3802552223 29570.370260323
32583	2210844 5904 17951 20007 263.75 305.75 169 486.85000610352 732.3003692627 90772.192306519 49714496.180165
32582	2216748 5911 17951 20007 263.75 305.75 169 486.85000610352 785.82187652588 96552.549324036 56952710.624689
vector 32680  IntersectionExampleScenario.node[87].veinsmobility  posx  ETV
vector 32681  IntersectionExampleScenario.node[87].veinsmobility  posy  ETV
vector 32682  IntersectionExampleScenario.node[87].veinsmobility  speed  ETV
vector 32683  IntersectionExampleScenario.node[87].veinsmobility  acceleration  ETV
vector 32684  IntersectionExampleScenario.node[87].veinsmobility  co2emission  ETV
vector 32687  IntersectionExampleScenario.node[88].veinsmobility  posx  ETV
vector 32688  IntersectionExampleScenario.node[88].veinsmobility  posy  ETV
vector 32689  IntersectionExampleScenario.node[88].veinsmobility  speed  ETV
vector 32690  IntersectionExampleScenario.node[88].veinsmobility  acceleration  ETV
vector 32691  IntersectionExampleScenario.node[88].veinsmobility  co2emission  ETV
vector 32694  IntersectionExampleScenario.node[89].veinsmobility  posx  ETV
vector 32695  IntersectionExampleScenario.node[89].veinsmobility  posy  ETV
vector 32696  IntersectionExampleScenario.node[89].veinsmobility  speed  ETV
vector 32697  IntersectionExampleScenario.node[89].veinsmobility  acceleration  ETV
vector 32698  IntersectionExampleScenario.node[89].veinsmobility  co2emission  ETV
32600	2223862 6558 18152 21287 270 320.5 203 0.973 11.450879080643 562.03895178836 2812.3146611648
32599	2230420 6144 18152 21287 270 320.5 203 -9.2727584838867 4 36.643835067749 497.39910828892
32598	2236564 6409 18141 21287 269.75 320.5 204 0 15.375 2205.2649021149 30558.015137007
32597	2242973 7161 18130 21287 269.5 320.5 205 238.44940185547 785.82187652588 105901.61463165 58915271.944702
32596	2250134 7175 18130 21287 269.5 320.5 205 483.14999389648 483.14999389648 99045.748748779 47853952.903445
32593	2257309 6770 18067 21287 267.75 320.5 212 0.973 11.450879080643 572.72803746452 2809.9971714928
32592	2264079 6189 18067 21287 267.75 320.5 212 -8.487024307251 4 37.15309715271 478.32413438468
32591	2270268 6567 18058 21287 267.5 320.5 213 0 15.375 2198.7463283539 30558.206619436
32590	2276835 7471 18049 21287 267.25 320.5 214 184.17810058594 486.85000610352 89022.414337158 39036160.25111
32589	2284306 7485 18049 21287 267.25 320.5 214 237.33026123047 486.85000610352 95659.458526611 43839370.017245
32607	2291791 6636 18189 21399 270.75 321.75 205 0.973 12.222660615312 629.16391005889 3357.8091394799
32606	2298427 6412 18189 21399 270.75 321.75 205 -4.5 2.5 42.693441390991 510.5660327978
32605	2304839 6696 18176 21399 270.5 321.75 206 0 16.445550918579 2306.2870249953 33540.256569017
32604	2311535 7221 18163 21399 270.25 321.75 207 237.10711669922 808.82032012939 109036.20664978 62035230.860373
32603	2318756 7247 18163 21399 270.25 321.75 207 483.14999389648 483.14999389648 100012.04873657 48320820.73665
vector 32701  IntersectionExampleScenario.node[90].veinsmobility  posx  ETV
vector 32702  IntersectionExampleScenario.node[90].veinsmobility  posy  ETV
vector 32703  IntersectionExampleScenario.node[90].veinsmobility  speed  ETV
vector 32704  IntersectionExampleScenario.node[90].veinsmobility  acceleration  ETV
vector 32705  IntersectionExampleScenario.node[90].veinsmobility  co2emission  ETV
32614	2326404 5282 18721 21533 283.75 323.25 159 0.973 12.099024792222 557.20487838913 3371.725144742
32613	2331686 5038 18721 21533 283.75 323.25 159 -2.989013671875 2.5 41.736440658569 307.66504902195
32612	2336724 5302 18710 21533 283.5 323.25 160 5.6500000953674 16.27499961853 2214.3425149918 31950.42360928
32611	2342026 5612 18699 21533 283.25 323.25 161 184.17810058594 486.85000610352 64207.434814453 27346896.398049
32610	2347638 5630 18699 21533 283.25 323.25 161 235.2880859375 486.85000610352 70278.091033936 31623463.42656
vector 32708  IntersectionExampleScenario.node[91].veinsmobility  posx  ETV
vector 32709  IntersectionExampleScenario.node[91].veinsmobility  posy  ETV
vector 32710  IntersectionExampleScenario.node[91].veinsmobility  speed  ETV
vector 32711  IntersectionExampleScenario.node[91].veinsmobility  acceleration  ETV
vector 32712  IntersectionExampleScenario.node[91].veinsmobility  co2emission  ETV
vector 32715  IntersectionExampleScenario.node[92].veinsmobility  posx  ETV
vector 32716  IntersectionExampleScenario.node[92].veinsmobility  posy  ETV
vector 32717  IntersectionExampleScenario.node[92].veinsmobility  speed  ETV
vector 32718  IntersectionExampleScenario.node[92].veinsmobility  acceleration  ETV
vector 32719  IntersectionExampleScenario.node[92].veinsmobility  co2emission  ETV
32621	2354070 6110 18890 22390 287.5 334.5 189 0.973 12.353032912318 594.15759019287 3378.6405399316
32620	2360180 5639 18890 22390 287.5 334.5 189 -7.0093650817871 4 42.415441513062 502.74839365015
32619	2365819 5938 18877 22390 287.25 334.5 190 0 16.625 2208.3577167988 32888.717631394
32618	2371757 6682 18864 22390 287 334.5 191 235.60009765625 486.85000610352 85007.385528564 38834486.813197
[...]
35481	15194126 7690 119590 123426 1708.25 1760 208 483.14999389648 785.82187652588 115274.10837555 65848398.108397
35480	15201816 7694 119590 123426 1708.25 1760 208 483.14999389648 733.64456176758 108754.24734497 57913127.350841
vector 35613  IntersectionExampleScenario.node[506].veinsmobility  posx  ETV
vector 35614  IntersectionExampleScenario.node[506].veinsmobility  posy  ETV
35498	15209666 6278 120116 123489 1715.25 1760.75 183 0.973 11.990504229548 562.79151270131 3082.2122584776
35497	15215944 6425 120116 123489 1715.25 1760.75 183 -2.7697257995605 2.5000009536743 41.227170944214 331.12635385117
35496	15222369 6642 120099 123489 1715 1760.75 184 1.4418194293976 16.125 2220.8882309198 31353.911718105
35495	15229011 6812 120082 123489 1714.75 1760.75 185 235.65893554688 785.82187652588 96452.290031433 54328785.275679
35494	15235823 6846 120082 123489 1714.75 1760.75 185 483.14999389648 483.14999389648 89382.74887085 43185274.571402
vector 35615  IntersectionExampleScenario.node[506].veinsmobility  speed  ETV
vector 35616  IntersectionExampleScenario.node[506].veinsmobility  acceleration  ETV
vector 35617  IntersectionExampleScenario.node[506].veinsmobility  co2emission  ETV
35505	15242919 6645 120166 123706 1716 1763.25 190 0.973 11.990504229548 571.28467849593 3081.1734797229
35504	15249564 6753 120166 123706 1716 1763.25 190 -4.5 2.5000038146973 39.529638290405 349.4514473647
35503	15256317 6827 120149 123706 1715.75 1763.25 191 4.1805820465088 16.125 2310.1116881371 31338.215475981
35502	15263144 7091 120132 123706 1715.5 1763.25 192 236.63507080078 808.82032012939 102794.38620758 59686088.957838
35501	15270235 7104 120132 123706 1715.5 1763.25 192 483.14999389648 483.14999389648 92764.798828125 44819311.987617
vector 35620  IntersectionExampleScenario.node[507].veinsmobility  posx  ETV
vector 35621  IntersectionExampleScenario.node[507].veinsmobility  posy  ETV
vector 35622  IntersectionExampleScenario.node[507].veinsmobility  speed  ETV
vector 35623  IntersectionExampleScenario.node[507].veinsmobility  acceleration  ETV
vector 35624  IntersectionExampleScenario.node[507].veinsmobility  co2emission  ETV
vector 35627  IntersectionExampleScenario.node[508].veinsmobility  posx  ETV
vector 35628  IntersectionExampleScenario.node[508].veinsmobility  posy  ETV
vector 35629  IntersectionExampleScenario.node[508].veinsmobility  speed  ETV
vector 35630  IntersectionExampleScenario.node[508].veinsmobility  acceleration  ETV
vector 35631  IntersectionExampleScenario.node[508].veinsmobility  co2emission  ETV
35512	15278151 6720 120269 123909 1717.5 1765.5 193 0.973 11.90022389248 572.80439525479 3060.3948367845
35511	15284871 6821 120269 123909 1717.5 1765.5 193 -4.5 2.5 39.699392318726 340.80672646689
35510	15291692 6890 120252 123909 1717.25 1765.5 194 4.3560299873352 16 2337.7582445145 31473.896173591
35509	15298582 7199 120234 123909 1717 1765.5 195 483.14999389648 817.61485290527 112924.84010315 67720730.947267
35508	15305781 7208 120234 123909 1717 1765.5 195 483.14999389648 733.32553100586 102457.59907532 54858449.396971
vector 35634  IntersectionExampleScenario.node[509].veinsmobility  posx  ETV
vector 35635  IntersectionExampleScenario.node[509].veinsmobility  posy  ETV
vector 35636  IntersectionExampleScenario.node[509].veinsmobility  speed  ETV
vector 35637  IntersectionExampleScenario.node[509].veinsmobility  acceleration  ETV
vector 35638  IntersectionExampleScenario.node[509].veinsmobility  co2emission  ETV
35519	15313395 6168 120626 124063 1723 1767 177 0.973 11.90022389248 543.52375243387 2969.5405181667
35518	15319563 6015 120626 124063 1723 1767 177 -3.0487442016602 2.5 41.736440658569 254.72818719184
35517	15325578 6272 120609 124063 1722.75 1767 178 5.6500000953674 16.154209136963 2258.5624217987 30933.779034925
35516	15331850 6612 120592 124063 1722.5 1767 179 483.11920166016 796.88916778564 102797.81518555 60961114.744868
35515	15338462 6618 120592 124063 1722.5 1767 179 483.14999389648 734.66310119629 94570.130462646 50951172.762889
35533	15345080 5711 121211 124468 1731.75 1770.75 157 0.973 11.200708441096 460.15834192339 2219.9375708414
35532	15350791 5026 121211 124468 1731.75 1770.75 157 -3.1984786987305 2.5 36.813589096069 173.16062374352
35531	15355817 5631 121194 124468 1731.5 1770.75 158 5.6500000953674 15.02499961853 2213.1973628998 31558.026069874
35530	15361448 5850 121177 124468 1731.25 1770.75 159 184.17810058594 732.49557495117 71354.551269531 36223643.095734
35529	15367298 5885 121177 124468 1731.25 1770.75 159 486.85000610352 486.85000610352 77409.150970459 37686645.622436
35547	15373183 5549 121562 124891 1736.5 1774.75 154 0.973 12.099024792222 529.20848966917 3002.9470893124
35546	15378732 5168 121562 124891 1736.5 1774.75 154 -4.5 2.5 41.566686630249 290.18459487157
35545	15383900 5434 121541 124891 1736.25 1774.75 155 5.6500000953674 16.27499961853 2213.3422088623 32841.521855348
35544	15389334 5767 121520 124891 1736 1774.75 156 483.14999389648 734.14108276367 83457.790588379 45578146.410713
35543	15395101 5740 121520 124891 1736 1774.75 156 184.17810058594 486.85000610352 62187.491699219 26532172.129545
35526	15400841 6502 121055 124966 1729.25 1775.5 186 0.973 11.450879080643 547.8901894263 2787.441087433
35525	15407343 6051 121055 124966 1729.25 1775.5 186 -7.2744359970093 4 37.32285118103 466.75517046376
35524	15413394 6391 121036 124966 1729 1775.5 187 0 15.375 2201.3181312084 30675.022765069
35523	15419785 6950 121017 124966 1728.75 1775.5 188 236.78112792969 486.85000610352 82986.807250977 37668017.409375
35522	15426735 6945 121017 124966 1728.75 1775.5 188 483.14999389648 785.82187652588 105574.94683075 61199267.982807
vector 35641  IntersectionExampleScenario.node[510].veinsmobility  posx  ETV
vector 35642  IntersectionExampleScenario.node[510].veinsmobility  posy  ETV
35554	15433836 5455 121765 125086 1739 1776.75 152 0.973 12.099024792222 506.4758129729 2974.2529848876
35553	15439291 5193 121765 125086 1739 1776.75 152 -3.368293762207 2.5 41.566686630249 228.17742600319
35552	15444484 5404 121744 125086 1738.75 1776.75 153 5.6500000953674 16.27499961853 2274.4550304413 34629.620502014
35551	15449888 5699 121723 125086 1738.5 1776.75 154 483.14999389648 483.14999389648 74405.099060059 35948823.156735
35550	15455587 5658 121723 125086 1738.5 1776.75 154 168.58435058594 731.73402404785 67614.934860229 33985651.397994
vector 35643  IntersectionExampleScenario.node[510].veinsmobility  speed  ETV
vector 35644  IntersectionExampleScenario.node[510].veinsmobility  acceleration  ETV
vector 35645  IntersectionExampleScenario.node[510].veinsmobility  co2emission  ETV
vector 35648  IntersectionExampleScenario.node[511].veinsmobility  posx  ETV
vector 35649  IntersectionExampleScenario.node[511].veinsmobility  posy  ETV
vector 35650  IntersectionExampleScenario.node[511].veinsmobility  speed  ETV
vector 35651  IntersectionExampleScenario.node[511].veinsmobility  acceleration  ETV
vector 35652  IntersectionExampleScenario.node[511].veinsmobility  co2emission  ETV
vector 35655  IntersectionExampleScenario.node[512].veinsmobility  posx  ETV
vector 35656  IntersectionExampleScenario.node[512].veinsmobility  posy  ETV
vector 35657  IntersectionExampleScenario.node[512].veinsmobility  speed  ETV
vector 35658  IntersectionExampleScenario.node[512].veinsmobility  acceleration  ETV
vector 35659  IntersectionExampleScenario.node[512].veinsmobility  co2emission  ETV
vector 35662  IntersectionExampleScenario.node[513].veinsmobility  posx  ETV
vector 35663  IntersectionExampleScenario.node[513].veinsmobility  posy  ETV
vector 35664  IntersectionExampleScenario.node[513].veinsmobility  speed  ETV
vector 35665  IntersectionExampleScenario.node[513].veinsmobility  acceleration  ETV
vector 35666  IntersectionExampleScenario.node[513].veinsmobility  co2emission  ETV
vector 35669  IntersectionExampleScenario.node[514].veinsmobility  posx  ETV
vector 35670  IntersectionExampleScenario.node[514].veinsmobility  posy  ETV
vector 35671  IntersectionExampleScenario.node[514].veinsmobility  speed  ETV
vector 35672  IntersectionExampleScenario.node[514].veinsmobility  acceleration  ETV
vector 35673  IntersectionExampleScenario.node[514].veinsmobility  co2emission  ETV
35540	15463119 7688 121368 126384 1734 1790.75 228 0.973 11.36141391502 586.13501187104 2809.4122802841
35539	15470807 7258 121368 126384 1734 1790.75 228 -20.282695770264 4 35.964826583862 804.96480974017
35538	15478065 7368 121349 126384 1733.75 1790.75 229 0 15.25 2245.2650337219 30887.615935247
35537	15485433 8493 121330 126384 1733.5 1790.75 230 167.29217529297 483.36395263672 94741.4347229 41354939.383437
35536	15493926 8443 121330 126384 1733.5 1790.75 230 486.85000610352 733.14964294434 120466.16732788 64174783.263426
vector 35676  IntersectionExampleScenario.node[515].veinsmobility  posx  ETV
vector 35677  IntersectionExampleScenario.node[515].veinsmobility  posy  ETV
35561	15502525 6912 122085 126505 1742.75 1792.25 199 0.973 11.648172402475 570.62866039396 2863.411076483
35560	15509437 6613 122085 126505 1742.75 1792.25 199 -7.03919506073 4 38.341367721558 478.63845150342
35559	15516050 7023 122062 126505 1742.5 1792.25 200 0 15.64999961853 2197.4644331224 30942.316678657
35558	15523073 7433 122039 126505 1742.25 1792.25 201 483.14999389648 785.82187652588 111896.01659393 64243816.858666
35557	15530506 7429 122039 126505 1742.25 1792.25 201 483.14999389648 732.37840270996 105487.8503418 56400312.580195
vector 35678  IntersectionExampleScenario.node[515].veinsmobility  speed  ETV
vector 35679  IntersectionExampleScenario.node[515].veinsmobility  acceleration  ETV
vector 35680  IntersectionExampleScenario.node[515].veinsmobility  co2emission  ETV
35568	15538185 6875 122227 126691 1744.25 1794.5 202 0.973 11.648172402475 586.8875423167 3021.6369652692
35567	15545060 7009 122227 126691 1744.25 1794.5 202 -25.335098266602 4 39.699392318726 1030.6046013093
35566	15552069 7124 122202 126691 1744 1794.5 203 0 15.64999961853 2180.6208690405 29199.908614422
35565	15559193 7513 122177 126691 1743.75 1794.5 204 184.17810058594 483.25219726562 83499.370178223 36023464.891013
35564	15566706 7541 122177 126691 1743.75 1794.5 204 486.85000610352 732.15298461914 107274.02125549 57396005.815159
35575	15574247 6738 122629 126891 1749 1797.25 194 0.973 11.648172402475 566.9525322834 2967.2053738463
35574	15580985 6652 122629 126891 1749 1797.25 194 -4.5 2.5 38.341367721558 415.72055675447
35573	15587637 6971 122608 126891 1748.75 1797.25 195 2.0758147239685 15.64999961853 2181.5885517597 28418.425914458
35572	15594608 7216 122587 126891 1748.5 1797.25 196 184.17810058594 483.19033813477 79316.420837402 33905377.789474
35571	15601824 7247 122587 126891 1748.5 1797.25 196 486.85000610352 733.03517150879 103603.13061523 55760073.82605
vector 35683  IntersectionExampleScenario.node[516].veinsmobility  posx  ETV
vector 35684  IntersectionExampleScenario.node[516].veinsmobility  posy  ETV
vector 35685  IntersectionExampleScenario.node[516].veinsmobility  speed  ETV
vector 35686  IntersectionExampleScenario.node[516].veinsmobility  acceleration  ETV
vector 35687  IntersectionExampleScenario.node[516].veinsmobility  co2emission  ETV
35603	15609477 5684 123405 126996 1759.75 1798.75 157 0.973 11.54047740176 464.515727801 2331.5343583805
35602	15615161 5172 123405 126996 1759.75 1798.75 157 -3.6199722290039 2.5 36.98334312439 185.99759120812
35601	15620333 5595 123384 126996 1759.5 1798.75 158 5.6500000953674 15.5 2220.1634054184 31769.100361968
35600	15625928 5878 123364 126996 1759.25 1798.75 159 235.88525390625 785.82187652588 82773.169471741 47318648.965285
35599	15631806 5885 123364 126996 1759.25 1798.75 159 483.14999389648 483.14999389648 76820.849029541 37115992.739745
35582	15637691 5884 123184 127013 1757 1799 169 0.973 11.093806525473 508.74813975306 2759.1991590863
35581	15643575 5766 123184 127013 1757 1799 169 -4.4726486206055 2.5 34.94630241394 263.19732692081
35580	15649341 6059 123165 127013 1756.75 1799 170 5.6500000953674 14.875 2216.5891590118 29528.263687008
35579	15655400 6282 123148 127013 1756.5 1799 171 184.17810058594 733.16119384766 76604.842681885 38655521.622736
35578	15661682 6326 123148 127013 1756.5 1799 171 486.85000610352 486.85000610352 83251.351043701 40530920.763752
35589	15668008 5912 123203 127082 1757.25 1800 172 0.973 11.200708441096 508.78049110137 2600.5768787173
35588	15673920 5367 123203 127082 1757.25 1800 172 -6.998438835144 4 37.492658615112 458.3144276222
35587	15679287 5742 123184 127082 1757 1800 173 0 15.062636375427 1849.618929863 25302.385174672
35586	15685029 6379 123165 127082 1756.75 1800 174 486.85000610352 651.15184020996 88488.570922852 45328528.49805
35585	15691408 6427 123165 127082 1756.75 1800 174 486.63604736328 785.82187652588 99082.328224182 58192024.215935
35596	15697835 5756 123302 127082 1758.5 1800 167 0.973 11.648172402475 519.38724319166 2840.5284907929
35595	15703591 5498 123302 127082 1758.5 1800 167 -9.0596437454224 4 39.359945297241 493.76469265763
35594	15709089 5598 123281 127082 1758.25 1800 168 0 15.64999961853 1867.0547232628 26148.027522784
35593	15714687 6189 123260 127082 1758 1800 169 314.99792480469 483.14999389648 77810.615631104 36163654.576904
35592	15720876 6218 123260 127082 1758 1800 169 184.17810058594 483.36395263672 67575.13772583 28757779.663285
35610	15727094 5633 123426 127082 1760 1800 161 0.973 11.36141391502 482.55036157281 2605.7612331338
35609	15732727 5430 123426 127082 1760 1800 161 -4.5 2.5000004768372 36.818609237671 415.34029131258
35608	15738157 5717 123405 127082 1759.75 1800 162 0 15.25 1756.2378638517 23221.529267718
35607	15743874 6027 123384 127082 1759.5 1800 163 364.02755737305 483.14999389648 76695.780426025 36221704.492327
35606	15749901 5999 123384 127082 1759.5 1800 163 163.88433837891 483.14999389648 62281.276306152 25718135.126893
35617	15755900 5422 123535 127082 1761.25 1800 156 0.973 11.54047740176 559.65831037089 3344.2470716616
35616	15761322 5299 123535 127082 1761.25 1800 156 -4.5 2.5 38.600103378296 625.5653018616
35615	15766621 5599 123512 127082 1761 1800 157 2.394805431366 15.5 1613.3572733402 19386.739050705
35614	15772220 5845 123489 127082 1760.75 1800 158 483.14999389648 483.14999389648 76337.699035645 36882558.823143
35613	15778065 5824 123489 127082 1760.75 1800 158 152.7578125 551.58779907227 56857.288574219 22577020.169968
35624	15783889 4942 123836 127082 1764.75 1800 142 0.973 10.578232299135 419.67930502785 1976.7060725195
35623	15788831 4707 123836 127082 1764.75 1800 142 -4.5 2.5 20.89999961853 465.37898129316
35622	15793538 5054 123813 127082 1764.5 1800 143 2.0065946578979 15.5980052948 1387.6370513439 16071.457669598
35621	15798592 5320 123790 127082 1764.25 1800 144 459.6155090332 483.14999389648 69421.022094727 33469367.762351
35620	15803912 5316 123790 127082 1764.25 1800 144 158.68713378906 483.14999389648 50639.518615723 19452903.633295
35631	15809228 4796 123909 127082 1765.5 1800 139 0.973 11.36141391502 470.58320144166 2700.0266425269
35630	15814024 4721 123909 127082 1765.5 1800 139 -4.5 2.5 39.712629318237 441.76627578716
35629	15818745 4865 123884 127082 1765.25 1800 140 1.6573123931885 15.636960029602 1434.3359034061 17923.930585086
35628	15823610 5206 123859 127082 1765 1800 141 399.11254882812 483.14999389648 67057.92880249 31940798.860486
35627	15828816 5199 123859 127082 1765 1800 141 208.72576904297 483.14999389648 55368.685241699 22915710.307577
35638	15834015 4312 124063 127082 1767 1800 133 0.973 11.200708441096 303.79598601013 1370.2206891142
35637	15838327 3977 124063 127082 1767 1800 133 -7.5394115447998 2.5 -22.60000038147 346.14930542578
35636	15842304 4296 124036 127082 1766.75 1800 134 0 15.02499961853 1146.6326210499 15929.39804898
35635	15846600 4986 124009 127082 1766.5 1800 135 498.39999389648 785.82187652588 80270.064628601 49127228.456814
35634	15851586 4994 124009 127082 1766.5 1800 135 483.14999389648 483.14999389648 65225.249176025 31513578.741293
35645	15856580 3260 125136 127082 1777.25 1800 92 0.97223939240464 11.648172402475 274.40539599515 1463.9498659608
35644	15859840 3068 125136 127082 1777.25 1800 92 -3.3224430084229 2.5 5.3999996185303 194.15530299444
35643	15862908 3282 125111 127082 1777 1800 93 5.6500000953674 15.64999961853 1217.7211050987 16950.794846695
35642	15866190 3476 125086 127082 1776.75 1800 94 486.85000610352 494.5319519043 45790.624237061 22306311.965388
35641	15869666 3473 125086 127082 1776.75 1800 94 486.73587036133 785.82187652588 59543.67035675 38615797.618755
35652	15873139 2597 125512 127082 1781.25 1800 76 0.90753377507377 12.553400930962 297.22040969113 2223.1733126169
35651	15875736 2586 125512 127082 1781.25 1800 76 -3.0620765686035 2.5 16.132043838501 221.97720854379
35650	15878322 2833 125489 127082 1781 1800 77 5.6500000953674 16.89999961853 1124.5211353302 17069.104931896
35649	15881155 2885 125466 127082 1780.75 1800 78 483.14999389648 483.14999389648 37685.699523926 18207845.494969
35648	15884040 2852 125466 127082 1780.75 1800 78 184.17810058594 462.42315673828 24502.307891846 8295315.8404687
35659	15886892 2469 125707 127082 1783.5 1800 67 1.6778656626784 11.200708441096 231.74632319824 1282.6685947658
35658	15889361 2265 125707 127082 1783.5 1800 67 -0.12916564941406 2.5 36.98334312439 93.788124843824
35657	15891626 2501 125686 127082 1783.25 1800 68 5.6500000953674 15.02499961853 940.37087917328 13392.266347545
35656	15894127 2525 125665 127082 1783 1800 69 184.17810058594 414.30612182617 19984.167938232 6139011.9441367
35655	15896652 2551 125665 127082 1783 1800 69 486.85000610352 486.85000610352 33592.650421143 16354582.062567
35666	15899203 2343 125774 127082 1784.25 1800 64 0.973 11.038885784591 225.08178435931 1291.0510290303
35665	15901546 2348 125774 127082 1784.25 1800 64 -0.4685173034668 2.5 36.98334312439 93.853811539655
35664	15903894 2395 125751 127082 1784 1800 65 5.6500000953674 15.364351272583 885.86439323425 12487.509594666
35663	15906289 2424 125728 127082 1783.75 1800 66 161.1796875 377.67990112305 17105.152923584 4732368.0038323
35662	15908713 2441 125728 127082 1783.75 1800 66 486.85000610352 486.85000610352 32132.100402832 15643513.277238
35673	15911154 2164 125893 127082 1785.5 1800 59 0.973 11.648172402475 222.46350382093 1372.9644901738
35672	15913318 2174 125893 127082 1785.5 1800 59 -0.37222290039062 2.5 38.478456497192 100.31774085314
35671	15915492 2202 125868 127082 1785.25 1800 60 5.6500000953674 15.64999961853 839.10296630859 12158.258464255
35670	15917694 2255 125843 127082 1785 1800 61 483.14999389648 483.14999389648 29472.149627686 14239468.912733
35669	15919949 2238 125843 127082 1785 1800 61 179.81719970703 384.47009277344 16606.460174561 4769728.4465281
35680	15922187 1105 126547 127082 1792.75 1800 30 1.0628769479023 11.200708441096 150.20597787447 1105.3483998317
35679	15923292 985 126547 127082 1792.75 1800 30 -0.29891967773438 2.5 36.320302963257 93.954188278647
35678	15924277 1137 126526 127082 1792.5 1800 31 5.6500000953674 15.02499961853 387.17598247528 5121.6701226019
35677	15925414 1184 126505 127082 1792.25 1800 32 486.85000610352 486.85000610352 15579.200195312 7584733.7101758
35676	15926598 1181 126505 127082 1792.25 1800 32 693.93989562988 785.82187652588 23907.922035217 17889359.906178
35687	15927779 256 126979 127082 1798.5 1800 7 5.2162187258585 7.726741696285 45.269477411621 297.66192607747
35686	15928035 186 126979 127082 1798.5 1800 7 2.4999980926514 2.5 17.499998092651 43.74999046326
35685	15928221 295 126961 127082 1798.25 1800 8 5.6500000953674 10.02499961853 62.699998855591 507.81747729302
35684	15928516 331 126942 127082 1798 1800 9 483.14999389648 483.14999389648 4348.3499450684 2100905.2494196
35683	15928847 326 126942 127082 1798 1800 9 184.17810058594 196.79998779297 1703.7155761719 322683.41850586
32067	15929173 627 0 127081 0 1800 31 0 19 401 5577
32068	15929800 637 0 127081 0 1800 31 0 138 2092 191292
