file 14568108 1591474159                                        
version 2
run nodebug-38-20200606-16:07:16-20656
attr configname nodebug
attr datetime 20200606-16:07:16
attr experiment nodebug
attr inifile omnetpp.ini
attr iterationvars ""
attr iterationvars2 $repetition=38
attr measurement ""
attr network "\"org.car2x.veins.modules.application.ExtTraCIScenarioManagerLaunchd.IntersectionExampleScenario\""
attr processid 20656
attr repetition 38
attr replication #38
attr resultdir results
attr runnumber 38
attr seedset 38
param **.coreDebug false
param **.debug false
param *.**.nic.mac1609_4.bitrate 18Mbps
param *.**.nic.mac1609_4.txPower 20mW
param *.**.nic.mac1609_4.useServiceChannel false
param *.**.nic.phy80211p.analogueModels "xmldoc(\"config.xml\")"
param *.**.nic.phy80211p.decider "xmldoc(\"config.xml\")"
param *.**.nic.phy80211p.sensitivity -89dBm
param *.**.nic.phy80211p.thermalNoise -110dBm
param *.**.nic.phy80211p.usePropagationDelay true
param *.**.nic.phy80211p.useThermalNoise true
param *.annotations.draw false
param *.connectionManager.alpha 2.0
param *.connectionManager.carrierFrequency "5.890e9 Hz"
param *.connectionManager.pMax 20mW
param *.connectionManager.sat -89dBm
param *.connectionManager.sendDirect true
param *.manager.autoShutdown true
param *.manager.host "\"localhost\""
param *.manager.launchConfig "xmldoc(\"paramics.launchd.xml\")"
param *.manager.margin 25
param *.manager.moduleDisplayString "\"\""
param *.manager.moduleName "\"node\""
param *.manager.moduleType "\"org.car2x.veins.nodes.Car\""
param *.manager.port 9999
param *.manager.updateInterval 250ms
param *.node[*0].veinsmobility.accidentCount 0
param *.node[*0].veinsmobility.accidentDuration 30s
param *.node[*0].veinsmobility.accidentStart 75s
param *.node[*].appl.LiderSelectZoneRadio 55.0
param *.node[*].appl.ShareDataZoneRadio 110.0
param *.node[*].appl.TiempoSemaforo 30.0
param *.node[*].appl.beaconInterval 1s
param *.node[*].appl.beaconPriority 3
param *.node[*].appl.dataOnSch false
param *.node[*].appl.dataPriority 2
param *.node[*].appl.debug false
param *.node[*].appl.headerLength "256 bit"
param *.node[*].appl.maxOffset 0.005s
param *.node[*].appl.sendBeacons false
param *.node[*].appl.sendData true
param *.node[*].applType "\"Dummy\""
param *.node[*].mobilityType "\"TraCIMobility\""
param *.node[*].mobilityType.debug true
param *.node[*].veinsmobility.x 0
param *.node[*].veinsmobility.y 0
param *.node[*].veinsmobility.z 1.895
param *.node[*].veinsmobilityType "\"org.car2x.veins.modules.mobility.traci.TraCIMobility\""
param *.node[*].veinsmobilityType.debug true
param *.playgroundSizeX 8500m
param *.playgroundSizeY 8500m
param *.playgroundSizeZ 50m
param *.world.use2D false
param *.world.useTorus false

vector 42783  IntersectionExampleScenario.manager  vehiclesinsim  ETV
attr type  int
vector 42784  IntersectionExampleScenario.manager  realtime  ETV
attr type  int
attr unit  s
vector 42787  IntersectionExampleScenario.node[0].veinsmobility  posx  ETV
vector 42788  IntersectionExampleScenario.node[0].veinsmobility  posy  ETV
vector 42789  IntersectionExampleScenario.node[0].veinsmobility  speed  ETV
vector 42790  IntersectionExampleScenario.node[0].veinsmobility  acceleration  ETV
vector 42791  IntersectionExampleScenario.node[0].veinsmobility  co2emission  ETV
vector 42794  IntersectionExampleScenario.node[1].veinsmobility  posx  ETV
vector 42795  IntersectionExampleScenario.node[1].veinsmobility  posy  ETV
vector 42796  IntersectionExampleScenario.node[1].veinsmobility  speed  ETV
vector 42797  IntersectionExampleScenario.node[1].veinsmobility  acceleration  ETV
vector 42798  IntersectionExampleScenario.node[1].veinsmobility  co2emission  ETV
vector 42801  IntersectionExampleScenario.node[2].veinsmobility  posx  ETV
vector 42802  IntersectionExampleScenario.node[2].veinsmobility  posy  ETV
vector 42803  IntersectionExampleScenario.node[2].veinsmobility  speed  ETV
vector 42808  IntersectionExampleScenario.node[3].veinsmobility  posx  ETV
vector 42809  IntersectionExampleScenario.node[3].veinsmobility  posy  ETV
vector 42804  IntersectionExampleScenario.node[2].veinsmobility  acceleration  ETV
vector 42805  IntersectionExampleScenario.node[2].veinsmobility  co2emission  ETV
vector 42810  IntersectionExampleScenario.node[3].veinsmobility  speed  ETV
vector 42815  IntersectionExampleScenario.node[4].veinsmobility  posx  ETV
vector 42816  IntersectionExampleScenario.node[4].veinsmobility  posy  ETV
vector 42811  IntersectionExampleScenario.node[3].veinsmobility  acceleration  ETV
vector 42812  IntersectionExampleScenario.node[3].veinsmobility  co2emission  ETV
vector 42817  IntersectionExampleScenario.node[4].veinsmobility  speed  ETV
vector 42818  IntersectionExampleScenario.node[4].veinsmobility  acceleration  ETV
vector 42819  IntersectionExampleScenario.node[4].veinsmobility  co2emission  ETV
vector 42822  IntersectionExampleScenario.node[5].veinsmobility  posx  ETV
vector 42823  IntersectionExampleScenario.node[5].veinsmobility  posy  ETV
vector 42824  IntersectionExampleScenario.node[5].veinsmobility  speed  ETV
vector 42825  IntersectionExampleScenario.node[5].veinsmobility  acceleration  ETV
vector 42826  IntersectionExampleScenario.node[5].veinsmobility  co2emission  ETV
vector 42829  IntersectionExampleScenario.node[6].veinsmobility  posx  ETV
vector 42830  IntersectionExampleScenario.node[6].veinsmobility  posy  ETV
vector 42831  IntersectionExampleScenario.node[6].veinsmobility  speed  ETV
vector 42832  IntersectionExampleScenario.node[6].veinsmobility  acceleration  ETV
vector 42833  IntersectionExampleScenario.node[6].veinsmobility  co2emission  ETV
vector 42836  IntersectionExampleScenario.node[7].veinsmobility  posx  ETV
vector 42837  IntersectionExampleScenario.node[7].veinsmobility  posy  ETV
vector 42838  IntersectionExampleScenario.node[7].veinsmobility  speed  ETV
vector 42839  IntersectionExampleScenario.node[7].veinsmobility  acceleration  ETV
vector 42840  IntersectionExampleScenario.node[7].veinsmobility  co2emission  ETV
vector 42843  IntersectionExampleScenario.node[8].veinsmobility  posx  ETV
vector 42844  IntersectionExampleScenario.node[8].veinsmobility  posy  ETV
vector 42845  IntersectionExampleScenario.node[8].veinsmobility  speed  ETV
vector 42846  IntersectionExampleScenario.node[8].veinsmobility  acceleration  ETV
vector 42847  IntersectionExampleScenario.node[8].veinsmobility  co2emission  ETV
vector 42850  IntersectionExampleScenario.node[9].veinsmobility  posx  ETV
vector 42851  IntersectionExampleScenario.node[9].veinsmobility  posy  ETV
vector 42852  IntersectionExampleScenario.node[9].veinsmobility  speed  ETV
vector 42853  IntersectionExampleScenario.node[9].veinsmobility  acceleration  ETV
vector 42854  IntersectionExampleScenario.node[9].veinsmobility  co2emission  ETV
42798	6896 4753 100 1505 11.25 49.25 153 0.973 12.099024792222 504.00768031106 2924.7365212413
42797	11649 4532 100 1505 11.25 49.25 153 -3.1115493774414 2.5 40.038900375366 252.74644425389
42796	16181 4745 95 1505 11 49.25 154 5.6500000953674 16.27499961853 2213.5486803055 32670.811761018
42795	20926 4996 90 1505 10.75 49.25 155 237.8330078125 785.82187652588 80958.905677795 46319315.922311
42794	25922 5016 90 1505 10.75 49.25 155 483.14999389648 483.14999389648 74888.249053955 36182257.073337
42791	30938 5313 27 1516 5.5 49.5 177 0.973 12.099024792222 572.01264310478 3233.8100220884
42790	36251 4928 27 1516 5.5 49.5 177 -6.9979004859924 4 41.227170944214 492.65892816269
42789	41179 5222 24 1516 5.25 49.5 178 0 16.27499961853 2205.6508940458 32465.666131508
42788	46401 5712 21 1516 5 49.5 179 184.17810058594 731.40208435059 80624.036376953 40297294.290254
42787	52113 5741 21 1516 5 49.5 179 486.85000610352 486.85000610352 87146.151092529 42427104.191296
vector 42857  IntersectionExampleScenario.node[10].veinsmobility  posx  ETV
vector 42858  IntersectionExampleScenario.node[10].veinsmobility  posy  ETV
vector 42859  IntersectionExampleScenario.node[10].veinsmobility  speed  ETV
vector 42860  IntersectionExampleScenario.node[10].veinsmobility  acceleration  ETV
vector 42861  IntersectionExampleScenario.node[10].veinsmobility  co2emission  ETV
42819	58255 4810 249 1810 17.5 56 155 0.973 11.58023769895 509.98056394114 2993.0303345859
42818	63065 4590 249 1810 17.5 56 155 -3.3600330352783 2.5 37.32285118103 310.325566344
42817	67655 4759 238 1810 17.25 56 156 5.6500000953674 15.555410385132 2076.1576533318 28866.324713975
42816	72414 5080 227 1810 17 56 157 212.00311279297 483.14999389648 64138.962249756 27574724.02958
42815	77494 5099 227 1810 17 56 157 486.85000610352 734.51072692871 84845.987243652 46786479.912792
42805	82593 5171 209 1901 16.5 57.75 166 0.973 10.916047529558 533.72601829634 2724.3272985206
42804	87764 4992 209 1901 16.5 57.75 166 -4.5 2.5 38.680875778198 286.00048033099
42803	92756 5144 202 1901 16.25 57.75 167 5.6500000953674 15.415004730225 2188.1640095711 30311.020469863
42802	97900 5451 195 1901 16 57.75 168 184.17810058594 483.14999389648 66093.746368408 27894103.024469
42801	103351 5465 195 1901 16 57.75 168 486.85000610352 734.06636047363 89994.932739258 49155901.008714
42812	108816 5272 227 1966 17 59 169 0.973 11.90022389248 546.41876048702 2989.6721737972
42811	114088 5168 227 1966 17 59 169 -4.5 2.5 39.869146347046 279.61473648074
42810	119256 5244 218 1966 16.75 59 170 5.6500000953674 16 2304.8901729584 32593.033255789
42809	124500 5560 209 1966 16.5 59 171 160.43438720703 486.8581237793 65721.679382324 27560708.406658
42808	130060 5558 209 1966 16.5 59 171 236.62200927734 486.85000610352 75025.398040771 33891875.313766
vector 42864  IntersectionExampleScenario.node[11].veinsmobility  posx  ETV
vector 42865  IntersectionExampleScenario.node[11].veinsmobility  posy  ETV
vector 42866  IntersectionExampleScenario.node[11].veinsmobility  speed  ETV
vector 42867  IntersectionExampleScenario.node[11].veinsmobility  acceleration  ETV
vector 42868  IntersectionExampleScenario.node[11].veinsmobility  co2emission  ETV
vector 42871  IntersectionExampleScenario.node[12].veinsmobility  posx  ETV
vector 42872  IntersectionExampleScenario.node[12].veinsmobility  posy  ETV
vector 42873  IntersectionExampleScenario.node[12].veinsmobility  speed  ETV
vector 42874  IntersectionExampleScenario.node[12].veinsmobility  acceleration  ETV
vector 42875  IntersectionExampleScenario.node[12].veinsmobility  co2emission  ETV
vector 42878  IntersectionExampleScenario.node[13].veinsmobility  posx  ETV
vector 42879  IntersectionExampleScenario.node[13].veinsmobility  posy  ETV
vector 42880  IntersectionExampleScenario.node[13].veinsmobility  speed  ETV
vector 42881  IntersectionExampleScenario.node[13].veinsmobility  acceleration  ETV
vector 42882  IntersectionExampleScenario.node[13].veinsmobility  co2emission  ETV
42826	136821 5267 1051 2878 36.5 79 171 0.973 12.80944146078 592.91490116787 3681.2222037016
42825	142088 5009 1051 2878 36.5 79 171 -6.75457239151 4 44.112981796265 518.67372667252
42824	147097 5186 1042 2878 36.25 79 172 0 17.25 2212.9906417131 33796.331564205
42823	152283 5680 1033 2878 36 79 173 237.14331054688 785.82187652588 89984.024803162 50697586.623002
42822	157963 5707 1033 2878 36 79 173 483.14999389648 483.14999389648 83584.948944092 40384067.572176
vector 42885  IntersectionExampleScenario.node[14].veinsmobility  posx  ETV
vector 42886  IntersectionExampleScenario.node[14].veinsmobility  posy  ETV
vector 42887  IntersectionExampleScenario.node[14].veinsmobility  speed  ETV
vector 42888  IntersectionExampleScenario.node[14].veinsmobility  acceleration  ETV
vector 42889  IntersectionExampleScenario.node[14].veinsmobility  co2emission  ETV
vector 42892  IntersectionExampleScenario.node[15].veinsmobility  posx  ETV
vector 42893  IntersectionExampleScenario.node[15].veinsmobility  posy  ETV
vector 42894  IntersectionExampleScenario.node[15].veinsmobility  speed  ETV
vector 42895  IntersectionExampleScenario.node[15].veinsmobility  acceleration  ETV
vector 42896  IntersectionExampleScenario.node[15].veinsmobility  co2emission  ETV
42840	164472 5066 1273 3049 43.25 83.5 162 0.973 11.648172402475 549.26909080461 3373.6860119832
42839	169538 4839 1273 3049 43.25 83.5 162 -3.6602668762207 2.5 38.341367721558 336.70164196723
42838	174377 5090 1265 3049 43 83.5 163 5.6500000953674 15.64999961853 2205.3440647125 30868.910753328
42837	179467 5408 1256 3049 42.75 83.5 164 483.14999389648 785.82187652588 93707.880058289 55320824.461463
42836	184875 5406 1256 3049 42.75 83.5 164 483.14999389648 732.65467834473 87614.626403809 47771024.655145
vector 42899  IntersectionExampleScenario.node[16].veinsmobility  posx  ETV
vector 42900  IntersectionExampleScenario.node[16].veinsmobility  posy  ETV
vector 42901  IntersectionExampleScenario.node[16].veinsmobility  speed  ETV
42854	190513 5085 1395 3194 46.75 86.75 161 0.973 11.648172402475 496.89186067286 2712.5911006788
42853	195598 4862 1395 3194 46.75 86.75 161 -4.5 2.5 38.511121749878 244.30266681276
42852	200460 5064 1384 3194 46.5 86.75 162 5.6500000953674 15.64999961853 2246.7916297913 32101.444669909
42851	205524 5366 1373 3194 46.25 86.75 163 483.14999389648 795.46562957764 93772.314941406 55869578.154741
42850	210890 5375 1373 3194 46.25 86.75 163 483.14999389648 732.97389221191 87130.387969971 47538083.785823
vector 42902  IntersectionExampleScenario.node[16].veinsmobility  acceleration  ETV
vector 42903  IntersectionExampleScenario.node[16].veinsmobility  co2emission  ETV
vector 42906  IntersectionExampleScenario.node[17].veinsmobility  posx  ETV
vector 42907  IntersectionExampleScenario.node[17].veinsmobility  posy  ETV
vector 42908  IntersectionExampleScenario.node[17].veinsmobility  speed  ETV
vector 42909  IntersectionExampleScenario.node[17].veinsmobility  acceleration  ETV
vector 42910  IntersectionExampleScenario.node[17].veinsmobility  co2emission  ETV
42861	216835 4884 1784 3581 55.5 93.75 154 0.973 12.26218747632 524.2469047707 3162.6796337665
42860	221719 4815 1784 3581 55.5 93.75 154 -3.9160861968994 2.5 41.227170944214 309.82720594482
42859	226534 4768 1771 3581 55.25 93.75 155 5.6500000953674 16.5 2176.8537459373 32180.212917411
42858	231302 5142 1758 3581 55 93.75 156 486.84799194336 785.82187652588 89387.734474182 52920658.956059
42857	236444 5143 1758 3581 55 93.75 156 238.51733398438 483.14999389648 67639.540008545 30199588.928967
vector 42913  IntersectionExampleScenario.node[18].veinsmobility  posx  ETV
vector 42914  IntersectionExampleScenario.node[18].veinsmobility  posy  ETV
vector 42915  IntersectionExampleScenario.node[18].veinsmobility  speed  ETV
vector 42916  IntersectionExampleScenario.node[18].veinsmobility  acceleration  ETV
vector 42917  IntersectionExampleScenario.node[18].veinsmobility  co2emission  ETV
42847	241988 6163 1319 3679 44.75 95.5 204 0.973 11.36141391502 578.78154839845 2992.4361565953
42846	248151 5665 1319 3679 44.75 95.5 204 -8.5182418823242 4 36.813589096069 522.15392711278
42845	253816 5960 1310 3679 44.5 95.5 205 0 15.25 2171.5235998631 29887.315911781
42844	259776 6735 1301 3679 44.25 95.5 206 237.89813232422 483.14999389648 91218.538024902 41412859.812738
42843	266511 6769 1301 3679 44.25 95.5 206 184.17810058594 483.36395263672 84955.201843262 36979343.420583
42833	273280 6914 1188 3783 40.5 97.5 229 0.973 10.912573298686 571.92826218185 2502.9076497946
42832	280194 6120 1188 3783 40.5 97.5 229 -20.867294311523 4 34.267293930054 818.44869547911
42831	286314 6743 1179 3783 40.25 97.5 230 0 14.620106697083 2215.2216253281 29466.149750404
42830	293057 7622 1170 3783 40 97.5 231 486.85000610352 486.85000610352 112462.35140991 54752296.470331
42829	300679 7608 1170 3783 40 97.5 231 236.22827148438 785.82187652588 118510.29133606 65196682.376173
vector 42920  IntersectionExampleScenario.node[19].veinsmobility  posx  ETV
vector 42921  IntersectionExampleScenario.node[19].veinsmobility  posy  ETV
vector 42922  IntersectionExampleScenario.node[19].veinsmobility  speed  ETV
vector 42923  IntersectionExampleScenario.node[19].veinsmobility  acceleration  ETV
vector 42924  IntersectionExampleScenario.node[19].veinsmobility  co2emission  ETV
vector 42927  IntersectionExampleScenario.node[20].veinsmobility  posx  ETV
vector 42928  IntersectionExampleScenario.node[20].veinsmobility  posy  ETV
vector 42929  IntersectionExampleScenario.node[20].veinsmobility  speed  ETV
vector 42930  IntersectionExampleScenario.node[20].veinsmobility  acceleration  ETV
vector 42931  IntersectionExampleScenario.node[20].veinsmobility  co2emission  ETV
vector 42934  IntersectionExampleScenario.node[21].veinsmobility  posx  ETV
vector 42935  IntersectionExampleScenario.node[21].veinsmobility  posy  ETV
vector 42936  IntersectionExampleScenario.node[21].veinsmobility  speed  ETV
vector 42937  IntersectionExampleScenario.node[21].veinsmobility  acceleration  ETV
vector 42938  IntersectionExampleScenario.node[21].veinsmobility  co2emission  ETV
vector 42941  IntersectionExampleScenario.node[22].veinsmobility  posx  ETV
vector 42942  IntersectionExampleScenario.node[22].veinsmobility  posy  ETV
vector 42943  IntersectionExampleScenario.node[22].veinsmobility  speed  ETV
vector 42944  IntersectionExampleScenario.node[22].veinsmobility  acceleration  ETV
vector 42945  IntersectionExampleScenario.node[22].veinsmobility  co2emission  ETV
42868	309891 4746 2517 4390 71.25 107.75 147 0.973 12.44402232946 499.7243654806 2999.5099607056
42867	314637 4647 2517 4390 71.25 107.75 147 -3.3653106689453 2.5 42.415441513062 230.88705781737
42866	319284 4664 2508 4390 71 107.75 148 5.6500000953674 16.75 2222.8685665131 34262.2750712
42865	323948 4950 2499 4390 70.75 107.75 149 486.85000610352 486.85000610352 72540.650909424 35316416.338006
42864	328898 4940 2499 4390 70.75 107.75 149 235.60693359375 785.82187652588 77845.001731873 44650702.787951
42875	333838 5154 2557 4654 72.25 112 160 0.973 11.648172402475 508.21148191184 2761.1708352376
42874	338992 4685 2557 4654 72.25 112 160 -3.6355094909668 2.5 38.171613693237 285.84810181242
42873	343677 5042 2546 4654 72 112 161 5.6500000953674 15.64999961853 2183.5746526718 30940.697576954
42872	348719 5365 2535 4654 71.75 112 162 184.17810058594 483.14999389648 64421.505340576 27363212.609523
42871	354084 5387 2535 4654 71.75 112 162 486.85000610352 733.14064025879 87081.973770142 47737613.032613
vector 42948  IntersectionExampleScenario.node[23].veinsmobility  posx  ETV
vector 42949  IntersectionExampleScenario.node[23].veinsmobility  posy  ETV
vector 42950  IntersectionExampleScenario.node[23].veinsmobility  speed  ETV
vector 42951  IntersectionExampleScenario.node[23].veinsmobility  acceleration  ETV
vector 42952  IntersectionExampleScenario.node[23].veinsmobility  co2emission  ETV
vector 42955  IntersectionExampleScenario.node[24].veinsmobility  posx  ETV
vector 42956  IntersectionExampleScenario.node[24].veinsmobility  posy  ETV
vector 42957  IntersectionExampleScenario.node[24].veinsmobility  speed  ETV
vector 42958  IntersectionExampleScenario.node[24].veinsmobility  acceleration  ETV
vector 42959  IntersectionExampleScenario.node[24].veinsmobility  co2emission  ETV
vector 42962  IntersectionExampleScenario.node[25].veinsmobility  posx  ETV
vector 42963  IntersectionExampleScenario.node[25].veinsmobility  posy  ETV
vector 42964  IntersectionExampleScenario.node[25].veinsmobility  speed  ETV
vector 42965  IntersectionExampleScenario.node[25].veinsmobility  acceleration  ETV
vector 42966  IntersectionExampleScenario.node[25].veinsmobility  co2emission  ETV
42889	360674 5283 2954 5204 81.25 121.25 161 0.973 11.093806525473 449.42272911861 2077.8756380115
42888	365957 4721 2954 5204 81.25 121.25 161 -3.1093864440918 2.5 34.77654838562 161.23923372262
42887	370678 5206 2945 5204 81 121.25 162 5.6500000953674 14.875 2210.9392957687 30635.335301716
42886	375884 5427 2936 5204 80.75 121.25 163 184.17810058594 732.08380126953 73211.543777466 37184390.534535
42885	381311 5465 2936 5204 80.75 121.25 163 486.85000610352 486.85000610352 79356.550994873 38634737.336208
42896	386776 5222 2994 5255 82.25 122 160 0.973 11.450879080643 483.55874724144 2498.9327372035
42895	391998 4739 2994 5255 82.25 122 160 -3.2029113769531 2.5 36.98334312439 225.31289334086
42894	396737 5116 2983 5255 82 122 161 5.6500000953674 15.375 2213.4105415344 31255.671254689
42893	401853 5426 2972 5255 81.75 122 162 483.11968994141 785.82187652588 92608.073554993 54738492.660881
42892	407279 5429 2972 5255 81.75 122 162 483.14999389648 734.82073974609 86966.614944458 47679136.209281
42882	412708 6163 2682 5454 75 125 201 0.973 11.648172402475 569.05548718612 2844.8645292023
42881	418871 5751 2682 5454 75 125 201 -7.4922709465027 4 38.171613693237 475.47622785518
42880	424622 5995 2669 5454 74.75 125 202 0 15.64999961853 2180.755663991 30717.13685904
42879	430617 6783 2656 5454 74.5 125 203 483.14999389648 732.80871582031 106484.70800781 56907732.001343
42878	437400 6770 2656 5454 74.5 125 203 184.17810058594 486.85000610352 83962.420257568 36682316.028984
vector 42969  IntersectionExampleScenario.node[26].veinsmobility  posx  ETV
vector 42970  IntersectionExampleScenario.node[26].veinsmobility  posy  ETV
vector 42971  IntersectionExampleScenario.node[26].veinsmobility  speed  ETV
vector 42972  IntersectionExampleScenario.node[26].veinsmobility  acceleration  ETV
vector 42973  IntersectionExampleScenario.node[26].veinsmobility  co2emission  ETV
42910	444571 5460 3380 5761 90.25 131.75 167 0.973 10.934011540186 495.26923341883 2541.5358190325
42909	450031 5136 3380 5761 90.25 131.75 167 -3.4124488830566 2.5 34.606801986694 268.37163812406
42908	455167 5361 3365 5761 90 131.75 168 5.6500000953674 14.650297164917 2180.9802532196 29361.019087294
42907	460528 5696 3350 5761 89.75 131.75 169 237.35382080078 483.14999389648 72994.388244629 32500322.979949
42906	466224 5676 3350 5761 89.75 131.75 169 184.17810058594 483.14999389648 67226.851135254 28543102.348191
42917	471900 5089 3650 5824 95 133.5 155 0.973 11.90022389248 503.53794957282 2703.0954036035
42916	476989 4965 3650 5824 95 133.5 155 -3.5043678283691 2.5 39.869146347046 243.60587893319
42915	481954 4978 3635 5824 94.75 133.5 156 5.6500000953674 16 2209.1311006546 32293.566080328
42914	486932 5312 3620 5824 94.5 133.5 157 483.14999389648 733.47021484375 84086.800888062 45976030.163797
42913	492244 5289 3620 5824 94.5 133.5 157 184.17810058594 486.85000610352 62367.892730713 26544928.722518
42903	497533 6587 3207 6067 87 140.25 214 0.973 11.450879080643 590.50963575214 2805.515328093
42902	504120 5810 3207 6067 87 140.25 214 -8.2467041015625 4 38.680875778198 547.33651940475
42901	509930 6285 3194 6067 86.75 140.25 215 0 15.375 2204.9160804749 31427.669511378
42900	516215 7261 3181 6067 86.5 140.25 216 184.17810058594 486.85000610352 90103.788574219 39595856.685757
42899	523476 7285 3181 6067 86.5 140.25 216 236.21789550781 486.85000610352 96756.643310547 44418001.067413
42931	530761 5357 4063 6144 102.5 142.75 162 0.973 11.200708441096 499.66312864131 2584.8887602584
42930	536118 4789 4063 6144 102.5 142.75 162 -3.3004913330078 2.5 37.32285118103 265.02963761209
42929	540907 5237 4046 6144 102.25 142.75 163 5.6500000953674 15.151455879211 2188.6559839249 30655.078967578
42928	546144 5571 4029 6144 102 142.75 164 486.85000610352 785.82187652588 93829.984306335 55446306.46161
42927	551715 5546 4029 6144 102 142.75 164 235.49322509766 483.14999389648 70824.248016357 31538901.10301
42924	557261 5373 3969 6150 101 143 169 0.96333723109819 12.099024792222 560.0194887208 3345.6287067256
42923	562634 5181 3969 6150 101 143 169 -2.9694004058838 2.5000019073486 40.208654403687 349.72516086428
42922	567815 5458 3954 6150 100.75 143 170 5.6500000953674 16.27499961853 2179.1270103455 30069.504367569
42921	573273 5783 3939 6150 100.5 143 171 184.17810058594 483.14999389648 68316.074523926 29021042.997684
42920	579056 5807 3939 6150 100.5 143 171 486.85000610352 731.43145751953 91098.946258545 49446616.592343
vector 42976  IntersectionExampleScenario.node[27].veinsmobility  posx  ETV
vector 42977  IntersectionExampleScenario.node[27].veinsmobility  posy  ETV
vector 42978  IntersectionExampleScenario.node[27].veinsmobility  speed  ETV
vector 42979  IntersectionExampleScenario.node[27].veinsmobility  acceleration  ETV
vector 42980  IntersectionExampleScenario.node[27].veinsmobility  co2emission  ETV
42938	585264 5065 4341 6226 107 146 157 0.973 11.70204221543 521.794166617 3234.1810851458
42937	590329 4886 4341 6226 107 146 157 -4.2833404541016 2.5 38.001859664917 286.82257319498
42936	595215 5121 4326 6226 106.75 146 158 5.6500000953674 15.724928855896 2217.1329231262 31779.960989191
42935	600336 5372 4311 6226 106.5 146 159 184.17810058594 733.47444152832 71179.344116211 36040376.592981
42934	605708 5405 4311 6226 106.5 146 159 486.85000610352 486.85000610352 77409.150970459 37686645.622436
42945	611113 5066 4390 6233 107.75 146.25 155 0.973 11.90022389248 506.80461599404 2793.9320976092
42944	616179 4938 4390 6233 107.75 146.25 155 -3.3343658447266 2.5 40.038900375366 244.53668359254
42943	621117 5010 4373 6233 107.5 146.25 156 5.6500000953674 16 2214.984331131 32496.318427281
42942	626127 5324 4356 6233 107.25 146.25 157 483.14999389648 785.82187652588 89804.119483948 53130074.949748
42941	631451 5336 4356 6233 107.25 146.25 157 483.14999389648 734.70306396484 84147.731918335 46051536.014064
vector 42983  IntersectionExampleScenario.node[28].veinsmobility  posx  ETV
vector 42984  IntersectionExampleScenario.node[28].veinsmobility  posy  ETV
vector 42985  IntersectionExampleScenario.node[28].veinsmobility  speed  ETV
vector 42986  IntersectionExampleScenario.node[28].veinsmobility  acceleration  ETV
vector 42987  IntersectionExampleScenario.node[28].veinsmobility  co2emission  ETV
42959	637188 5198 5013 6543 118.25 157.25 157 0.973 11.648172402475 491.52726649725 2636.9338880946
42958	642386 4727 5013 6543 118.25 157.25 157 -3.3749542236328 2.5 38.511121749878 234.68497122889
42957	647113 5084 4998 6543 118 157.25 158 5.6500000953674 15.64999961853 2208.4046268463 31807.746694608
42956	652197 5398 4983 6543 117.75 157.25 159 483.14999389648 733.16246032715 85210.921936035 46620197.334619
42955	657595 5386 4983 6543 117.75 157.25 159 184.17810058594 486.85000610352 63312.023651123 26984298.110733
42966	662981 5088 5153 6573 120.5 158.75 154 0.96333723109819 12.099024792222 504.50358273717 2905.2200946772
42965	668069 4756 5153 6573 120.5 158.75 154 -3.3863945007324 2.5 40.208654403687 255.11563059266
42964	672825 4976 5136 6573 120.25 158.75 155 5.6500000953674 16.27499961853 2213.2808122635 32664.459641469
42963	677801 5299 5119 6573 120 158.75 156 235.56195068359 486.85000610352 67694.631378174 30319413.8676
42962	683100 5282 5119 6573 120 158.75 156 483.14813232422 785.82187652588 89216.361106873 52772447.519979
vector 42990  IntersectionExampleScenario.node[29].veinsmobility  posx  ETV
vector 42991  IntersectionExampleScenario.node[29].veinsmobility  posy  ETV
vector 42992  IntersectionExampleScenario.node[29].veinsmobility  speed  ETV
vector 42993  IntersectionExampleScenario.node[29].veinsmobility  acceleration  ETV
vector 42994  IntersectionExampleScenario.node[29].veinsmobility  co2emission  ETV
42952	688783 6668 4924 6790 116.75 170.25 215 0.973 11.648172402475 591.7644643295 2987.7126237913
42951	695451 5858 4924 6790 116.75 170.25 215 -24.941368103027 4 38.341367721558 1044.2594272136
42950	701309 6343 4909 6790 116.5 170.25 216 0 15.64999961853 2212.6598558426 31770.881747124
42949	707652 7348 4894 6790 116.25 170.25 217 184.17810058594 733.41819763184 98775.147232056 49127106.768044
42948	715000 7379 4894 6790 116.25 170.25 217 486.85000610352 486.85000610352 105646.45132446 51433975.472129
42973	722379 5259 5725 6825 130.75 172 166 0.973 12.553400930962 568.53153818672 3578.616320237
42972	727638 5106 5725 6825 130.75 172 166 -2.5280876159668 2.5000019073486 42.585195541382 336.60355432213
42971	732744 5362 5716 6825 130.5 172 167 5.4885692596436 16.89999961853 2212.9353871346 31562.627949164
42970	738106 5682 5706 6825 130.25 172 168 184.17810058594 486.85504150391 67315.391815186 28710766.13311
42969	743788 5703 5706 6825 130.25 172 168 236.04473876953 486.85000610352 73849.862457275 33412058.788557
vector 42997  IntersectionExampleScenario.node[30].veinsmobility  posx  ETV
vector 42998  IntersectionExampleScenario.node[30].veinsmobility  posy  ETV
vector 42999  IntersectionExampleScenario.node[30].veinsmobility  speed  ETV
vector 43000  IntersectionExampleScenario.node[30].veinsmobility  acceleration  ETV
vector 43001  IntersectionExampleScenario.node[30].veinsmobility  co2emission  ETV
42980	749892 5217 6184 7160 144.5 184 159 0.973 11.810082123732 510.17914445071 2860.4367137133
42979	755109 4897 6184 7160 144.5 184 159 -3.4376411437988 2.5 38.850629806519 284.11405441791
42978	760006 5121 6177 7160 144.25 184 160 5.6500000953674 15.875 2192.1819295883 31419.820930094
42977	765127 5444 6170 7160 144 184 161 184.17810058594 483.14999389648 64029.702514648 27203817.82146
42976	770571 5464 6170 7160 144 184 161 486.85000610352 735.1961517334 86629.537811279 47552301.009509
vector 43004  IntersectionExampleScenario.node[31].veinsmobility  posx  ETV
vector 43005  IntersectionExampleScenario.node[31].veinsmobility  posy  ETV
vector 43006  IntersectionExampleScenario.node[31].veinsmobility  speed  ETV
vector 43007  IntersectionExampleScenario.node[31].veinsmobility  acceleration  ETV
vector 43008  IntersectionExampleScenario.node[31].veinsmobility  co2emission  ETV
vector 43011  IntersectionExampleScenario.node[32].veinsmobility  posx  ETV
vector 43012  IntersectionExampleScenario.node[32].veinsmobility  posy  ETV
vector 43013  IntersectionExampleScenario.node[32].veinsmobility  speed  ETV
vector 43014  IntersectionExampleScenario.node[32].veinsmobility  acceleration  ETV
vector 43015  IntersectionExampleScenario.node[32].veinsmobility  co2emission  ETV
vector 43018  IntersectionExampleScenario.node[33].veinsmobility  posx  ETV
vector 43019  IntersectionExampleScenario.node[33].veinsmobility  posy  ETV
vector 43020  IntersectionExampleScenario.node[33].veinsmobility  speed  ETV
vector 43021  IntersectionExampleScenario.node[33].veinsmobility  acceleration  ETV
vector 43022  IntersectionExampleScenario.node[33].veinsmobility  co2emission  ETV
42987	777238 5923 6454 7578 154 200.25 186 0.973 11.648172402475 557.68103366575 2937.4717104498
42986	783161 5675 6454 7578 154 200.25 186 -9.0869855880737 4 38.341367721558 510.987749326
42985	788836 5786 6445 7578 153.75 200.25 187 0 15.64999961853 2198.9368863106 31147.673471221
42984	794622 6384 6436 7578 153.5 200.25 188 483.14999389648 785.82187652588 105423.18210602 61019871.72744
42983	801006 6388 6436 7578 153.5 200.25 188 483.14999389648 732.70495605469 99207.147644043 53370869.463207
42994	807394 5222 6775 7823 169.5 209 159 0.97223939240464 11.810082123732 507.90446564047 2852.4636117653
42993	812616 4902 6775 7823 169.5 209 159 -3.3224430084229 2.5 38.680875778198 281.07750478256
42992	817518 5102 6770 7823 169.25 209 160 5.6500000953674 15.875 2180.3963141441 31117.975677723
42991	822620 5468 6765 7823 169 209 161 486.73587036133 785.82187652588 92162.609840393 54496323.186597
42990	828088 5468 6765 7823 169 209 161 237.83447265625 483.14999389648 69706.979278564 31091660.187102
43001	833556 5566 6844 7998 172.75 215.25 171 0.973 11.648172402475 542.94116147086 2907.4233759088
43000	839122 5197 6844 7998 172.75 215.25 171 -7.03919506073 4 38.341367721558 478.13103295482
42999	844319 5504 6837 7998 172.5 215.25 172 0 15.64999961853 2200.0624997616 31109.684844129
42998	849823 5881 6830 7998 172.25 215.25 173 237.29504394531 486.85000610352 75850.102325439 34242859.129691
42997	855704 5878 6830 7998 172.25 215.25 173 483.14999389648 785.82187652588 97958.036216736 57305537.70511
vector 43025  IntersectionExampleScenario.node[34].veinsmobility  posx  ETV
vector 43026  IntersectionExampleScenario.node[34].veinsmobility  posy  ETV
vector 43027  IntersectionExampleScenario.node[34].veinsmobility  speed  ETV
vector 43028  IntersectionExampleScenario.node[34].veinsmobility  acceleration  ETV
vector 43029  IntersectionExampleScenario.node[34].veinsmobility  co2emission  ETV
vector 43032  IntersectionExampleScenario.node[35].veinsmobility  posx  ETV
vector 43033  IntersectionExampleScenario.node[35].veinsmobility  posy  ETV
vector 43034  IntersectionExampleScenario.node[35].veinsmobility  speed  ETV
vector 43039  IntersectionExampleScenario.node[36].veinsmobility  posx  ETV
vector 43040  IntersectionExampleScenario.node[36].veinsmobility  posy  ETV
vector 43035  IntersectionExampleScenario.node[35].veinsmobility  acceleration  ETV
vector 43036  IntersectionExampleScenario.node[35].veinsmobility  co2emission  ETV
vector 43046  IntersectionExampleScenario.node[37].veinsmobility  posx  ETV
vector 43047  IntersectionExampleScenario.node[37].veinsmobility  posy  ETV
vector 43041  IntersectionExampleScenario.node[36].veinsmobility  speed  ETV
vector 43042  IntersectionExampleScenario.node[36].veinsmobility  acceleration  ETV
vector 43043  IntersectionExampleScenario.node[36].veinsmobility  co2emission  ETV
vector 43048  IntersectionExampleScenario.node[37].veinsmobility  speed  ETV
vector 43049  IntersectionExampleScenario.node[37].veinsmobility  acceleration  ETV
vector 43050  IntersectionExampleScenario.node[37].veinsmobility  co2emission  ETV
vector 43053  IntersectionExampleScenario.node[38].veinsmobility  posx  ETV
vector 43054  IntersectionExampleScenario.node[38].veinsmobility  posy  ETV
vector 43055  IntersectionExampleScenario.node[38].veinsmobility  speed  ETV
vector 43060  IntersectionExampleScenario.node[39].veinsmobility  posx  ETV
vector 43061  IntersectionExampleScenario.node[39].veinsmobility  posy  ETV
vector 43056  IntersectionExampleScenario.node[38].veinsmobility  acceleration  ETV
vector 43057  IntersectionExampleScenario.node[38].veinsmobility  co2emission  ETV
vector 43067  IntersectionExampleScenario.node[40].veinsmobility  posx  ETV
vector 43068  IntersectionExampleScenario.node[40].veinsmobility  posy  ETV
vector 43062  IntersectionExampleScenario.node[39].veinsmobility  speed  ETV
vector 43063  IntersectionExampleScenario.node[39].veinsmobility  acceleration  ETV
vector 43064  IntersectionExampleScenario.node[39].veinsmobility  co2emission  ETV
vector 43069  IntersectionExampleScenario.node[40].veinsmobility  speed  ETV
vector 43070  IntersectionExampleScenario.node[40].veinsmobility  acceleration  ETV
vector 43071  IntersectionExampleScenario.node[40].veinsmobility  co2emission  ETV
vector 43074  IntersectionExampleScenario.node[41].veinsmobility  posx  ETV
vector 43075  IntersectionExampleScenario.node[41].veinsmobility  posy  ETV
vector 43081  IntersectionExampleScenario.node[42].veinsmobility  posx  ETV
vector 43082  IntersectionExampleScenario.node[42].veinsmobility  posy  ETV
vector 43088  IntersectionExampleScenario.node[43].veinsmobility  posx  ETV
vector 43089  IntersectionExampleScenario.node[43].veinsmobility  posy  ETV
vector 43076  IntersectionExampleScenario.node[41].veinsmobility  speed  ETV
vector 43083  IntersectionExampleScenario.node[42].veinsmobility  speed  ETV
vector 43077  IntersectionExampleScenario.node[41].veinsmobility  acceleration  ETV
vector 43078  IntersectionExampleScenario.node[41].veinsmobility  co2emission  ETV
vector 43084  IntersectionExampleScenario.node[42].veinsmobility  acceleration  ETV
vector 43085  IntersectionExampleScenario.node[42].veinsmobility  co2emission  ETV
vector 43090  IntersectionExampleScenario.node[43].veinsmobility  speed  ETV
vector 43091  IntersectionExampleScenario.node[43].veinsmobility  acceleration  ETV
vector 43092  IntersectionExampleScenario.node[43].veinsmobility  co2emission  ETV
vector 43095  IntersectionExampleScenario.node[44].veinsmobility  posx  ETV
vector 43096  IntersectionExampleScenario.node[44].veinsmobility  posy  ETV
vector 43097  IntersectionExampleScenario.node[44].veinsmobility  speed  ETV
vector 43098  IntersectionExampleScenario.node[44].veinsmobility  acceleration  ETV
vector 43099  IntersectionExampleScenario.node[44].veinsmobility  co2emission  ETV
vector 43102  IntersectionExampleScenario.node[45].veinsmobility  posx  ETV
vector 43103  IntersectionExampleScenario.node[45].veinsmobility  posy  ETV
vector 43104  IntersectionExampleScenario.node[45].veinsmobility  speed  ETV
vector 43105  IntersectionExampleScenario.node[45].veinsmobility  acceleration  ETV
vector 43106  IntersectionExampleScenario.node[45].veinsmobility  co2emission  ETV
vector 43109  IntersectionExampleScenario.node[46].veinsmobility  posx  ETV
vector 43110  IntersectionExampleScenario.node[46].veinsmobility  posy  ETV
43008	866548 6827 7292 10277 190.25 245.25 221 0.973 11.450879080643 586.5511946984 2835.356048135
43007	873375 5963 7292 10277 190.25 245.25 221 -35.6291847229 4 37.32285118103 1607.1175527435
43006	879338 6448 7285 10277 190 245.25 222 0 15.375 2186.6520557404 30907.791356798
43005	885786 7593 7278 10277 189.75 245.25 223 483.14999389648 734.27958679199 116350.64875793 61816251.310798
43004	893379 7565 7278 10277 189.75 245.25 223 184.17810058594 486.85000610352 93321.923400879 41085426.342205
vector 43111  IntersectionExampleScenario.node[46].veinsmobility  speed  ETV
vector 43112  IntersectionExampleScenario.node[46].veinsmobility  acceleration  ETV
vector 43113  IntersectionExampleScenario.node[46].veinsmobility  co2emission  ETV
43015	901191 6505 7420 10430 195.5 247 207 0.973 11.200708441096 550.53169260686 2656.1705920618
43014	907696 6651 7420 10430 195.5 247 207 -3.6945762634277 2.5 35.964826583862 334.50459784943
43013	914347 6952 7413 10430 195.25 247 208 0 15.02499961853 2221.1579343975 29199.523454194
43012	921299 7124 7406 10430 195 247 209 483.14999389648 483.14999389648 100978.34872437 48787688.569854
43011	928423 7075 7406 10430 195 247 209 184.17810058594 734.9161529541 94369.008712769 46916161.264616
43022	935498 6574 7459 10535 196.75 248.25 207 0.973 11.200708441096 598.12330900497 2877.1386739676
43021	942072 6711 7459 10535 196.75 248.25 207 -4.5 2.5 39.983594894409 433.60935732474
43020	948783 6918 7450 10535 196.5 248.25 208 1.3334903717041 15.743265151978 2302.85544765 31453.083842292
43019	955701 7132 7441 10535 196.25 248.25 209 483.14999389648 483.14999389648 100978.34872437 48787688.569854
43018	962833 7093 7441 10535 196.25 248.25 209 162.90466308594 733.86672973633 91849.528442383 44953992.654878
vector 43116  IntersectionExampleScenario.node[47].veinsmobility  posx  ETV
vector 43117  IntersectionExampleScenario.node[47].veinsmobility  posy  ETV
vector 43123  IntersectionExampleScenario.node[48].veinsmobility  posx  ETV
vector 43124  IntersectionExampleScenario.node[48].veinsmobility  posy  ETV
vector 43118  IntersectionExampleScenario.node[47].veinsmobility  speed  ETV
vector 43119  IntersectionExampleScenario.node[47].veinsmobility  acceleration  ETV
vector 43120  IntersectionExampleScenario.node[47].veinsmobility  co2emission  ETV
vector 43125  IntersectionExampleScenario.node[48].veinsmobility  speed  ETV
vector 43126  IntersectionExampleScenario.node[48].veinsmobility  acceleration  ETV
vector 43127  IntersectionExampleScenario.node[48].veinsmobility  co2emission  ETV
vector 43130  IntersectionExampleScenario.node[49].veinsmobility  posx  ETV
vector 43131  IntersectionExampleScenario.node[49].veinsmobility  posy  ETV
vector 43132  IntersectionExampleScenario.node[49].veinsmobility  speed  ETV
vector 43133  IntersectionExampleScenario.node[49].veinsmobility  acceleration  ETV
vector 43134  IntersectionExampleScenario.node[49].veinsmobility  co2emission  ETV
43029	971129 5463 8030 11160 216.25 256.75 163 0.973 11.200708441096 474.15464992028 2360.3789174587
43028	976592 4944 8030 11160 216.25 256.75 163 -3.280574798584 2.5 35.455564498901 212.27776188622
43027	981536 5361 8021 11160 216 256.75 164 5.6500000953674 15.02499961853 2209.5037498474 30505.908078386
43026	986897 5665 8012 11160 215.75 256.75 165 483.14999389648 733.75379943848 88565.536148071 48542761.980079
43025	992562 5639 8012 11160 215.75 256.75 165 184.17810058594 486.85000610352 65775.874053955 28041905.783439
vector 43137  IntersectionExampleScenario.node[50].veinsmobility  posx  ETV
vector 43138  IntersectionExampleScenario.node[50].veinsmobility  posy  ETV
vector 43139  IntersectionExampleScenario.node[50].veinsmobility  speed  ETV
vector 43140  IntersectionExampleScenario.node[50].veinsmobility  acceleration  ETV
vector 43141  IntersectionExampleScenario.node[50].veinsmobility  co2emission  ETV
vector 43144  IntersectionExampleScenario.node[51].veinsmobility  posx  ETV
vector 43145  IntersectionExampleScenario.node[51].veinsmobility  posy  ETV
vector 43146  IntersectionExampleScenario.node[51].veinsmobility  speed  ETV
vector 43147  IntersectionExampleScenario.node[51].veinsmobility  acceleration  ETV
vector 43148  IntersectionExampleScenario.node[51].veinsmobility  co2emission  ETV
43043	999003 5253 8278 11560 222.75 261.75 157 0.973 11.810082123732 517.90373363261 2909.6983444426
43042	1004256 4754 8278 11560 222.75 261.75 157 -3.4855461120605 2.5 39.869146347046 293.68389170006
43041	1009010 5124 8263 11560 222.5 261.75 158 5.6500000953674 15.875 2178.8975801468 31535.456910742
43040	1014134 5466 8250 11560 222.25 261.75 159 184.17810058594 483.22613525391 63178.218811035 26827983.404558
43039	1019600 5482 8250 11560 222.25 261.75 159 486.85000610352 731.64483642578 85318.398162842 46672546.724767
43050	1025082 5182 8293 11560 223 261.75 156 0.973 12.099024792222 520.90311871576 3032.0700984992
43049	1030264 4900 8293 11560 223 261.75 156 -3.6961898803711 2.5 40.038900375366 310.46888821459
43048	1035164 5091 8278 11560 222.75 261.75 157 5.6500000953674 16.27499961853 2177.5958824158 31694.17134625
43047	1040255 5433 8263 11560 222.5 261.75 158 486.81774902344 785.82187652588 90494.360572815 53545657.529832
43046	1045688 5448 8263 11560 222.5 261.75 158 238.46368408203 483.14999389648 68458.442016602 30548373.310913
43071	1051136 5225 8433 11713 225 264 157 0.973 11.810082123732 550.95886269816 3086.7941579054
43070	1056361 5076 8433 11713 225 264 157 -4.5 2.5 43.943227767944 311.57268768061
43069	1061437 5129 8412 11713 224.75 264 158 5.6500000953674 16.696147918701 2257.356405735 34113.29377752
43068	1066566 5473 8391 11713 224.5 264 159 167.29217529297 483.15911865234 62131.382141113 26222094.106081
43067	1072039 5487 8391 11713 224.5 264 159 486.85000610352 733.93139648438 85020.743026733 46341731.684848
vector 43151  IntersectionExampleScenario.node[52].veinsmobility  posx  ETV
vector 43152  IntersectionExampleScenario.node[52].veinsmobility  posy  ETV
vector 43153  IntersectionExampleScenario.node[52].veinsmobility  speed  ETV
vector 43154  IntersectionExampleScenario.node[52].veinsmobility  acceleration  ETV
vector 43155  IntersectionExampleScenario.node[52].veinsmobility  co2emission  ETV
43092	1077927 5115 8680 11846 227.75 266 154 0.973 12.099024792222 509.7815827883 2893.913985479
43091	1083042 5252 8680 11846 227.75 266 154 -3.2525596618652 2.5 40.378400802612 249.60918053499
43090	1088294 5313 8653 11846 227.5 266 155 5.6500000953674 16.27499961853 2206.3217144012 32512.78582247
43089	1093607 5383 8626 11846 227.25 266 156 483.04876708984 785.82187652588 89208.083427429 52762034.933131
43088	1098990 5393 8626 11846 227.25 266 156 483.14999389648 732.93542480469 83519.557067871 45642537.964431
vector 43158  IntersectionExampleScenario.node[53].veinsmobility  posx  ETV
vector 43159  IntersectionExampleScenario.node[53].veinsmobility  posy  ETV
vector 43160  IntersectionExampleScenario.node[53].veinsmobility  speed  ETV
vector 43161  IntersectionExampleScenario.node[53].veinsmobility  acceleration  ETV
vector 43162  IntersectionExampleScenario.node[53].veinsmobility  co2emission  ETV
43085	1104784 5572 8653 12039 227.5 269 167 0.973 11.648172402475 516.15488483979 2782.1710666027
43084	1110356 5470 8653 12039 227.5 269 167 -3.5693092346191 2.5 38.001859664917 273.86291388737
43083	1115826 5508 8626 12039 227.25 269 168 5.6500000953674 15.64999961853 2289.4769611359 32507.953043872
43082	1121334 5834 8601 12039 227 269 169 160.14141845703 483.32272338867 65653.415161133 27635385.382711
43081	1127168 5844 8601 12039 227 269 169 486.85000610352 735.42736816406 90653.892486572 49597384.549243
43064	1133012 6414 8412 12400 224.75 275 202 0.973 11.810082123732 581.60549147058 3057.7545790216
43063	1139426 5922 8412 12400 224.75 275 202 -7.2641291618347 4 39.699392318726 483.2908312258
43062	1145348 6192 8391 12400 224.5 275 203 0 15.875 2180.8750771284 31208.168482518
43061	1151540 6999 8372 12400 224.25 275 204 486.85000610352 733.87629699707 107380.26205444 57526443.817642
43060	1158539 7063 8372 12400 224.25 275 204 486.63604736328 785.82187652588 113525.93021393 65092854.167088
43036	1165602 6733 8250 12415 222.25 275.25 213 0.973 11.36141391502 583.84434354874 2855.7319694051
43035	1172335 5987 8250 12415 222.25 275.25 213 -8.6925048828125 4 38.341367721558 540.16699970376
43034	1178322 6415 8239 12415 222 275.25 214 0 15.45093536377 2176.8042578697 30775.955439547
43033	1184737 7378 8228 12415 221.75 275.25 215 236.95220947266 483.14999389648 95695.50100708 43620659.905533
43032	1192115 7420 8228 12415 221.75 275.25 215 184.17810058594 483.36395263672 89410.869598389 39148056.281575
43057	1199535 7175 8372 12595 224.25 278.25 217 0.973 11.36141391502 579.70997765772 2784.6375967142
43056	1206710 7029 8372 12595 224.25 278.25 217 -4.5 2.5000009536743 36.98334312439 415.87513903284
43055	1213739 7305 8355 12595 224 278.25 218 0 15.25 2253.574821841 30682.545317165
43054	1221044 7587 8338 12595 223.75 278.25 219 237.44927978516 483.14999389648 97493.840454102 44445705.838692
43053	1228631 7552 8338 12595 223.75 278.25 219 166.078125 483.14999389648 89150.040466309 38542824.985613
vector 43165  IntersectionExampleScenario.node[54].veinsmobility  posx  ETV
vector 43166  IntersectionExampleScenario.node[54].veinsmobility  posy  ETV
43078	1236337 6745 8653 12655 227.5 279.25 208 0.973 10.916047529558 540.05505446662 2485.1481868698
43077	1243082 6753 8653 12655 227.5 279.25 208 -3.8415403366089 2.5 34.267293930054 329.34881653833
43076	1249835 6980 8626 12655 227.25 279.25 209 0 14.625 2245.1134659126 29003.18570099
43075	1256815 7280 8601 12655 227 279.25 210 486.85000610352 734.66618347168 111083.20550537 59846286.532243
43074	1264095 7276 8601 12655 227 279.25 210 486.82302856445 800.04531860352 118865.77849579 69454888.041717
vector 43172  IntersectionExampleScenario.node[55].veinsmobility  posx  ETV
vector 43173  IntersectionExampleScenario.node[55].veinsmobility  posy  ETV
vector 43167  IntersectionExampleScenario.node[54].veinsmobility  speed  ETV
vector 43168  IntersectionExampleScenario.node[54].veinsmobility  acceleration  ETV
vector 43169  IntersectionExampleScenario.node[54].veinsmobility  co2emission  ETV
vector 43174  IntersectionExampleScenario.node[55].veinsmobility  speed  ETV
vector 43175  IntersectionExampleScenario.node[55].veinsmobility  acceleration  ETV
vector 43176  IntersectionExampleScenario.node[55].veinsmobility  co2emission  ETV
vector 43179  IntersectionExampleScenario.node[56].veinsmobility  posx  ETV
vector 43180  IntersectionExampleScenario.node[56].veinsmobility  posy  ETV
43099	1272173 5803 9488 12767 236.5 280.75 178 0.973 11.648172402475 543.03085726823 2904.1577682749
43098	1277976 5619 9488 12767 236.5 280.75 178 -4.2361946105957 2.5 38.171613693237 309.04597623463
43097	1283595 5926 9465 12767 236.25 280.75 179 5.6500000953674 15.64999961853 2181.0437579155 28746.410422626
43096	1289521 6269 9442 12767 236 280.75 180 486.85000610352 732.47300720215 95810.213912964 51959573.572453
43095	1295790 6259 9442 12767 236 280.75 180 486.85000610352 785.82187652588 102511.21608734 60149890.303472
vector 43181  IntersectionExampleScenario.node[56].veinsmobility  speed  ETV
vector 43182  IntersectionExampleScenario.node[56].veinsmobility  acceleration  ETV
vector 43183  IntersectionExampleScenario.node[56].veinsmobility  co2emission  ETV
43106	1302296 5366 10024 12956 242.5 283 163 0.973 11.450879080643 523.02617636003 3113.2642184789
43105	1307662 5242 10024 12956 242.5 283 163 -3.5620918273926 2.5 36.98334312439 289.03498410745
43104	1312904 5453 10001 12956 242.25 283 164 5.6500000953674 15.375 2213.0914621353 30669.188453936
43103	1318357 5769 9978 12956 242 283 165 235.45471191406 486.85000610352 71653.317382812 32114868.326916
43102	1324126 5760 9978 12956 242 283 165 482.93368530273 785.82187652588 94323.319694519 55721665.539288
43113	1329886 5419 10325 13187 245.75 285.75 161 0.973 11.450879080643 490.7796472391 2644.302218576
43112	1335305 5214 10325 13187 245.75 285.75 161 -3.7477951049805 2.5 36.813589096069 242.51038156794
43111	1340519 5381 10302 13187 245.5 285.75 162 5.6500000953674 15.375 2217.1099157333 31161.249048802
43110	1345900 5674 10277 13187 245.25 285.75 163 483.14999389648 735.46165466309 87520.392837524 47996092.855808
43109	1351574 5683 10277 13187 245.25 285.75 163 184.17810058594 486.85000610352 64978.423126221 27707725.005669
vector 43186  IntersectionExampleScenario.node[57].veinsmobility  posx  ETV
vector 43187  IntersectionExampleScenario.node[57].veinsmobility  posy  ETV
vector 43188  IntersectionExampleScenario.node[57].veinsmobility  speed  ETV
vector 43189  IntersectionExampleScenario.node[57].veinsmobility  acceleration  ETV
vector 43190  IntersectionExampleScenario.node[57].veinsmobility  co2emission  ETV
vector 43193  IntersectionExampleScenario.node[58].veinsmobility  posx  ETV
vector 43194  IntersectionExampleScenario.node[58].veinsmobility  posy  ETV
vector 43195  IntersectionExampleScenario.node[58].veinsmobility  speed  ETV
vector 43196  IntersectionExampleScenario.node[58].veinsmobility  acceleration  ETV
vector 43197  IntersectionExampleScenario.node[58].veinsmobility  co2emission  ETV
vector 43200  IntersectionExampleScenario.node[59].veinsmobility  posx  ETV
vector 43201  IntersectionExampleScenario.node[59].veinsmobility  posy  ETV
vector 43207  IntersectionExampleScenario.node[60].veinsmobility  posx  ETV
vector 43208  IntersectionExampleScenario.node[60].veinsmobility  posy  ETV
vector 43202  IntersectionExampleScenario.node[59].veinsmobility  speed  ETV
vector 43203  IntersectionExampleScenario.node[59].veinsmobility  acceleration  ETV
vector 43204  IntersectionExampleScenario.node[59].veinsmobility  co2emission  ETV
vector 43209  IntersectionExampleScenario.node[60].veinsmobility  speed  ETV
vector 43210  IntersectionExampleScenario.node[60].veinsmobility  acceleration  ETV
vector 43211  IntersectionExampleScenario.node[60].veinsmobility  co2emission  ETV
vector 43214  IntersectionExampleScenario.node[61].veinsmobility  posx  ETV
vector 43215  IntersectionExampleScenario.node[61].veinsmobility  posy  ETV
vector 43216  IntersectionExampleScenario.node[61].veinsmobility  speed  ETV
vector 43217  IntersectionExampleScenario.node[61].veinsmobility  acceleration  ETV
vector 43218  IntersectionExampleScenario.node[61].veinsmobility  co2emission  ETV
vector 43221  IntersectionExampleScenario.node[62].veinsmobility  posx  ETV
vector 43222  IntersectionExampleScenario.node[62].veinsmobility  posy  ETV
vector 43223  IntersectionExampleScenario.node[62].veinsmobility  speed  ETV
vector 43224  IntersectionExampleScenario.node[62].veinsmobility  acceleration  ETV
vector 43225  IntersectionExampleScenario.node[62].veinsmobility  co2emission  ETV
43127	1359663 6617 10939 14622 254 305.25 206 0.973 11.648172402475 578.21291236005 2964.1149325118
43126	1366280 6114 10939 14622 254 305.25 206 -7.0929417610168 4 38.341367721558 482.03536989279
43125	1372394 6439 10920 14622 253.75 305.25 207 0 15.64999961853 2212.6930657625 31413.159395651
43124	1378833 7280 10901 14622 253.5 305.25 208 483.14999389648 483.14999389648 100495.19873047 48554254.653252
43123	1386113 7247 10901 14622 253.5 305.25 208 184.17810058594 733.41819763184 94489.651596069 47087409.800891
43120	1393360 6647 10920 14639 253.75 305.5 208 0.973 11.648172402475 574.10203032596 2924.5004492762
43119	1400007 6293 10920 14639 253.75 305.5 208 -7.1126251220703 4 37.662351608276 465.90991413758
43118	1406300 6471 10901 14639 253.5 305.5 209 0 15.64999961853 2206.3942120075 30889.506737787
43117	1412771 7335 10884 14639 253.25 305.5 210 235.68280029297 486.85000610352 93668.401824951 42865038.847782
43116	1420106 7337 10884 14639 253.25 305.5 210 483.14999389648 785.82187652588 116468.8758316 66578621.092658
vector 43228  IntersectionExampleScenario.node[63].veinsmobility  posx  ETV
vector 43229  IntersectionExampleScenario.node[63].veinsmobility  posy  ETV
vector 43230  IntersectionExampleScenario.node[63].veinsmobility  speed  ETV
vector 43231  IntersectionExampleScenario.node[63].veinsmobility  acceleration  ETV
vector 43232  IntersectionExampleScenario.node[63].veinsmobility  co2emission  ETV
vector 43235  IntersectionExampleScenario.node[64].veinsmobility  posx  ETV
vector 43236  IntersectionExampleScenario.node[64].veinsmobility  posy  ETV
43162	1427998 5466 11988 14898 268.25 309 164 0.973 11.450879080643 527.9631239565 3042.7440484502
43161	1433464 5216 11988 14898 268.25 309 164 -2.9403228759766 2.5 37.15309715271 286.74010978747
43160	1438680 5491 11971 14898 268 309 165 5.6500000953674 15.375 2201.3948545456 30288.188325295
43159	1444171 5766 11954 14898 267.75 309 166 238.07299804688 486.85000610352 72337.969573975 32496066.865456
43158	1449937 5800 11954 14898 267.75 309 166 483.12847900391 785.82187652588 94871.899375916 56014990.482465
vector 43237  IntersectionExampleScenario.node[64].veinsmobility  speed  ETV
43134	1455815 7166 11076 14917 255.75 309.25 215 0.973 10.756497587458 552.73791688154 2449.8150895564
43133	1462981 6984 11076 14917 255.75 309.25 215 -4.5 2.5 33.927785873413 377.36620170551
43132	1469965 7409 11055 14917 255.5 309.25 216 0 14.39999961853 2293.9785680771 30200.680331712
43131	1477374 7596 11034 14917 255.25 309.25 217 483.14999389648 483.14999389648 104843.54867554 50655159.902671
43130	1484970 7559 11034 14917 255.25 309.25 217 164.94219970703 734.44549560547 96760.010559082 48029851.84461
vector 43238  IntersectionExampleScenario.node[64].veinsmobility  acceleration  ETV
vector 43239  IntersectionExampleScenario.node[64].veinsmobility  co2emission  ETV
vector 43242  IntersectionExampleScenario.node[65].veinsmobility  posx  ETV
vector 43243  IntersectionExampleScenario.node[65].veinsmobility  posy  ETV
vector 43244  IntersectionExampleScenario.node[65].veinsmobility  speed  ETV
43141	1492930 6826 11347 15014 259 310.5 207 0.973 11.36141391502 621.86557791019 3043.6414709839
43140	1499756 6738 11347 15014 259 310.5 207 -4.5 2.5 41.057416915894 489.56274180808
43139	1506494 6956 11328 15014 258.75 310.5 208 0 15.952538490295 2271.3170918189 31440.651290758
43138	1513450 7311 11307 15014 258.5 310.5 209 235.94116210938 483.14999389648 93041.904876709 42418448.173683
43137	1520761 7282 11307 15014 258.5 310.5 209 163.31170654297 483.14999389648 84035.540008545 35992866.131656
vector 43245  IntersectionExampleScenario.node[65].veinsmobility  acceleration  ETV
vector 43246  IntersectionExampleScenario.node[65].veinsmobility  co2emission  ETV
43148	1528212 6789 11522 15224 261.25 313 208 0.973 11.450879080643 580.92274231875 2877.8679472329
43147	1535001 6520 11522 15224 261.25 313 208 -4.5 2.5 37.492597579956 386.57711033858
43146	1541521 7027 11501 15224 261 313 209 2.1777820587158 15.375 2321.9877119064 30318.849483128
43145	1548548 7345 11480 15224 260.75 313 210 483.14999389648 734.07490539551 110044.42689514 58749939.232149
43144	1555893 7334 11480 15224 260.75 313 210 156.85894775391 486.85000610352 83351.847137451 35406120.254662
43169	1563227 5160 12691 15581 279.75 317.25 151 0.973 11.990504229548 479.97191342524 2613.7218177773
43168	1568387 4646 12691 15581 279.75 317.25 151 -3.2447547912598 2.5 39.869146347046 201.41922718971
43167	1573033 5067 12672 15581 279.5 317.25 152 5.6500000953674 16.125 2212.2037334442 32921.068151754
43166	1578100 5356 12655 15581 279.25 317.25 153 483.14999389648 483.14999389648 73921.949066162 35715389.240132
43165	1583456 5303 12655 15581 279.25 317.25 153 184.17810058594 731.93894958496 68437.339294434 34655173.128641
43155	1588759 7093 11778 15844 265 320.5 223 0.973 11.450879080643 589.66744189191 2840.8962856675
43154	1595852 6225 11778 15844 265 320.5 223 -36.822685241699 4 37.32285118103 1684.2718359534
43153	1602077 6714 11761 15844 264.75 320.5 224 0 15.375 2202.2295188904 31143.6933776
43152	1608791 7845 11744 15844 264.5 320.5 225 184.17810058594 486.85000610352 94280.522613525 41544996.046488
43151	1616636 7869 11744 15844 264.5 320.5 225 236.78112792969 486.85000610352 101000.25747681 46437865.761766
43190	1624505 4932 13338 16043 287.5 323.75 146 0.973 12.553400930962 521.87397052743 3415.1159533921
43189	1629437 4716 13338 16043 287.5 323.75 146 -3.444034576416 2.5000038146973 42.754949569702 266.70306504923
43188	1634153 4897 13315 16043 287.25 323.75 147 5.6500000953674 16.89999961853 2210.0808973312 34119.116620441
43187	1639050 5149 13292 16043 287 323.75 148 184.17810058594 731.1556854248 65980.299041748 33313070.84899
43186	1644199 5180 13292 16043 287 323.75 148 486.85000610352 486.85000610352 72053.80090332 35079393.409563
vector 43249  IntersectionExampleScenario.node[66].veinsmobility  posx  ETV
vector 43250  IntersectionExampleScenario.node[66].veinsmobility  posy  ETV
vector 43251  IntersectionExampleScenario.node[66].veinsmobility  speed  ETV
vector 43252  IntersectionExampleScenario.node[66].veinsmobility  acceleration  ETV
vector 43253  IntersectionExampleScenario.node[66].veinsmobility  co2emission  ETV
vector 43256  IntersectionExampleScenario.node[67].veinsmobility  posx  ETV
vector 43257  IntersectionExampleScenario.node[67].veinsmobility  posy  ETV
vector 43258  IntersectionExampleScenario.node[67].veinsmobility  speed  ETV
vector 43259  IntersectionExampleScenario.node[67].veinsmobility  acceleration  ETV
vector 43260  IntersectionExampleScenario.node[67].veinsmobility  co2emission  ETV
vector 43263  IntersectionExampleScenario.node[68].veinsmobility  posx  ETV
vector 43264  IntersectionExampleScenario.node[68].veinsmobility  posy  ETV
vector 43270  IntersectionExampleScenario.node[69].veinsmobility  posx  ETV
vector 43271  IntersectionExampleScenario.node[69].veinsmobility  posy  ETV
vector 43265  IntersectionExampleScenario.node[68].veinsmobility  speed  ETV
vector 43266  IntersectionExampleScenario.node[68].veinsmobility  acceleration  ETV
vector 43267  IntersectionExampleScenario.node[68].veinsmobility  co2emission  ETV
vector 43272  IntersectionExampleScenario.node[69].veinsmobility  speed  ETV
vector 43273  IntersectionExampleScenario.node[69].veinsmobility  acceleration  ETV
vector 43274  IntersectionExampleScenario.node[69].veinsmobility  co2emission  ETV
43176	1650983 7219 12710 16510 280 336.25 226 0.973 11.00486315618 572.79196914318 2595.6365441379
43175	1658202 6816 12710 16510 280 336.25 226 -31.534412384033 4 34.77654838562 1335.3646162016
43174	1665018 6865 12691 16510 279.75 336.25 227 0 14.75 2208.17689991 30071.060593222
43173	1671883 7973 12672 16510 279.5 336.25 228 234.93939208984 486.85000610352 101969.77941895 46765175.28496
43172	1679856 7972 12672 16510 279.5 336.25 228 483.14999389648 785.82187652588 125779.56060791 71463448.582073
43183	1687828 7101 12809 16520 281.25 336.5 222 0.973 11.54047740176 592.77469054087 2782.9521134161
43182	1694929 6306 12809 16520 281.25 336.5 222 -4.5 2.5 37.15309715271 482.75183263478
43181	1701235 6871 12788 16520 281 336.5 223 0 15.5 2295.8024953604 32030.502862346
43180	1708106 7840 12767 16520 280.75 336.5 224 486.85000610352 486.85000610352 109054.40136719 53093135.97123
43179	1715946 7811 12767 16520 280.75 336.5 224 237.61700439453 807.09531402588 117575.75317383 66425999.156699
43197	1723757 5998 13765 16574 292.75 338 182 0.973 11.648172402475 555.71111153797 2841.451514482
43196	1729755 5761 13765 16574 292.75 338 182 -6.8118047714233 4 38.850629806519 481.61550668212
43195	1735516 5906 13747 16574 292.5 338 183 0 15.64999961853 2178.9036076069 30780.660739957
43194	1741422 6424 13728 16574 292.25 338 184 237.38031005859 483.14999389648 80800.23626709 36446718.516194
43193	1747846 6413 13728 16574 292.25 338 184 184.17810058594 483.24322509766 74839.506256104 32284868.982904
43204	1754259 5313 14101 16592 298.25 338.5 162 0.87724236611116 12.717865293408 597.57398407993 3992.7351212938
43203	1759572 5086 14101 16592 298.25 338.5 162 -3.2163467407227 2.5 43.943227767944 402.08479635094
43202	1764658 5357 14084 16592 298 338.5 163 5.6500000953674 17.125 2179.8730754852 31402.618503561
43201	1770015 5736 14069 16592 297.75 338.5 164 486.85000610352 731.94984436035 87319.658096313 47364308.159696
43200	1775751 5726 14069 16592 297.75 338.5 164 486.7038269043 785.82187652588 93761.006797791 55288401.079247
vector 43277  IntersectionExampleScenario.node[70].veinsmobility  posx  ETV
vector 43278  IntersectionExampleScenario.node[70].veinsmobility  posy  ETV
vector 43279  IntersectionExampleScenario.node[70].veinsmobility  speed  ETV
43225	1781709 5339 14320 16666 301.25 340.5 158 0.973 11.54047740176 507.82258628296 2898.1391577014
43224	1787048 5049 14320 16666 301.25 340.5 158 -3.5941276550293 2.5 37.32285118103 254.55792692045
43223	1792097 5315 14299 16666 301 340.5 159 5.6500000953674 15.5 2214.9652509689 31465.52102327
43222	1797412 5600 14278 16666 300.75 340.5 160 483.14999389648 483.14999389648 77303.999023438 37349426.656348
43221	1803012 5567 14278 16666 300.75 340.5 160 184.17810058594 732.83781433105 71666.703536987 36288899.102412
vector 43280  IntersectionExampleScenario.node[70].veinsmobility  acceleration  ETV
vector 43281  IntersectionExampleScenario.node[70].veinsmobility  co2emission  ETV
43211	1808748 5846 14118 16710 298.5 341.5 173 0.973 11.111250339518 512.75902828175 2651.9874605291
43210	1814594 5689 14118 16710 298.5 341.5 173 -4.5 2.5 35.625318527222 255.05878042203
43209	1820283 5870 14101 16710 298.25 341.5 174 5.6500000953674 14.899494171143 2308.1744880676 31298.364821739
43208	1826153 6124 14084 16710 298 341.5 175 486.85000610352 486.85000610352 85198.751068115 41479012.477524
43207	1832277 6101 14084 16710 298 341.5 175 238.32159423828 810.23281097412 93897.446960449 55323505.174371
43218	1838378 5792 14259 16776 300.5 343 171 0.973 10.757815979893 558.04488059896 2778.7063151028
43217	1844170 5831 14259 16776 300.5 343 171 -4.5 2.5 38.984750747681 293.74048400416
43216	1850001 5825 14240 16776 300.25 343 172 5.6500000953674 15.558451652527 2338.524181366 32611.234104476
43215	1855826 6053 14221 16776 300 343 173 486.85000610352 486.85000610352 84225.051055908 41004966.620638
43214	1861879 6037 14221 16776 300 343 173 236.36383056641 816.16620635986 93162.532241821 55072376.129964
vector 43284  IntersectionExampleScenario.node[71].veinsmobility  posx  ETV
vector 43285  IntersectionExampleScenario.node[71].veinsmobility  posy  ETV
vector 43286  IntersectionExampleScenario.node[71].veinsmobility  speed  ETV
vector 43287  IntersectionExampleScenario.node[71].veinsmobility  acceleration  ETV
vector 43288  IntersectionExampleScenario.node[71].veinsmobility  co2emission  ETV
vector 43291  IntersectionExampleScenario.node[72].veinsmobility  posx  ETV
vector 43292  IntersectionExampleScenario.node[72].veinsmobility  posy  ETV
vector 43298  IntersectionExampleScenario.node[73].veinsmobility  posx  ETV
vector 43299  IntersectionExampleScenario.node[73].veinsmobility  posy  ETV
vector 43293  IntersectionExampleScenario.node[72].veinsmobility  speed  ETV
vector 43300  IntersectionExampleScenario.node[73].veinsmobility  speed  ETV
vector 43294  IntersectionExampleScenario.node[72].veinsmobility  acceleration  ETV
vector 43295  IntersectionExampleScenario.node[72].veinsmobility  co2emission  ETV
vector 43301  IntersectionExampleScenario.node[73].veinsmobility  acceleration  ETV
vector 43302  IntersectionExampleScenario.node[73].veinsmobility  co2emission  ETV
43232	1869119 5731 14728 17185 306.75 349.75 173 0.973 12.099024792222 570.35453629092 3233.3505464631
43231	1874850 5377 14728 17185 306.75 349.75 173 -8.998589515686 4 41.227170944214 523.42486007101
43230	1880227 5629 14709 17185 306.5 349.75 174 0 16.27499961853 2206.5583035946 32408.17036408
43229	1885856 6114 14690 17185 306.25 349.75 175 483.14999389648 785.82187652588 98645.52570343 57436883.04806
43228	1891970 6121 14690 17185 306.25 349.75 175 483.14999389648 734.31971740723 92672.026168823 50055346.00142
43246	1898091 5339 15035 17185 310.75 349.75 157 0.973 11.648172402475 513.88867733929 2799.2372309907
43245	1903430 4932 15035 17185 310.75 349.75 157 -3.2010688781738 2.5 39.869146347046 269.04141894271
43244	1908362 5237 15014 17185 310.5 349.75 158 5.6500000953674 15.842774391174 2208.9091863632 32061.126505542
43243	1913599 5540 14993 17185 310.25 349.75 159 184.17810058594 486.85000610352 63408.015228271 27051585.283852
43242	1919139 5562 14993 17185 310.25 349.75 159 236.74261474609 486.85000610352 69184.949035645 31047701.945727
vector 43305  IntersectionExampleScenario.node[74].veinsmobility  posx  ETV
vector 43306  IntersectionExampleScenario.node[74].veinsmobility  posy  ETV
vector 43307  IntersectionExampleScenario.node[74].veinsmobility  speed  ETV
43239	1924933 5819 14936 17391 309.5 352.75 174 0.973 11.450879080643 521.74282743502 2669.1547869722
43238	1930752 5625 14936 17391 309.5 352.75 174 -3.9940147399902 2.5 37.32285118103 280.598906312
43237	1936377 5929 14917 17391 309.25 352.75 175 5.6222910881042 15.375 2260.3853974342 30973.272907628
43236	1942306 6149 14898 17391 309 352.75 176 483.12725830078 800.04531860352 100986.6091156 59996610.570671
43235	1948455 6152 14898 17391 309 352.75 176 483.14999389648 732.31788635254 93516.716064453 50689940.765038
vector 43308  IntersectionExampleScenario.node[74].veinsmobility  acceleration  ETV
vector 43309  IntersectionExampleScenario.node[74].veinsmobility  co2emission  ETV
vector 43312  IntersectionExampleScenario.node[75].veinsmobility  posx  ETV
vector 43313  IntersectionExampleScenario.node[75].veinsmobility  posy  ETV
vector 43314  IntersectionExampleScenario.node[75].veinsmobility  speed  ETV
vector 43319  IntersectionExampleScenario.node[76].veinsmobility  posx  ETV
vector 43320  IntersectionExampleScenario.node[76].veinsmobility  posy  ETV
vector 43315  IntersectionExampleScenario.node[75].veinsmobility  acceleration  ETV
vector 43316  IntersectionExampleScenario.node[75].veinsmobility  co2emission  ETV
vector 43321  IntersectionExampleScenario.node[76].veinsmobility  speed  ETV
vector 43322  IntersectionExampleScenario.node[76].veinsmobility  acceleration  ETV
vector 43323  IntersectionExampleScenario.node[76].veinsmobility  co2emission  ETV
vector 43326  IntersectionExampleScenario.node[77].veinsmobility  posx  ETV
vector 43327  IntersectionExampleScenario.node[77].veinsmobility  posy  ETV
vector 43328  IntersectionExampleScenario.node[77].veinsmobility  speed  ETV
vector 43329  IntersectionExampleScenario.node[77].veinsmobility  acceleration  ETV
vector 43330  IntersectionExampleScenario.node[77].veinsmobility  co2emission  ETV
vector 43333  IntersectionExampleScenario.node[78].veinsmobility  posx  ETV
vector 43334  IntersectionExampleScenario.node[78].veinsmobility  posy  ETV
vector 43335  IntersectionExampleScenario.node[78].veinsmobility  speed  ETV
vector 43336  IntersectionExampleScenario.node[78].veinsmobility  acceleration  ETV
vector 43337  IntersectionExampleScenario.node[78].veinsmobility  co2emission  ETV
vector 43340  IntersectionExampleScenario.node[79].veinsmobility  posx  ETV
vector 43341  IntersectionExampleScenario.node[79].veinsmobility  posy  ETV
vector 43342  IntersectionExampleScenario.node[79].veinsmobility  speed  ETV
vector 43343  IntersectionExampleScenario.node[79].veinsmobility  acceleration  ETV
vector 43344  IntersectionExampleScenario.node[79].veinsmobility  co2emission  ETV
43260	1956781 5425 16379 18989 333 372.5 159 0.973 11.450879080643 484.85277543601 2508.3976827919
43259	1962206 4770 16379 18989 333 372.5 159 -3.1659812927246 2.5 37.492597579956 221.06141420256
43258	1966976 5314 16368 18989 332.75 372.5 160 5.6500000953674 15.375 2208.8621778488 31360.982922375
43257	1972290 5624 16357 18989 332.5 372.5 161 483.14999389648 733.46098327637 86326.65246582 47259216.116872
43256	1977914 5608 16357 18989 332.5 372.5 161 184.17810058594 486.85000610352 64113.211181641 27322070.548609
vector 43347  IntersectionExampleScenario.node[80].veinsmobility  posx  ETV
vector 43348  IntersectionExampleScenario.node[80].veinsmobility  posy  ETV
vector 43349  IntersectionExampleScenario.node[80].veinsmobility  speed  ETV
vector 43350  IntersectionExampleScenario.node[80].veinsmobility  acceleration  ETV
vector 43351  IntersectionExampleScenario.node[80].veinsmobility  co2emission  ETV
vector 43354  IntersectionExampleScenario.node[81].veinsmobility  posx  ETV
vector 43355  IntersectionExampleScenario.node[81].veinsmobility  posy  ETV
vector 43356  IntersectionExampleScenario.node[81].veinsmobility  speed  ETV
vector 43357  IntersectionExampleScenario.node[81].veinsmobility  acceleration  ETV
vector 43358  IntersectionExampleScenario.node[81].veinsmobility  co2emission  ETV
43274	1984324 5968 16477 19631 335.5 380.25 180 0.973 11.648172402475 552.91491236005 2939.4999785118
43273	1990292 5561 16477 19631 335.5 380.25 180 -7.03919506073 4 38.341367721558 481.63103295482
43272	1995853 5895 16466 19631 335.25 380.25 181 0 15.64999961853 2212.4081838131 31409.619262413
43271	2001748 6354 16455 19631 335 380.25 182 236.58178710938 785.82187652588 94310.840751648 53025078.606111
43270	2008102 6369 16455 19631 335 380.25 182 483.14999389648 483.14999389648 87933.29888916 42484972.821595
43253	2014471 6658 16258 19683 329.75 381 206 0.973 11.200708441096 557.29146731356 2671.9191240642
43252	2021129 6093 16258 19683 329.75 381 206 -8.6544380187988 4 35.795072555542 474.85016826786
43251	2027222 6487 16249 19683 329.5 381 207 0 15.02499961853 2207.0238060951 30119.554519985
43250	2033709 7260 16240 19683 329.25 381 208 184.17810058594 486.85000610352 86058.523712158 37602560.9771
43249	2040969 7271 16240 19683 329.25 381 208 235.04376220703 486.85000610352 92387.351318359 42147744.823405
43267	2048240 6066 16466 19751 335.25 382 188 0.973 11.810082123732 548.65329080569 2887.1462481508
43266	2054306 6137 16466 19751 335.25 382 188 -3.7983660697937 2.5 38.511121749878 371.96516516758
43265	2060443 6165 16455 19751 335 382 189 0 15.875 2191.1297912598 29934.300637691
43264	2066608 6608 16446 19751 334.75 382 190 184.17810058594 483.14999389648 77236.770721436 33231600.118731
43263	2073216 6642 16446 19751 334.75 382 190 486.85000610352 735.05012512207 100786.68531799 54468414.139226
vector 43361  IntersectionExampleScenario.node[82].veinsmobility  posx  ETV
vector 43362  IntersectionExampleScenario.node[82].veinsmobility  posy  ETV
vector 43368  IntersectionExampleScenario.node[83].veinsmobility  posx  ETV
vector 43369  IntersectionExampleScenario.node[83].veinsmobility  posy  ETV
vector 43363  IntersectionExampleScenario.node[82].veinsmobility  speed  ETV
vector 43364  IntersectionExampleScenario.node[82].veinsmobility  acceleration  ETV
vector 43365  IntersectionExampleScenario.node[82].veinsmobility  co2emission  ETV
vector 43370  IntersectionExampleScenario.node[83].veinsmobility  speed  ETV
vector 43371  IntersectionExampleScenario.node[83].veinsmobility  acceleration  ETV
vector 43372  IntersectionExampleScenario.node[83].veinsmobility  co2emission  ETV
vector 43375  IntersectionExampleScenario.node[84].veinsmobility  posx  ETV
vector 43376  IntersectionExampleScenario.node[84].veinsmobility  posy  ETV
vector 43377  IntersectionExampleScenario.node[84].veinsmobility  speed  ETV
vector 43382  IntersectionExampleScenario.node[85].veinsmobility  posx  ETV
vector 43383  IntersectionExampleScenario.node[85].veinsmobility  posy  ETV
vector 43378  IntersectionExampleScenario.node[84].veinsmobility  acceleration  ETV
vector 43379  IntersectionExampleScenario.node[84].veinsmobility  co2emission  ETV
vector 43384  IntersectionExampleScenario.node[85].veinsmobility  speed  ETV
vector 43385  IntersectionExampleScenario.node[85].veinsmobility  acceleration  ETV
vector 43386  IntersectionExampleScenario.node[85].veinsmobility  co2emission  ETV
vector 43389  IntersectionExampleScenario.node[86].veinsmobility  posx  ETV
vector 43390  IntersectionExampleScenario.node[86].veinsmobility  posy  ETV
vector 43391  IntersectionExampleScenario.node[86].veinsmobility  speed  ETV
vector 43392  IntersectionExampleScenario.node[86].veinsmobility  acceleration  ETV
vector 43393  IntersectionExampleScenario.node[86].veinsmobility  co2emission  ETV
vector 43396  IntersectionExampleScenario.node[87].veinsmobility  posx  ETV
vector 43397  IntersectionExampleScenario.node[87].veinsmobility  posy  ETV
vector 43398  IntersectionExampleScenario.node[87].veinsmobility  speed  ETV
43309	2082095 5209 17410 20489 353 391.25 154 0.973 12.26218747632 525.68338815994 3151.7311454308
43308	2087304 4962 17410 20489 353 391.25 154 -3.7528343200684 2.5 41.396924972534 308.48440106635
43307	2092266 5072 17391 20489 352.75 391.25 155 5.6500000953674 16.5 2178.9213142395 32252.656898312
43306	2097338 5430 17372 20489 352.5 391.25 156 184.17810058594 483.14999389648 61943.960205078 26297765.118542
43305	2102768 5454 17372 20489 352.5 391.25 156 486.85000610352 732.0075378418 83695.358062744 45778661.127126
vector 43399  IntersectionExampleScenario.node[87].veinsmobility  acceleration  ETV
vector 43400  IntersectionExampleScenario.node[87].veinsmobility  co2emission  ETV
vector 43403  IntersectionExampleScenario.node[88].veinsmobility  posx  ETV
vector 43404  IntersectionExampleScenario.node[88].veinsmobility  posy  ETV
vector 43405  IntersectionExampleScenario.node[88].veinsmobility  speed  ETV
vector 43406  IntersectionExampleScenario.node[88].veinsmobility  acceleration  ETV
vector 43407  IntersectionExampleScenario.node[88].veinsmobility  co2emission  ETV
vector 43410  IntersectionExampleScenario.node[89].veinsmobility  posx  ETV
vector 43411  IntersectionExampleScenario.node[89].veinsmobility  posy  ETV
vector 43412  IntersectionExampleScenario.node[89].veinsmobility  speed  ETV
vector 43413  IntersectionExampleScenario.node[89].veinsmobility  acceleration  ETV
vector 43414  IntersectionExampleScenario.node[89].veinsmobility  co2emission  ETV
43281	2109193 6942 16677 20867 340.75 395.25 219 0.973 11.648172402475 588.62614934593 2934.6723548856
43280	2116135 6170 16677 20867 340.75 395.25 219 -21.174114227295 4 38.171613693237 853.33355981866
43279	2122305 6598 16666 20867 340.5 395.25 220 0 15.64999961853 2175.6027994156 30789.822738014
43278	2128903 7666 16655 20867 340.25 395.25 221 486.85000610352 732.53002929688 115762.63781738 61669617.088433
43277	2136569 7727 16655 20867 340.25 395.25 221 486.63604736328 785.82187652588 122119.12682343 69461840.702968
vector 43417  IntersectionExampleScenario.node[90].veinsmobility  posx  ETV
vector 43418  IntersectionExampleScenario.node[90].veinsmobility  posy  ETV
vector 43419  IntersectionExampleScenario.node[90].veinsmobility  speed  ETV
43288	2144528 6903 16835 20938 344.25 396 208 0.973 11.648172402475 589.40359390681 2983.4621399781
43287	2151431 6664 16835 20938 344.25 396 208 -4.5 2.5 39.359884262085 443.04235316903
43286	2158095 6965 16822 20938 344 396 209 0 15.64999961853 2246.7075248733 31928.678999361
43285	2165060 7349 16809 20938 343.75 396 210 486.85000610352 486.85000610352 102238.50128174 49774814.973028
43284	2172409 7290 16809 20938 343.75 396 210 238.37884521484 795.46562957764 109637.55593109 61528406.04181
vector 43420  IntersectionExampleScenario.node[90].veinsmobility  acceleration  ETV
vector 43421  IntersectionExampleScenario.node[90].veinsmobility  co2emission  ETV
43302	2179868 6563 16947 20963 346.25 396.25 201 0.973 11.00486315618 540.24902856002 2550.6926448959
43301	2186431 6019 16947 20963 346.25 396.25 201 -8.9526214599609 4 34.097539901733 465.54263583894
43300	2192450 6439 16930 20963 346 396.25 202 0 14.75 2207.447769165 29468.080729458
43299	2198889 7105 16913 20963 345.75 396.25 203 483.14999389648 483.14999389648 98079.448760986 47387085.070241
43298	2205994 7066 16913 20963 345.75 396.25 203 184.17810058594 732.90614318848 92127.471466064 46181279.597722
vector 43424  IntersectionExampleScenario.node[91].veinsmobility  posx  ETV
vector 43425  IntersectionExampleScenario.node[91].veinsmobility  posy  ETV
vector 43426  IntersectionExampleScenario.node[91].veinsmobility  speed  ETV
vector 43427  IntersectionExampleScenario.node[91].veinsmobility  acceleration  ETV
vector 43428  IntersectionExampleScenario.node[91].veinsmobility  co2emission  ETV
43295	2213461 6884 16947 21291 346.25 399.5 214 0.973 11.36141391502 577.53619555825 2847.5240940458
43294	2220345 6955 16947 21291 346.25 399.5 214 -4.3739318847656 2.5000009536743 37.32285118103 354.97094902388
43293	2227300 7191 16930 21291 346 399.5 215 1.0039293766022 15.25 2279.8371357918 29611.785679332
43292	2234491 7553 16913 21291 345.75 399.5 216 486.85000610352 734.33950805664 113557.84303284 60755987.566678
43291	2242044 7539 16913 21291 345.75 399.5 216 486.84732055664 808.74375915527 123002.84746552 72294124.192347
vector 43431  IntersectionExampleScenario.node[92].veinsmobility  posx  ETV
vector 43432  IntersectionExampleScenario.node[92].veinsmobility  posy  ETV
43316	2249737 5645 17677 21366 356.5 400.25 176 0.973 11.648172402475 524.99675605091 2910.9187930254
43315	2255382 5648 17677 21366 356.5 400.25 176 -2.202766418457 2.5000019073486 38.511121749878 275.86472642707
43314	2261030 5960 17658 21366 356.25 400.25 177 5.3755383491516 15.64999961853 2217.276860714 29717.394774347
43313	2266990 6229 17638 21366 356 400.25 178 486.85000610352 486.85000610352 86659.301086426 42190081.262853
43312	2273219 6214 17638 21366 356 400.25 178 236.85614013672 785.82187652588 93431.175605774 53200370.356818
vector 43433  IntersectionExampleScenario.node[92].veinsmobility  speed  ETV
vector 43434  IntersectionExampleScenario.node[92].veinsmobility  acceleration  ETV
vector 43435  IntersectionExampleScenario.node[92].veinsmobility  co2emission  ETV
vector 43438  IntersectionExampleScenario.node[93].veinsmobility  posx  ETV
vector 43439  IntersectionExampleScenario.node[93].veinsmobility  posy  ETV
vector 43440  IntersectionExampleScenario.node[93].veinsmobility  speed  ETV
vector 43441  IntersectionExampleScenario.node[93].veinsmobility  acceleration  ETV
vector 43442  IntersectionExampleScenario.node[93].veinsmobility  co2emission  ETV
43337	2280081 5216 18690 22066 368.75 407 154 0.973 12.26218747632 528.75928659988 3163.1600189902
43336	2285297 4831 18690 22066 368.75 407 154 -3.4946136474609 2.5 41.736440658569 309.9837430112
43335	2290128 5060 18671 22066 368.5 407 155 5.6500000953674 16.5 2185.4923467636 32481.072348124
43334	2295188 5421 18652 22066 368.25 407 156 236.54162597656 483.14999389648 67567.969329834 30151273.057289
43333	2300609 5435 18652 22066 368.25 407 156 184.17810058594 483.14999389648 61984.44543457 26330829.757715
43323	2306044 6825 17719 22403 357 410.25 214 0.973 11.648172402475 588.90834454986 3007.2815866925
43322	2312869 6263 17719 22403 357 410.25 214 -7.4484157562256 4 38.341367721558 541.83570197748
43321	2319132 6544 17698 22403 356.75 410.25 215 0 15.64999961853 2202.6713571548 31169.678636209
43320	2325676 7516 17677 22403 356.5 410.25 216 177.97814941406 483.36395263672 89387.74105835 39059728.118145
43319	2333192 7491 17677 22403 356.5 410.25 216 486.85000610352 733.04777526855 113341.34913635 60501911.048567
[...]
45923	13844541 6825 109102 112778 1674 1720 185 486.85000610352 785.82187652588 105494.06606293 61946081.797379
vector 46021  IntersectionExampleScenario.node[462].veinsmobility  posx  ETV
vector 46022  IntersectionExampleScenario.node[462].veinsmobility  posy  ETV
vector 46023  IntersectionExampleScenario.node[462].veinsmobility  speed  ETV
vector 46024  IntersectionExampleScenario.node[462].veinsmobility  acceleration  ETV
vector 46025  IntersectionExampleScenario.node[462].veinsmobility  co2emission  ETV
vector 46028  IntersectionExampleScenario.node[463].veinsmobility  posx  ETV
vector 46029  IntersectionExampleScenario.node[463].veinsmobility  posy  ETV
vector 46030  IntersectionExampleScenario.node[463].veinsmobility  speed  ETV
vector 46031  IntersectionExampleScenario.node[463].veinsmobility  acceleration  ETV
vector 46032  IntersectionExampleScenario.node[463].veinsmobility  co2emission  ETV
45962	13852178 5693 110247 113288 1688.5 1728 159 0.973 11.810082123732 509.13225181401 2869.5869944383
45961	13857871 5602 110247 113288 1688.5 1728 159 -4.6504364013672 2.5 38.511121749878 301.64434666309
45960	13863473 5575 110226 113288 1688.25 1728 160 5.6500000953674 15.875 2188.4414196014 31288.911083854
45959	13869048 5934 110205 113288 1688 1728 161 486.85000610352 734.43559265137 86624.212738037 47541932.549798
45958	13874982 5945 110205 113288 1688 1728 161 486.78521728516 785.82187652588 92168.387199402 54504428.757847
vector 46035  IntersectionExampleScenario.node[464].veinsmobility  posx  ETV
vector 46036  IntersectionExampleScenario.node[464].veinsmobility  posy  ETV
vector 46037  IntersectionExampleScenario.node[464].veinsmobility  speed  ETV
vector 46038  IntersectionExampleScenario.node[464].veinsmobility  acceleration  ETV
vector 46039  IntersectionExampleScenario.node[464].veinsmobility  co2emission  ETV
45934	13881333 7337 109228 113436 1675.75 1730 218 0.973 11.810082123732 601.47867288028 3097.1511792719
45933	13888670 6853 109228 113436 1675.75 1730 218 -25.807018280029 4 39.869146347046 1056.3842415705
45932	13895523 6963 109209 113436 1675.5 1730 219 0 15.875 2183.553194046 31651.239321949
45931	13902486 8132 109190 113436 1675.25 1730 220 486.63604736328 785.82187652588 121440.18984222 69003638.072159
45930	13910618 8071 109190 113436 1675.25 1730 220 235.62799072266 483.14999389648 98218.238494873 44880234.249223
45955	13918689 6437 109903 113453 1684.25 1730.25 185 0.973 11.648172402475 565.13997471926 3009.5700038247
45954	13925126 5949 109903 113453 1684.25 1730.25 185 -8.5493679046631 4 38.850629806519 506.43634335811
45953	13931075 6351 109882 113453 1684 1730.25 186 0 15.64999961853 2218.3532471657 31716.474107088
45952	13937426 6886 109861 113453 1683.75 1730.25 187 184.17810058594 735.09378051758 84688.576782227 42522302.907082
45951	13944312 6919 109861 113453 1683.75 1730.25 187 486.85000610352 486.85000610352 91040.951141357 44323287.61884
vector 46042  IntersectionExampleScenario.node[465].veinsmobility  posx  ETV
vector 46043  IntersectionExampleScenario.node[465].veinsmobility  posy  ETV
vector 46044  IntersectionExampleScenario.node[465].veinsmobility  speed  ETV
vector 46045  IntersectionExampleScenario.node[465].veinsmobility  acceleration  ETV
vector 46046  IntersectionExampleScenario.node[465].veinsmobility  co2emission  ETV
45941	13951637 7892 109327 113605 1677 1732.5 223 0.973 11.810082123732 612.43758094353 3111.8697968996
45940	13959529 7982 109327 113605 1677 1732.5 223 -4.5 2.5 39.699392318726 446.22954138413
45939	13967511 7995 109306 113605 1676.75 1732.5 224 0 15.875 2262.1650009602 31881.48116354
45938	13975506 8308 109285 113605 1676.5 1732.5 225 486.81631469727 807.09531402588 126252.58766937 73141298.897638
45937	13983814 8322 109285 113605 1676.5 1732.5 225 238.85821533203 483.14999389648 100812.61520386 46172735.524434
45976	13992136 5628 110602 113673 1692.5 1733.5 165 0.973 12.601340698 603.04094723682 3905.8317849893
45975	13997764 5860 110602 113673 1692.5 1733.5 165 -3.3598098754883 2.5000019073486 45.262609481812 382.48962740927
45974	14003624 6115 110579 113673 1692.25 1733.5 166 5.6500000953674 16.96565246582 2201.1872372627 31211.189077505
45973	14009739 6158 110556 113673 1692 1733.5 167 184.17810058594 486.91088867188 67092.087615967 28712191.928519
45972	14015897 6168 110556 113673 1692 1733.5 167 238.90991210938 486.85000610352 73306.860015869 33109243.356497
45948	14022065 7199 109823 113826 1683.25 1736 212 0.973 11.200708441096 549.189613212 2631.0554112349
45947	14029264 7337 109823 113826 1683.25 1736 212 -2.8363792896271 2.5 35.625318527222 324.99000706047
45946	14036601 7602 109804 113826 1683 1736 213 0 15.02499961853 2210.3371251374 28009.712129291
45945	14044203 7900 109785 113826 1682.75 1736 214 483.14999389648 785.82187652588 120003.63036346 69209754.423333
45944	14052103 7908 109785 113826 1682.75 1736 214 483.14999389648 734.05142211914 112235.67082214 59977973.291117
vector 46049  IntersectionExampleScenario.node[466].veinsmobility  posx  ETV
vector 46050  IntersectionExampleScenario.node[466].veinsmobility  posy  ETV
vector 46051  IntersectionExampleScenario.node[466].veinsmobility  speed  ETV
vector 46052  IntersectionExampleScenario.node[466].veinsmobility  acceleration  ETV
vector 46053  IntersectionExampleScenario.node[466].veinsmobility  co2emission  ETV
45969	14060417 7503 110419 114415 1690.5 1745.5 221 0.973 11.450879080643 589.62905593997 2863.5491598462
45968	14067920 6609 110419 114415 1690.5 1745.5 221 -44.627662658691 4 37.15309715271 2304.8446495323
45967	14074529 7132 110396 114415 1690.25 1745.5 222 0 15.375 2207.090760231 31382.303099396
45966	14081661 8250 110373 114415 1690 1745.5 223 483.14999389648 483.14999389648 107742.44863892 52055763.402284
45965	14089911 8221 110373 114415 1690 1745.5 223 184.17810058594 733.24285888672 101596.46513367 50511406.277006
45983	14098132 6610 111224 114453 1699.25 1746.25 189 0.973 10.916047529558 528.25025912519 2506.4465268969
45982	14104742 6096 111224 114453 1699.25 1746.25 189 -7.1268091201782 4 34.437047958374 443.47202354607
45981	14110838 6524 111199 114453 1699 1746.25 190 0 14.625 2182.5622303486 29045.205638856
45980	14117362 7008 111176 114453 1698.75 1746.25 191 486.85000610352 734.64697265625 101804.30566406 55310231.102683
45979	14124370 7058 111176 114453 1698.75 1746.25 191 486.63604736328 785.82187652588 107695.17453003 62629672.847484
45990	14131428 6587 111248 114453 1699.5 1746.25 188 0.973 11.90022389248 566.43369777236 2907.1542855249
45989	14138015 6413 111248 114453 1699.5 1746.25 188 -4.5 2.5 39.359884262085 466.04929498925
45988	14144428 6530 111224 114453 1699.25 1746.25 189 0 16 2297.6159636974 32103.703565812
45987	14150958 7022 111199 114453 1699 1746.25 190 238.56329345703 486.85000610352 84342.257293701 38439355.166646
45986	14157980 7018 111199 114453 1699 1746.25 190 483.13333129883 810.23281097412 109216.21173859 65123300.729013
45997	14164998 5581 112147 114613 1710.75 1750 158 0.973 12.099024792222 555.03866839443 3535.5708130475
45996	14170579 5337 112147 114613 1710.75 1750 158 -3.4213600158691 2.5 40.038900375366 351.11314889035
45995	14175916 5547 112126 114613 1710.5 1750 159 5.6500000953674 16.27499961853 2180.1755800247 31376.140684609
45994	14181463 5914 112105 114613 1710.25 1750 160 238.00659179688 483.14999389648 69393.181854248 30991947.470174
45993	14187377 5894 112105 114613 1710.25 1750 160 184.17810058594 483.14999389648 63583.07043457 26985496.452657
46011	14193271 5668 112683 114819 1718.5 1757.5 157 0.973 11.648172402475 491.62494964665 2648.42577004
46010	14198939 5441 112683 114819 1718.5 1757.5 157 -3.5506629943848 2.5 38.511121749878 238.15829604408
46009	14204380 5556 112666 114819 1718.25 1757.5 158 5.6500000953674 15.64999961853 2209.3549442291 31836.958482583
46008	14209936 5874 112651 114819 1718 1757.5 159 236.64337158203 486.85000610352 69005.538269043 30904181.372311
46007	14215810 5872 112651 114819 1718 1757.5 159 483.14999389648 785.82187652588 90911.668067932 53755487.897538
vector 46056  IntersectionExampleScenario.node[467].veinsmobility  posx  ETV
vector 46057  IntersectionExampleScenario.node[467].veinsmobility  posy  ETV
vector 46058  IntersectionExampleScenario.node[467].veinsmobility  speed  ETV
vector 46059  IntersectionExampleScenario.node[467].veinsmobility  acceleration  ETV
vector 46060  IntersectionExampleScenario.node[467].veinsmobility  co2emission  ETV
46004	14222088 6421 112463 114875 1715 1760.5 183 0.973 11.36141391502 540.28106206791 2752.0828687201
46003	14228509 5993 112463 114875 1715 1760.5 183 -8.2099418640137 4 36.813589096069 481.06962067089
46002	14234502 6297 112446 114875 1714.75 1760.5 184 0 15.25 2172.3059687614 29932.842901098
46001	14240799 6838 112429 114875 1714.5 1760.5 185 486.63604736328 785.82187652588 104391.27539825 60767687.72955
46000	14247637 6781 112429 114875 1714.5 1760.5 185 237.89813232422 483.14999389648 81072.388153076 36510747.564092
vector 46063  IntersectionExampleScenario.node[468].veinsmobility  posx  ETV
vector 46064  IntersectionExampleScenario.node[468].veinsmobility  posy  ETV
vector 46065  IntersectionExampleScenario.node[468].veinsmobility  speed  ETV
vector 46066  IntersectionExampleScenario.node[468].veinsmobility  acceleration  ETV
vector 46067  IntersectionExampleScenario.node[468].veinsmobility  co2emission  ETV
46018	14254824 6236 112700 114913 1718.75 1762.5 176 0.973 11.36141391502 539.16625050603 2757.7128903886
46017	14261060 6050 112700 114913 1718.75 1762.5 176 -4.5 2.5 38.680875778198 356.19246074462
46016	14267110 6282 112683 114913 1718.5 1762.5 177 2.7170326709747 15.387427330017 2209.4833929539 30644.882750786
46015	14273392 6569 112666 114913 1718.25 1762.5 178 486.80380249023 793.78281402588 101516.90888977 59815167.717544
46014	14279961 6584 112666 114913 1718.25 1762.5 178 238.45288085938 483.14999389648 77952.183288574 35081358.716805
vector 46070  IntersectionExampleScenario.node[469].veinsmobility  posx  ETV
vector 46071  IntersectionExampleScenario.node[469].veinsmobility  posy  ETV
vector 46072  IntersectionExampleScenario.node[469].veinsmobility  speed  ETV
vector 46073  IntersectionExampleScenario.node[469].veinsmobility  acceleration  ETV
vector 46074  IntersectionExampleScenario.node[469].veinsmobility  co2emission  ETV
46025	14286951 5587 113112 114973 1725.5 1765 159 0.973 12.077867271957 581.96515117813 3763.1259077958
46024	14292538 5250 113112 114973 1725.5 1765 159 -3.8305320739746 2.5 41.227170944214 364.88810922046
46023	14297788 5614 113095 114973 1725.25 1765 160 5.6500000953674 16.245777130127 2211.5962028503 31752.886122303
46022	14303402 5948 113078 114973 1725 1765 161 483.14999389648 785.82187652588 92139.617622375 54476011.260585
46021	14309350 5948 113078 114973 1725 1765 161 483.14999389648 734.16932678223 85905.944061279 46783427.707706
vector 46077  IntersectionExampleScenario.node[470].veinsmobility  posx  ETV
vector 46078  IntersectionExampleScenario.node[470].veinsmobility  posy  ETV
vector 46079  IntersectionExampleScenario.node[470].veinsmobility  speed  ETV
vector 46080  IntersectionExampleScenario.node[470].veinsmobility  acceleration  ETV
vector 46081  IntersectionExampleScenario.node[470].veinsmobility  co2emission  ETV
46032	14315704 6001 113269 115096 1727.75 1769.25 167 0.973 11.200708441096 481.26621817821 2381.0528648414
46031	14321705 5786 113269 115096 1727.75 1769.25 167 -3.4955406188965 2.5 35.964826583862 205.76396854062
46030	14327491 5943 113250 115096 1727.5 1769.25 168 5.6500000953674 15.02499961853 2278.2873620987 31651.264192472
46029	14333434 6242 113231 115096 1727.25 1769.25 169 482.94854736328 802.70781707764 97706.626480103 58570410.020414
46028	14339676 6244 113231 115096 1727.25 1769.25 169 483.14999389648 734.58247375488 90479.857772827 49460775.646246
46039	14345920 6043 113365 115150 1729 1770.75 168 0.973 10.996924524979 526.53359435616 2614.8412725373
46038	14351963 5861 113365 115150 1729 1770.75 168 -4.5 2.5 38.171613693237 254.66804495993
46037	14357824 5994 113346 115150 1728.75 1770.75 169 5.6500000953674 15.251343727112 2322.0217075348 32848.735403504
46036	14363818 6279 113326 115150 1728.5 1770.75 170 483.14999389648 815.53829193115 99290.908370972 60278917.148249
46035	14370097 6284 113326 115150 1728.5 1770.75 170 483.14999389648 731.7862701416 90486.250915527 49135070.445868
46046	14376381 6212 113503 115303 1731 1775 177 0.973 11.90022389248 560.92240992329 3082.6618356542
46045	14382593 5839 113503 115303 1731 1775 177 -7.2641291618347 4 39.699392318726 488.74806203163
46044	14388432 6146 113486 115303 1730.75 1775 178 0 16 2217.2994669676 32035.832177997
46043	14394578 6622 113469 115303 1730.5 1775 179 486.85000610352 486.85000610352 87146.151092529 42427104.191296
46042	14401200 6611 113469 115303 1730.5 1775 179 235.46020507812 785.82187652588 92790.203041077 52216835.687489
46053	14407811 5516 113935 115348 1737.75 1776.25 155 0.93438186594183 12.26218747632 526.26849029578 3162.9645714964
46052	14413327 5328 113935 115348 1737.75 1776.25 155 -3.1938152313232 2.5 41.057416915894 304.61263804156
46051	14418655 5425 113918 115348 1737.5 1776.25 156 5.6500000953674 16.5 2176.9928736687 31978.887559993
46050	14424080 5805 113901 115348 1737.25 1776.25 157 238.72918701172 483.14999389648 68115.913146973 30426446.812108
46049	14429885 5784 113901 115348 1737.25 1776.25 157 184.17810058594 483.17318725586 62366.89440918 26480033.571987
vector 46084  IntersectionExampleScenario.node[471].veinsmobility  posx  ETV
vector 46085  IntersectionExampleScenario.node[471].veinsmobility  posy  ETV
vector 46086  IntersectionExampleScenario.node[471].veinsmobility  speed  ETV
vector 46087  IntersectionExampleScenario.node[471].veinsmobility  acceleration  ETV
vector 46088  IntersectionExampleScenario.node[471].veinsmobility  co2emission  ETV
vector 46091  IntersectionExampleScenario.node[472].veinsmobility  posx  ETV
vector 46092  IntersectionExampleScenario.node[472].veinsmobility  posy  ETV
vector 46093  IntersectionExampleScenario.node[472].veinsmobility  speed  ETV
vector 46094  IntersectionExampleScenario.node[472].veinsmobility  acceleration  ETV
vector 46095  IntersectionExampleScenario.node[472].veinsmobility  co2emission  ETV
vector 46098  IntersectionExampleScenario.node[473].veinsmobility  posx  ETV
vector 46099  IntersectionExampleScenario.node[473].veinsmobility  posy  ETV
vector 46100  IntersectionExampleScenario.node[473].veinsmobility  speed  ETV
vector 46101  IntersectionExampleScenario.node[473].veinsmobility  acceleration  ETV
vector 46102  IntersectionExampleScenario.node[473].veinsmobility  co2emission  ETV
vector 46105  IntersectionExampleScenario.node[474].veinsmobility  posx  ETV
vector 46106  IntersectionExampleScenario.node[474].veinsmobility  posy  ETV
46060	14437043 5669 114871 116036 1760.25 1799.25 157 0.973 11.648172402475 491.52726649725 2636.9338880946
46059	14442712 5198 114871 116036 1760.25 1799.25 157 -3.3749504089355 2.5 38.511121749878 234.68495490327
46058	14447910 5557 114866 116036 1760 1799.25 158 5.6500000953674 15.64999961853 2208.4046278 31807.746712363
46057	14453467 5863 114861 116036 1759.75 1799.25 159 184.17810058594 486.85000610352 63312.023651123 26984298.110733
46056	14459330 5878 114861 116036 1759.75 1799.25 159 236.83752441406 486.85000610352 69019.078063965 30914108.780926
vector 46107  IntersectionExampleScenario.node[474].veinsmobility  speed  ETV
46067	14465287 5594 114888 116045 1761.25 1799.5 154 0.973 11.648172402475 470.76336111104 2462.8829942015
46066	14470881 5170 114888 116045 1761.25 1799.5 154 -3.1964340209961 2.5 38.341367721558 191.50698189953
46065	14476051 5504 114883 116045 1761 1799.5 155 5.6500000953674 15.64999961853 2217.1332035065 32350.133301773
46064	14481555 5753 114878 116045 1760.75 1799.5 156 236.734375 785.82187652588 81337.366569519 46547903.090508
46063	14487308 5772 114878 116045 1760.75 1799.5 156 483.14999389648 483.14999389648 75371.399047852 36415690.989939
vector 46108  IntersectionExampleScenario.node[474].veinsmobility  acceleration  ETV
vector 46109  IntersectionExampleScenario.node[474].veinsmobility  co2emission  ETV
vector 46112  IntersectionExampleScenario.node[475].veinsmobility  posx  ETV
vector 46113  IntersectionExampleScenario.node[475].veinsmobility  posy  ETV
46074	14493407 5148 114952 116064 1764.25 1800 144 0.973 11.36141391502 461.6758731268 2545.2877579977
46073	14498555 4856 114952 116064 1764.25 1800 144 -3.1120948791504 2.5 36.983442306519 285.69887245506
46072	14503411 5073 114945 116064 1764 1800 145 5.6500000953674 15.25 1868.1152634621 25485.014257063
46071	14508484 5383 114938 116064 1763.75 1800 146 315.65087890625 483.14999389648 66601.378875732 30711753.980323
46070	14513867 5373 114938 116064 1763.75 1800 146 184.17810058594 483.14999389648 56434.93637085 23417112.247926
46081	14519240 4389 115096 116064 1769.25 1800 124 0.973 11.450879080643 414.97601910741 2479.6720298916
46080	14523629 4298 115096 116064 1769.25 1800 124 -3.6541213989258 2.5 37.158628463745 238.67204940346
46079	14527927 4340 115087 116064 1769 1800 125 5.6500000953674 15.375 1676.3711061478 23242.147056817
46078	14532267 4658 115078 116064 1768.75 1800 126 483.14999389648 600.90255737305 62858.839904785 31481546.164951
46077	14536925 4642 115078 116064 1768.75 1800 126 184.17810058594 487.06005859375 47005.127075195 18969467.406477
46088	14541567 2835 115496 116064 1780.25 1800 80 0.973 11.648172402475 258.88436323017 1445.9578856636
46087	14544402 2751 115496 116064 1780.25 1800 80 -3.0575180053711 2.5 5.5744686126709 196.29945601995
46086	14547153 2974 115485 116064 1780 1800 81 5.6500000953674 15.64999961853 1121.5862560272 16178.947871741
46085	14550127 3010 115474 116064 1779.75 1800 82 184.17810058594 462.29046630859 25991.318603516 8875502.9793613
46084	14553137 3033 115474 116064 1779.75 1800 82 486.85000610352 486.85000610352 39921.700500488 19435880.132325
46095	14556170 1548 115805 116064 1789.75 1800 42 1.9337556822354 11.648172402475 190.61551721984 1311.1740115134
46094	14557718 1472 115805 116064 1789.75 1800 42 -0.075153350830078 2.5 39.699556350708 100.01290034845
46093	14559190 1577 115798 116064 1789.5 1800 43 5.6500000953674 15.64999961853 586.22133159637 8401.5554518111
46092	14560767 1606 115791 116064 1789.25 1800 44 184.17810058594 325.51550292969 10800.626525879 2738815.0308917
46091	14562373 1628 115791 116064 1789.25 1800 44 486.85000610352 486.85000610352 21421.400268555 10429008.851492
46102	14564001 441 115980 116064 1797.25 1800 12 5.2162187258585 9.8772939209111 90.329754123875 705.60800469607
46101	14564442 312 115980 116064 1797.25 1800 12 2.4999980926514 2.5 29.999998092651 74.99999046326
46100	14564754 473 115973 116064 1797 1800 13 5.6500000953674 13.14999961853 122.19999694824 1219.7736818981
46099	14565227 517 115966 116064 1796.75 1800 14 759.49688720703 785.82187652588 10852.737617493 8414003.5481247
46098	14565744 517 115966 116064 1796.75 1800 14 483.14999389648 483.14999389648 6764.0999145508 3268074.8324304
46109	14566261 73 116054 116064 1799.75 1800 2 5.2162187258585 5.6304533568076 10.846672082666 58.910942799184
46108	14566334 49 116054 116064 1799.75 1800 2 2.5 2.5 5 12.5
46107	14566383 110 116045 116064 1799.5 1800 3 5.6500000953674 6.9000000953674 18.825000286102 118.90812859058
46106	14566493 148 116036 116064 1799.25 1800 4 184.17810058594 187.00311279297 740.87182617188 137228.20185051
46105	14566641 148 116036 116064 1799.25 1800 4 486.85000610352 486.85000610352 1947.4000244141 948091.71377197
46113	14566789 35 116064 116064 1800 1800 1 483.14999389648 483.14999389648 483.14999389648 233433.91660217
46112	14566824 35 116064 116064 1800 1800 1 184.17810058594 184.17810058594 184.17810058594 33921.572735444
42783	14566859 619 0 116063 0 1800 31 0 19 354 4514
42784	14567478 630 0 116063 0 1800 31 0 123 1895 160789
