version 2
run nodebug-47-20200606-16:15:40-20656
attr configname nodebug
attr datetime 20200606-16:15:40
attr experiment nodebug
attr inifile omnetpp.ini
attr iterationvars ""
attr iterationvars2 $repetition=47
attr measurement ""
attr network "\"org.car2x.veins.modules.application.ExtTraCIScenarioManagerLaunchd.IntersectionExampleScenario\""
attr processid 20656
attr repetition 47
attr replication #47
attr resultdir results
attr runnumber 47
attr seedset 47
param **.coreDebug false
param **.debug false
param *.**.nic.mac1609_4.bitrate 18Mbps
param *.**.nic.mac1609_4.txPower 20mW
param *.**.nic.mac1609_4.useServiceChannel false
param *.**.nic.phy80211p.analogueModels "xmldoc(\"config.xml\")"
param *.**.nic.phy80211p.decider "xmldoc(\"config.xml\")"
param *.**.nic.phy80211p.sensitivity -89dBm
param *.**.nic.phy80211p.thermalNoise -110dBm
param *.**.nic.phy80211p.usePropagationDelay true
param *.**.nic.phy80211p.useThermalNoise true
param *.annotations.draw false
param *.connectionManager.alpha 2.0
param *.connectionManager.carrierFrequency "5.890e9 Hz"
param *.connectionManager.pMax 20mW
param *.connectionManager.sat -89dBm
param *.connectionManager.sendDirect true
param *.manager.autoShutdown true
param *.manager.host "\"localhost\""
param *.manager.launchConfig "xmldoc(\"paramics.launchd.xml\")"
param *.manager.margin 25
param *.manager.moduleDisplayString "\"\""
param *.manager.moduleName "\"node\""
param *.manager.moduleType "\"org.car2x.veins.nodes.Car\""
param *.manager.port 9999
param *.manager.updateInterval 250ms
param *.node[*0].veinsmobility.accidentCount 0
param *.node[*0].veinsmobility.accidentDuration 30s
param *.node[*0].veinsmobility.accidentStart 75s
param *.node[*].appl.LiderSelectZoneRadio 55.0
param *.node[*].appl.ShareDataZoneRadio 110.0
param *.node[*].appl.TiempoSemaforo 30.0
param *.node[*].appl.beaconInterval 1s
param *.node[*].appl.beaconPriority 3
param *.node[*].appl.dataOnSch false
param *.node[*].appl.dataPriority 2
param *.node[*].appl.debug false
param *.node[*].appl.headerLength "256 bit"
param *.node[*].appl.maxOffset 0.005s
param *.node[*].appl.sendBeacons false
param *.node[*].appl.sendData true
param *.node[*].applType "\"Dummy\""
param *.node[*].mobilityType "\"TraCIMobility\""
param *.node[*].mobilityType.debug true
param *.node[*].veinsmobility.x 0
param *.node[*].veinsmobility.y 0
param *.node[*].veinsmobility.z 1.895
param *.node[*].veinsmobilityType "\"org.car2x.veins.modules.mobility.traci.TraCIMobility\""
param *.node[*].veinsmobilityType.debug true
param *.playgroundSizeX 8500m
param *.playgroundSizeY 8500m
param *.playgroundSizeZ 50m
param *.world.use2D false
param *.world.useTorus false

scalar IntersectionExampleScenario.node[4].appl 	VehicleRemoved 	0
scalar IntersectionExampleScenario.node[4].appl 	ArrivedAtDest 	1
scalar IntersectionExampleScenario.node[4].appl 	IntersectionEnterTime 	6.75
scalar IntersectionExampleScenario.node[4].appl 	IntersectionExitTime 	30.284193486092
scalar IntersectionExampleScenario.node[4].appl 	NumberOfCollisions 	0
scalar IntersectionExampleScenario.node[4].nic.phy80211p 	busyTime 	0
scalar IntersectionExampleScenario.node[4].nic.mac1609_4 	ReceivedUnicastPackets 	0
scalar IntersectionExampleScenario.node[4].nic.mac1609_4 	ReceivedBroadcasts 	0
scalar IntersectionExampleScenario.node[4].nic.mac1609_4 	SentPackets 	0
scalar IntersectionExampleScenario.node[4].nic.mac1609_4 	SNIRLostPackets 	0
scalar IntersectionExampleScenario.node[4].nic.mac1609_4 	RXTXLostPackets 	0
scalar IntersectionExampleScenario.node[4].nic.mac1609_4 	TotalLostPackets 	0
scalar IntersectionExampleScenario.node[4].nic.mac1609_4 	DroppedPacketsInMac 	0
scalar IntersectionExampleScenario.node[4].nic.mac1609_4 	TooLittleTime 	0
scalar IntersectionExampleScenario.node[4].nic.mac1609_4 	TimesIntoBackoff 	0
scalar IntersectionExampleScenario.node[4].nic.mac1609_4 	SlotsBackoff 	0
scalar IntersectionExampleScenario.node[4].nic.mac1609_4 	NumInternalContention 	0
scalar IntersectionExampleScenario.node[4].nic.mac1609_4 	totalBusyTime 	0
scalar IntersectionExampleScenario.node[4].veinsmobility 	startTime 	6.75
scalar IntersectionExampleScenario.node[4].veinsmobility 	totalTime 	40.25
scalar IntersectionExampleScenario.node[4].veinsmobility 	stopTime 	47.25
scalar IntersectionExampleScenario.node[4].veinsmobility 	minSpeed 	5.6500000953674
scalar IntersectionExampleScenario.node[4].veinsmobility 	maxSpeed 	15.64999961853
scalar IntersectionExampleScenario.node[4].veinsmobility 	totalDistance 	545.75284924349
scalar IntersectionExampleScenario.node[4].veinsmobility 	totalCO2Emission 	126.65543267184
scalar IntersectionExampleScenario.node[0].appl 	VehicleRemoved 	0
scalar IntersectionExampleScenario.node[0].appl 	ArrivedAtDest 	1
scalar IntersectionExampleScenario.node[0].appl 	IntersectionEnterTime 	1.5
scalar IntersectionExampleScenario.node[0].appl 	IntersectionExitTime 	33.543933475856
scalar IntersectionExampleScenario.node[0].appl 	NumberOfCollisions 	0
scalar IntersectionExampleScenario.node[0].nic.phy80211p 	busyTime 	0
scalar IntersectionExampleScenario.node[0].nic.mac1609_4 	ReceivedUnicastPackets 	0
scalar IntersectionExampleScenario.node[0].nic.mac1609_4 	ReceivedBroadcasts 	0
scalar IntersectionExampleScenario.node[0].nic.mac1609_4 	SentPackets 	0
scalar IntersectionExampleScenario.node[0].nic.mac1609_4 	SNIRLostPackets 	0
scalar IntersectionExampleScenario.node[0].nic.mac1609_4 	RXTXLostPackets 	0
scalar IntersectionExampleScenario.node[0].nic.mac1609_4 	TotalLostPackets 	0
scalar IntersectionExampleScenario.node[0].nic.mac1609_4 	DroppedPacketsInMac 	0
scalar IntersectionExampleScenario.node[0].nic.mac1609_4 	TooLittleTime 	0
scalar IntersectionExampleScenario.node[0].nic.mac1609_4 	TimesIntoBackoff 	0
scalar IntersectionExampleScenario.node[0].nic.mac1609_4 	SlotsBackoff 	0
scalar IntersectionExampleScenario.node[0].nic.mac1609_4 	NumInternalContention 	0
scalar IntersectionExampleScenario.node[0].nic.mac1609_4 	totalBusyTime 	0
scalar IntersectionExampleScenario.node[0].veinsmobility 	startTime 	1.5
scalar IntersectionExampleScenario.node[0].veinsmobility 	totalTime 	47.75
scalar IntersectionExampleScenario.node[0].veinsmobility 	stopTime 	49.5
scalar IntersectionExampleScenario.node[0].veinsmobility 	minSpeed 	0
scalar IntersectionExampleScenario.node[0].veinsmobility 	maxSpeed 	17.125
scalar IntersectionExampleScenario.node[0].veinsmobility 	totalDistance 	546.21554471404
scalar IntersectionExampleScenario.node[0].veinsmobility 	totalCO2Emission 	151.62342430834
scalar IntersectionExampleScenario.node[2].appl 	VehicleRemoved 	0
scalar IntersectionExampleScenario.node[2].appl 	ArrivedAtDest 	1
scalar IntersectionExampleScenario.node[2].appl 	IntersectionEnterTime 	4
scalar IntersectionExampleScenario.node[2].appl 	IntersectionExitTime 	33.503001419478
scalar IntersectionExampleScenario.node[2].appl 	NumberOfCollisions 	0
scalar IntersectionExampleScenario.node[2].nic.phy80211p 	busyTime 	0
scalar IntersectionExampleScenario.node[2].nic.mac1609_4 	ReceivedUnicastPackets 	0
scalar IntersectionExampleScenario.node[2].nic.mac1609_4 	ReceivedBroadcasts 	0
scalar IntersectionExampleScenario.node[2].nic.mac1609_4 	SentPackets 	0
scalar IntersectionExampleScenario.node[2].nic.mac1609_4 	SNIRLostPackets 	0
scalar IntersectionExampleScenario.node[2].nic.mac1609_4 	RXTXLostPackets 	0
scalar IntersectionExampleScenario.node[2].nic.mac1609_4 	TotalLostPackets 	0
scalar IntersectionExampleScenario.node[2].nic.mac1609_4 	DroppedPacketsInMac 	0
scalar IntersectionExampleScenario.node[2].nic.mac1609_4 	TooLittleTime 	0
scalar IntersectionExampleScenario.node[2].nic.mac1609_4 	TimesIntoBackoff 	0
scalar IntersectionExampleScenario.node[2].nic.mac1609_4 	SlotsBackoff 	0
scalar IntersectionExampleScenario.node[2].nic.mac1609_4 	NumInternalContention 	0
scalar IntersectionExampleScenario.node[2].nic.mac1609_4 	totalBusyTime 	0
scalar IntersectionExampleScenario.node[2].veinsmobility 	startTime 	4
scalar IntersectionExampleScenario.node[2].veinsmobility 	totalTime 	46.25
scalar IntersectionExampleScenario.node[2].veinsmobility 	stopTime 	50.5
scalar IntersectionExampleScenario.node[2].veinsmobility 	minSpeed 	0
scalar IntersectionExampleScenario.node[2].veinsmobility 	maxSpeed 	15.64999961853
scalar IntersectionExampleScenario.node[2].veinsmobility 	totalDistance 	544.42740537078
scalar IntersectionExampleScenario.node[2].veinsmobility 	totalCO2Emission 	138.42374088446
scalar IntersectionExampleScenario.node[1].appl 	VehicleRemoved 	0
scalar IntersectionExampleScenario.node[1].appl 	ArrivedAtDest 	1
scalar IntersectionExampleScenario.node[1].appl 	IntersectionEnterTime 	3
scalar IntersectionExampleScenario.node[1].appl 	IntersectionExitTime 	35.301824951282
scalar IntersectionExampleScenario.node[1].appl 	NumberOfCollisions 	0
scalar IntersectionExampleScenario.node[1].nic.phy80211p 	busyTime 	0
scalar IntersectionExampleScenario.node[1].nic.mac1609_4 	ReceivedUnicastPackets 	0
scalar IntersectionExampleScenario.node[1].nic.mac1609_4 	ReceivedBroadcasts 	0
scalar IntersectionExampleScenario.node[1].nic.mac1609_4 	SentPackets 	0
scalar IntersectionExampleScenario.node[1].nic.mac1609_4 	SNIRLostPackets 	0
scalar IntersectionExampleScenario.node[1].nic.mac1609_4 	RXTXLostPackets 	0
scalar IntersectionExampleScenario.node[1].nic.mac1609_4 	TotalLostPackets 	0
scalar IntersectionExampleScenario.node[1].nic.mac1609_4 	DroppedPacketsInMac 	0
scalar IntersectionExampleScenario.node[1].nic.mac1609_4 	TooLittleTime 	0
scalar IntersectionExampleScenario.node[1].nic.mac1609_4 	TimesIntoBackoff 	0
scalar IntersectionExampleScenario.node[1].nic.mac1609_4 	SlotsBackoff 	0
scalar IntersectionExampleScenario.node[1].nic.mac1609_4 	NumInternalContention 	0
scalar IntersectionExampleScenario.node[1].nic.mac1609_4 	totalBusyTime 	0
scalar IntersectionExampleScenario.node[1].veinsmobility 	startTime 	3
scalar IntersectionExampleScenario.node[1].veinsmobility 	totalTime 	48.25
scalar IntersectionExampleScenario.node[1].veinsmobility 	stopTime 	51.5
scalar IntersectionExampleScenario.node[1].veinsmobility 	minSpeed 	0
scalar IntersectionExampleScenario.node[1].veinsmobility 	maxSpeed 	15.64999961853
scalar IntersectionExampleScenario.node[1].veinsmobility 	totalDistance 	573.14059448242
scalar IntersectionExampleScenario.node[1].veinsmobility 	totalCO2Emission 	141.40440619535
scalar IntersectionExampleScenario.node[3].appl 	VehicleRemoved 	0
scalar IntersectionExampleScenario.node[3].appl 	ArrivedAtDest 	1
scalar IntersectionExampleScenario.node[3].appl 	IntersectionEnterTime 	4.75
scalar IntersectionExampleScenario.node[3].appl 	IntersectionExitTime 	37.290275993088
scalar IntersectionExampleScenario.node[3].appl 	NumberOfCollisions 	0
scalar IntersectionExampleScenario.node[3].nic.phy80211p 	busyTime 	0
scalar IntersectionExampleScenario.node[3].nic.mac1609_4 	ReceivedUnicastPackets 	0
scalar IntersectionExampleScenario.node[3].nic.mac1609_4 	ReceivedBroadcasts 	0
scalar IntersectionExampleScenario.node[3].nic.mac1609_4 	SentPackets 	0
scalar IntersectionExampleScenario.node[3].nic.mac1609_4 	SNIRLostPackets 	0
scalar IntersectionExampleScenario.node[3].nic.mac1609_4 	RXTXLostPackets 	0
scalar IntersectionExampleScenario.node[3].nic.mac1609_4 	TotalLostPackets 	0
scalar IntersectionExampleScenario.node[3].nic.mac1609_4 	DroppedPacketsInMac 	0
scalar IntersectionExampleScenario.node[3].nic.mac1609_4 	TooLittleTime 	0
scalar IntersectionExampleScenario.node[3].nic.mac1609_4 	TimesIntoBackoff 	0
scalar IntersectionExampleScenario.node[3].nic.mac1609_4 	SlotsBackoff 	0
scalar IntersectionExampleScenario.node[3].nic.mac1609_4 	NumInternalContention 	0
scalar IntersectionExampleScenario.node[3].nic.mac1609_4 	totalBusyTime 	0
scalar IntersectionExampleScenario.node[3].veinsmobility 	startTime 	4.75
scalar IntersectionExampleScenario.node[3].veinsmobility 	totalTime 	48.75
scalar IntersectionExampleScenario.node[3].veinsmobility 	stopTime 	53.75
scalar IntersectionExampleScenario.node[3].veinsmobility 	minSpeed 	2.54154753685
scalar IntersectionExampleScenario.node[3].veinsmobility 	maxSpeed 	15.875
scalar IntersectionExampleScenario.node[3].veinsmobility 	totalDistance 	572.85621607797
scalar IntersectionExampleScenario.node[3].veinsmobility 	totalCO2Emission 	146.88271100746
scalar IntersectionExampleScenario.node[6].appl 	VehicleRemoved 	0
scalar IntersectionExampleScenario.node[6].appl 	ArrivedAtDest 	1
scalar IntersectionExampleScenario.node[6].appl 	IntersectionEnterTime 	16.25
scalar IntersectionExampleScenario.node[6].appl 	IntersectionExitTime 	40.366904474591
scalar IntersectionExampleScenario.node[6].appl 	NumberOfCollisions 	0
scalar IntersectionExampleScenario.node[6].nic.phy80211p 	busyTime 	0
scalar IntersectionExampleScenario.node[6].nic.mac1609_4 	ReceivedUnicastPackets 	0
scalar IntersectionExampleScenario.node[6].nic.mac1609_4 	ReceivedBroadcasts 	0
scalar IntersectionExampleScenario.node[6].nic.mac1609_4 	SentPackets 	0
scalar IntersectionExampleScenario.node[6].nic.mac1609_4 	SNIRLostPackets 	0
scalar IntersectionExampleScenario.node[6].nic.mac1609_4 	RXTXLostPackets 	0
scalar IntersectionExampleScenario.node[6].nic.mac1609_4 	TotalLostPackets 	0
scalar IntersectionExampleScenario.node[6].nic.mac1609_4 	DroppedPacketsInMac 	0
scalar IntersectionExampleScenario.node[6].nic.mac1609_4 	TooLittleTime 	0
scalar IntersectionExampleScenario.node[6].nic.mac1609_4 	TimesIntoBackoff 	0
scalar IntersectionExampleScenario.node[6].nic.mac1609_4 	SlotsBackoff 	0
scalar IntersectionExampleScenario.node[6].nic.mac1609_4 	NumInternalContention 	0
scalar IntersectionExampleScenario.node[6].nic.mac1609_4 	totalBusyTime 	0
scalar IntersectionExampleScenario.node[6].veinsmobility 	startTime 	16.25
scalar IntersectionExampleScenario.node[6].veinsmobility 	totalTime 	40
scalar IntersectionExampleScenario.node[6].veinsmobility 	stopTime 	56.5
scalar IntersectionExampleScenario.node[6].veinsmobility 	minSpeed 	5.6500000953674
scalar IntersectionExampleScenario.node[6].veinsmobility 	maxSpeed 	16.27499961853
scalar IntersectionExampleScenario.node[6].veinsmobility 	totalDistance 	551.2056588397
scalar IntersectionExampleScenario.node[6].veinsmobility 	totalCO2Emission 	141.046678516
scalar IntersectionExampleScenario.node[7].appl 	VehicleRemoved 	0
scalar IntersectionExampleScenario.node[7].appl 	ArrivedAtDest 	1
scalar IntersectionExampleScenario.node[7].appl 	IntersectionEnterTime 	17.75
scalar IntersectionExampleScenario.node[7].appl 	IntersectionExitTime 	40.536682477832
scalar IntersectionExampleScenario.node[7].appl 	NumberOfCollisions 	0
scalar IntersectionExampleScenario.node[7].nic.phy80211p 	busyTime 	0
scalar IntersectionExampleScenario.node[7].nic.mac1609_4 	ReceivedUnicastPackets 	0
scalar IntersectionExampleScenario.node[7].nic.mac1609_4 	ReceivedBroadcasts 	0
scalar IntersectionExampleScenario.node[7].nic.mac1609_4 	SentPackets 	0
scalar IntersectionExampleScenario.node[7].nic.mac1609_4 	SNIRLostPackets 	0
scalar IntersectionExampleScenario.node[7].nic.mac1609_4 	RXTXLostPackets 	0
scalar IntersectionExampleScenario.node[7].nic.mac1609_4 	TotalLostPackets 	0
scalar IntersectionExampleScenario.node[7].nic.mac1609_4 	DroppedPacketsInMac 	0
scalar IntersectionExampleScenario.node[7].nic.mac1609_4 	TooLittleTime 	0
scalar IntersectionExampleScenario.node[7].nic.mac1609_4 	TimesIntoBackoff 	0
scalar IntersectionExampleScenario.node[7].nic.mac1609_4 	SlotsBackoff 	0
scalar IntersectionExampleScenario.node[7].nic.mac1609_4 	NumInternalContention 	0
scalar IntersectionExampleScenario.node[7].nic.mac1609_4 	totalBusyTime 	0
scalar IntersectionExampleScenario.node[7].veinsmobility 	startTime 	17.75
scalar IntersectionExampleScenario.node[7].veinsmobility 	totalTime 	38.75
scalar IntersectionExampleScenario.node[7].veinsmobility 	stopTime 	56.75
scalar IntersectionExampleScenario.node[7].veinsmobility 	minSpeed 	5.6500000953674
scalar IntersectionExampleScenario.node[7].veinsmobility 	maxSpeed 	16.27499961853
scalar IntersectionExampleScenario.node[7].veinsmobility 	totalDistance 	551.07184833633
scalar IntersectionExampleScenario.node[7].veinsmobility 	totalCO2Emission 	126.63628737775
scalar IntersectionExampleScenario.node[11].appl 	VehicleRemoved 	0
scalar IntersectionExampleScenario.node[11].appl 	ArrivedAtDest 	1
scalar IntersectionExampleScenario.node[11].appl 	IntersectionEnterTime 	24.5
scalar IntersectionExampleScenario.node[11].appl 	IntersectionExitTime 	47.50984418008
scalar IntersectionExampleScenario.node[11].appl 	NumberOfCollisions 	0
scalar IntersectionExampleScenario.node[11].nic.phy80211p 	busyTime 	0
scalar IntersectionExampleScenario.node[11].nic.mac1609_4 	ReceivedUnicastPackets 	0
scalar IntersectionExampleScenario.node[11].nic.mac1609_4 	ReceivedBroadcasts 	0
scalar IntersectionExampleScenario.node[11].nic.mac1609_4 	SentPackets 	0
scalar IntersectionExampleScenario.node[11].nic.mac1609_4 	SNIRLostPackets 	0
scalar IntersectionExampleScenario.node[11].nic.mac1609_4 	RXTXLostPackets 	0
scalar IntersectionExampleScenario.node[11].nic.mac1609_4 	TotalLostPackets 	0
scalar IntersectionExampleScenario.node[11].nic.mac1609_4 	DroppedPacketsInMac 	0
scalar IntersectionExampleScenario.node[11].nic.mac1609_4 	TooLittleTime 	0
scalar IntersectionExampleScenario.node[11].nic.mac1609_4 	TimesIntoBackoff 	0
scalar IntersectionExampleScenario.node[11].nic.mac1609_4 	SlotsBackoff 	0
scalar IntersectionExampleScenario.node[11].nic.mac1609_4 	NumInternalContention 	0
scalar IntersectionExampleScenario.node[11].nic.mac1609_4 	totalBusyTime 	0
scalar IntersectionExampleScenario.node[11].veinsmobility 	startTime 	24.5
scalar IntersectionExampleScenario.node[11].veinsmobility 	totalTime 	39
scalar IntersectionExampleScenario.node[11].veinsmobility 	stopTime 	63.75
scalar IntersectionExampleScenario.node[11].veinsmobility 	minSpeed 	5.6500000953674
scalar IntersectionExampleScenario.node[11].veinsmobility 	maxSpeed 	16
scalar IntersectionExampleScenario.node[11].veinsmobility 	totalDistance 	551.94977433873
scalar IntersectionExampleScenario.node[11].veinsmobility 	totalCO2Emission 	125.13138713895
scalar IntersectionExampleScenario.node[8].appl 	VehicleRemoved 	0
scalar IntersectionExampleScenario.node[8].appl 	ArrivedAtDest 	1
scalar IntersectionExampleScenario.node[8].appl 	IntersectionEnterTime 	19.5
scalar IntersectionExampleScenario.node[8].appl 	IntersectionExitTime 	48.867781996552
scalar IntersectionExampleScenario.node[8].appl 	NumberOfCollisions 	0
scalar IntersectionExampleScenario.node[8].nic.phy80211p 	busyTime 	0
scalar IntersectionExampleScenario.node[8].nic.mac1609_4 	ReceivedUnicastPackets 	0
scalar IntersectionExampleScenario.node[8].nic.mac1609_4 	ReceivedBroadcasts 	0
scalar IntersectionExampleScenario.node[8].nic.mac1609_4 	SentPackets 	0
scalar IntersectionExampleScenario.node[8].nic.mac1609_4 	SNIRLostPackets 	0
scalar IntersectionExampleScenario.node[8].nic.mac1609_4 	RXTXLostPackets 	0
scalar IntersectionExampleScenario.node[8].nic.mac1609_4 	TotalLostPackets 	0
scalar IntersectionExampleScenario.node[8].nic.mac1609_4 	DroppedPacketsInMac 	0
scalar IntersectionExampleScenario.node[8].nic.mac1609_4 	TooLittleTime 	0
scalar IntersectionExampleScenario.node[8].nic.mac1609_4 	TimesIntoBackoff 	0
scalar IntersectionExampleScenario.node[8].nic.mac1609_4 	SlotsBackoff 	0
scalar IntersectionExampleScenario.node[8].nic.mac1609_4 	NumInternalContention 	0
scalar IntersectionExampleScenario.node[8].nic.mac1609_4 	totalBusyTime 	0
scalar IntersectionExampleScenario.node[8].veinsmobility 	startTime 	19.5
scalar IntersectionExampleScenario.node[8].veinsmobility 	totalTime 	45
scalar IntersectionExampleScenario.node[8].veinsmobility 	stopTime 	64.75
scalar IntersectionExampleScenario.node[8].veinsmobility 	minSpeed 	0
scalar IntersectionExampleScenario.node[8].veinsmobility 	maxSpeed 	16.27499961853
scalar IntersectionExampleScenario.node[8].veinsmobility 	totalDistance 	549.00840120744
scalar IntersectionExampleScenario.node[8].veinsmobility 	totalCO2Emission 	141.11850723201
scalar IntersectionExampleScenario.node[5].appl 	VehicleRemoved 	0
scalar IntersectionExampleScenario.node[5].appl 	ArrivedAtDest 	1
scalar IntersectionExampleScenario.node[5].appl 	IntersectionEnterTime 	10.75
scalar IntersectionExampleScenario.node[5].appl 	IntersectionExitTime 	49.250654744421
scalar IntersectionExampleScenario.node[5].appl 	NumberOfCollisions 	0
scalar IntersectionExampleScenario.node[5].nic.phy80211p 	busyTime 	0
scalar IntersectionExampleScenario.node[5].nic.mac1609_4 	ReceivedUnicastPackets 	0
scalar IntersectionExampleScenario.node[5].nic.mac1609_4 	ReceivedBroadcasts 	0
scalar IntersectionExampleScenario.node[5].nic.mac1609_4 	SentPackets 	0
scalar IntersectionExampleScenario.node[5].nic.mac1609_4 	SNIRLostPackets 	0
scalar IntersectionExampleScenario.node[5].nic.mac1609_4 	RXTXLostPackets 	0
scalar IntersectionExampleScenario.node[5].nic.mac1609_4 	TotalLostPackets 	0
scalar IntersectionExampleScenario.node[5].nic.mac1609_4 	DroppedPacketsInMac 	0
scalar IntersectionExampleScenario.node[5].nic.mac1609_4 	TooLittleTime 	0
scalar IntersectionExampleScenario.node[5].nic.mac1609_4 	TimesIntoBackoff 	0
scalar IntersectionExampleScenario.node[5].nic.mac1609_4 	SlotsBackoff 	0
scalar IntersectionExampleScenario.node[5].nic.mac1609_4 	NumInternalContention 	0
scalar IntersectionExampleScenario.node[5].nic.mac1609_4 	totalBusyTime 	0
scalar IntersectionExampleScenario.node[5].veinsmobility 	startTime 	10.75
scalar IntersectionExampleScenario.node[5].veinsmobility 	totalTime 	54.5
scalar IntersectionExampleScenario.node[5].veinsmobility 	stopTime 	65.5
scalar IntersectionExampleScenario.node[5].veinsmobility 	minSpeed 	0
scalar IntersectionExampleScenario.node[5].veinsmobility 	maxSpeed 	15.64999961853
scalar IntersectionExampleScenario.node[5].veinsmobility 	totalDistance 	555.61292375674
scalar IntersectionExampleScenario.node[5].veinsmobility 	totalCO2Emission 	148.7578612092
scalar IntersectionExampleScenario.node[10].appl 	VehicleRemoved 	0
scalar IntersectionExampleScenario.node[10].appl 	ArrivedAtDest 	1
scalar IntersectionExampleScenario.node[10].appl 	IntersectionEnterTime 	21.5
scalar IntersectionExampleScenario.node[10].appl 	IntersectionExitTime 	50.344316979637
scalar IntersectionExampleScenario.node[10].appl 	NumberOfCollisions 	0
scalar IntersectionExampleScenario.node[10].nic.phy80211p 	busyTime 	0
scalar IntersectionExampleScenario.node[10].nic.mac1609_4 	ReceivedUnicastPackets 	0
scalar IntersectionExampleScenario.node[10].nic.mac1609_4 	ReceivedBroadcasts 	0
scalar IntersectionExampleScenario.node[10].nic.mac1609_4 	SentPackets 	0
scalar IntersectionExampleScenario.node[10].nic.mac1609_4 	SNIRLostPackets 	0
scalar IntersectionExampleScenario.node[10].nic.mac1609_4 	RXTXLostPackets 	0
scalar IntersectionExampleScenario.node[10].nic.mac1609_4 	TotalLostPackets 	0
scalar IntersectionExampleScenario.node[10].nic.mac1609_4 	DroppedPacketsInMac 	0
scalar IntersectionExampleScenario.node[10].nic.mac1609_4 	TooLittleTime 	0
scalar IntersectionExampleScenario.node[10].nic.mac1609_4 	TimesIntoBackoff 	0
scalar IntersectionExampleScenario.node[10].nic.mac1609_4 	SlotsBackoff 	0
scalar IntersectionExampleScenario.node[10].nic.mac1609_4 	NumInternalContention 	0
scalar IntersectionExampleScenario.node[10].nic.mac1609_4 	totalBusyTime 	0
scalar IntersectionExampleScenario.node[10].veinsmobility 	startTime 	21.5
scalar IntersectionExampleScenario.node[10].veinsmobility 	totalTime 	45
scalar IntersectionExampleScenario.node[10].veinsmobility 	stopTime 	66.75
scalar IntersectionExampleScenario.node[10].veinsmobility 	minSpeed 	1.7491366863251
scalar IntersectionExampleScenario.node[10].veinsmobility 	maxSpeed 	15.5
scalar IntersectionExampleScenario.node[10].veinsmobility 	totalDistance 	569.5470123291
scalar IntersectionExampleScenario.node[10].veinsmobility 	totalCO2Emission 	134.40716267481
scalar IntersectionExampleScenario.node[9].appl 	VehicleRemoved 	0
scalar IntersectionExampleScenario.node[9].appl 	ArrivedAtDest 	1
scalar IntersectionExampleScenario.node[9].appl 	IntersectionEnterTime 	20
scalar IntersectionExampleScenario.node[9].appl 	IntersectionExitTime 	50.565800485987
scalar IntersectionExampleScenario.node[9].appl 	NumberOfCollisions 	0
scalar IntersectionExampleScenario.node[9].nic.phy80211p 	busyTime 	0
scalar IntersectionExampleScenario.node[9].nic.mac1609_4 	ReceivedUnicastPackets 	0
scalar IntersectionExampleScenario.node[9].nic.mac1609_4 	ReceivedBroadcasts 	0
scalar IntersectionExampleScenario.node[9].nic.mac1609_4 	SentPackets 	0
scalar IntersectionExampleScenario.node[9].nic.mac1609_4 	SNIRLostPackets 	0
scalar IntersectionExampleScenario.node[9].nic.mac1609_4 	RXTXLostPackets 	0
scalar IntersectionExampleScenario.node[9].nic.mac1609_4 	TotalLostPackets 	0
scalar IntersectionExampleScenario.node[9].nic.mac1609_4 	DroppedPacketsInMac 	0
scalar IntersectionExampleScenario.node[9].nic.mac1609_4 	TooLittleTime 	0
scalar IntersectionExampleScenario.node[9].nic.mac1609_4 	TimesIntoBackoff 	0
scalar IntersectionExampleScenario.node[9].nic.mac1609_4 	SlotsBackoff 	0
scalar IntersectionExampleScenario.node[9].nic.mac1609_4 	NumInternalContention 	0
scalar IntersectionExampleScenario.node[9].nic.mac1609_4 	totalBusyTime 	0
scalar IntersectionExampleScenario.node[9].veinsmobility 	startTime 	20
scalar IntersectionExampleScenario.node[9].veinsmobility 	totalTime 	47.25
scalar IntersectionExampleScenario.node[9].veinsmobility 	stopTime 	67.5
scalar IntersectionExampleScenario.node[9].veinsmobility 	minSpeed 	2.3730680942535
scalar IntersectionExampleScenario.node[9].veinsmobility 	maxSpeed 	15.64999961853
scalar IntersectionExampleScenario.node[9].veinsmobility 	totalDistance 	544.72578904186
scalar IntersectionExampleScenario.node[9].veinsmobility 	totalCO2Emission 	136.99413981057
scalar IntersectionExampleScenario.node[14].appl 	VehicleRemoved 	0
scalar IntersectionExampleScenario.node[14].appl 	ArrivedAtDest 	1
scalar IntersectionExampleScenario.node[14].appl 	IntersectionEnterTime 	28.5
scalar IntersectionExampleScenario.node[14].appl 	IntersectionExitTime 	54.086193627852
scalar IntersectionExampleScenario.node[14].appl 	NumberOfCollisions 	0
scalar IntersectionExampleScenario.node[14].nic.phy80211p 	busyTime 	0
scalar IntersectionExampleScenario.node[14].nic.mac1609_4 	ReceivedUnicastPackets 	0
scalar IntersectionExampleScenario.node[14].nic.mac1609_4 	ReceivedBroadcasts 	0
scalar IntersectionExampleScenario.node[14].nic.mac1609_4 	SentPackets 	0
scalar IntersectionExampleScenario.node[14].nic.mac1609_4 	SNIRLostPackets 	0
scalar IntersectionExampleScenario.node[14].nic.mac1609_4 	RXTXLostPackets 	0
scalar IntersectionExampleScenario.node[14].nic.mac1609_4 	TotalLostPackets 	0
scalar IntersectionExampleScenario.node[14].nic.mac1609_4 	DroppedPacketsInMac 	0
scalar IntersectionExampleScenario.node[14].nic.mac1609_4 	TooLittleTime 	0
scalar IntersectionExampleScenario.node[14].nic.mac1609_4 	TimesIntoBackoff 	0
scalar IntersectionExampleScenario.node[14].nic.mac1609_4 	SlotsBackoff 	0
scalar IntersectionExampleScenario.node[14].nic.mac1609_4 	NumInternalContention 	0
scalar IntersectionExampleScenario.node[14].nic.mac1609_4 	totalBusyTime 	0
scalar IntersectionExampleScenario.node[14].veinsmobility 	startTime 	28.5
scalar IntersectionExampleScenario.node[14].veinsmobility 	totalTime 	42.25
scalar IntersectionExampleScenario.node[14].veinsmobility 	stopTime 	71
scalar IntersectionExampleScenario.node[14].veinsmobility 	minSpeed 	5.6500000953674
scalar IntersectionExampleScenario.node[14].veinsmobility 	maxSpeed 	15.64999961853
scalar IntersectionExampleScenario.node[14].veinsmobility 	totalDistance 	543.584093858
scalar IntersectionExampleScenario.node[14].veinsmobility 	totalCO2Emission 	135.61975828649
scalar IntersectionExampleScenario.node[15].appl 	VehicleRemoved 	0
scalar IntersectionExampleScenario.node[15].appl 	ArrivedAtDest 	1
scalar IntersectionExampleScenario.node[15].appl 	IntersectionEnterTime 	30.5
scalar IntersectionExampleScenario.node[15].appl 	IntersectionExitTime 	56.114618712803
scalar IntersectionExampleScenario.node[15].appl 	NumberOfCollisions 	0
scalar IntersectionExampleScenario.node[15].nic.phy80211p 	busyTime 	0
scalar IntersectionExampleScenario.node[15].nic.mac1609_4 	ReceivedUnicastPackets 	0
scalar IntersectionExampleScenario.node[15].nic.mac1609_4 	ReceivedBroadcasts 	0
scalar IntersectionExampleScenario.node[15].nic.mac1609_4 	SentPackets 	0
scalar IntersectionExampleScenario.node[15].nic.mac1609_4 	SNIRLostPackets 	0
scalar IntersectionExampleScenario.node[15].nic.mac1609_4 	RXTXLostPackets 	0
scalar IntersectionExampleScenario.node[15].nic.mac1609_4 	TotalLostPackets 	0
scalar IntersectionExampleScenario.node[15].nic.mac1609_4 	DroppedPacketsInMac 	0
scalar IntersectionExampleScenario.node[15].nic.mac1609_4 	TooLittleTime 	0
scalar IntersectionExampleScenario.node[15].nic.mac1609_4 	TimesIntoBackoff 	0
scalar IntersectionExampleScenario.node[15].nic.mac1609_4 	SlotsBackoff 	0
scalar IntersectionExampleScenario.node[15].nic.mac1609_4 	NumInternalContention 	0
scalar IntersectionExampleScenario.node[15].nic.mac1609_4 	totalBusyTime 	0
scalar IntersectionExampleScenario.node[15].veinsmobility 	startTime 	30.5
scalar IntersectionExampleScenario.node[15].veinsmobility 	totalTime 	42.25
scalar IntersectionExampleScenario.node[15].veinsmobility 	stopTime 	73
scalar IntersectionExampleScenario.node[15].veinsmobility 	minSpeed 	5.6500000953674
scalar IntersectionExampleScenario.node[15].veinsmobility 	maxSpeed 	15.375
scalar IntersectionExampleScenario.node[15].veinsmobility 	totalDistance 	569.59206553776
scalar IntersectionExampleScenario.node[15].veinsmobility 	totalCO2Emission 	126.53336668318
scalar IntersectionExampleScenario.node[12].appl 	VehicleRemoved 	0
scalar IntersectionExampleScenario.node[12].appl 	ArrivedAtDest 	1
scalar IntersectionExampleScenario.node[12].appl 	IntersectionEnterTime 	24.75
scalar IntersectionExampleScenario.node[12].appl 	IntersectionExitTime 	64.34953025874
scalar IntersectionExampleScenario.node[12].appl 	NumberOfCollisions 	0
scalar IntersectionExampleScenario.node[12].nic.phy80211p 	busyTime 	0
scalar IntersectionExampleScenario.node[12].nic.mac1609_4 	ReceivedUnicastPackets 	0
scalar IntersectionExampleScenario.node[12].nic.mac1609_4 	ReceivedBroadcasts 	0
scalar IntersectionExampleScenario.node[12].nic.mac1609_4 	SentPackets 	0
scalar IntersectionExampleScenario.node[12].nic.mac1609_4 	SNIRLostPackets 	0
scalar IntersectionExampleScenario.node[12].nic.mac1609_4 	RXTXLostPackets 	0
scalar IntersectionExampleScenario.node[12].nic.mac1609_4 	TotalLostPackets 	0
scalar IntersectionExampleScenario.node[12].nic.mac1609_4 	DroppedPacketsInMac 	0
scalar IntersectionExampleScenario.node[12].nic.mac1609_4 	TooLittleTime 	0
scalar IntersectionExampleScenario.node[12].nic.mac1609_4 	TimesIntoBackoff 	0
scalar IntersectionExampleScenario.node[12].nic.mac1609_4 	SlotsBackoff 	0
scalar IntersectionExampleScenario.node[12].nic.mac1609_4 	NumInternalContention 	0
scalar IntersectionExampleScenario.node[12].nic.mac1609_4 	totalBusyTime 	0
scalar IntersectionExampleScenario.node[12].veinsmobility 	startTime 	24.75
scalar IntersectionExampleScenario.node[12].veinsmobility 	totalTime 	54.75
scalar IntersectionExampleScenario.node[12].veinsmobility 	stopTime 	79.75
scalar IntersectionExampleScenario.node[12].veinsmobility 	minSpeed 	0
scalar IntersectionExampleScenario.node[12].veinsmobility 	maxSpeed 	16.053676605225
scalar IntersectionExampleScenario.node[12].veinsmobility 	totalDistance 	575.09743499756
scalar IntersectionExampleScenario.node[12].veinsmobility 	totalCO2Emission 	155.86450035563
scalar IntersectionExampleScenario.node[13].appl 	VehicleRemoved 	0
scalar IntersectionExampleScenario.node[13].appl 	ArrivedAtDest 	1
scalar IntersectionExampleScenario.node[13].appl 	IntersectionEnterTime 	26.5
scalar IntersectionExampleScenario.node[13].appl 	IntersectionExitTime 	64.287854777416
scalar IntersectionExampleScenario.node[13].appl 	NumberOfCollisions 	0
scalar IntersectionExampleScenario.node[13].nic.phy80211p 	busyTime 	0
scalar IntersectionExampleScenario.node[13].nic.mac1609_4 	ReceivedUnicastPackets 	0
scalar IntersectionExampleScenario.node[13].nic.mac1609_4 	ReceivedBroadcasts 	0
scalar IntersectionExampleScenario.node[13].nic.mac1609_4 	SentPackets 	0
scalar IntersectionExampleScenario.node[13].nic.mac1609_4 	SNIRLostPackets 	0
scalar IntersectionExampleScenario.node[13].nic.mac1609_4 	RXTXLostPackets 	0
scalar IntersectionExampleScenario.node[13].nic.mac1609_4 	TotalLostPackets 	0
scalar IntersectionExampleScenario.node[13].nic.mac1609_4 	DroppedPacketsInMac 	0
scalar IntersectionExampleScenario.node[13].nic.mac1609_4 	TooLittleTime 	0
scalar IntersectionExampleScenario.node[13].nic.mac1609_4 	TimesIntoBackoff 	0
scalar IntersectionExampleScenario.node[13].nic.mac1609_4 	SlotsBackoff 	0
scalar IntersectionExampleScenario.node[13].nic.mac1609_4 	NumInternalContention 	0
scalar IntersectionExampleScenario.node[13].nic.mac1609_4 	totalBusyTime 	0
scalar IntersectionExampleScenario.node[13].veinsmobility 	startTime 	26.5
scalar IntersectionExampleScenario.node[13].veinsmobility 	totalTime 	54.75
scalar IntersectionExampleScenario.node[13].veinsmobility 	stopTime 	81.5
scalar IntersectionExampleScenario.node[13].veinsmobility 	minSpeed 	0
scalar IntersectionExampleScenario.node[13].veinsmobility 	maxSpeed 	14.75
scalar IntersectionExampleScenario.node[13].veinsmobility 	totalDistance 	552.88325500488
scalar IntersectionExampleScenario.node[13].veinsmobility 	totalCO2Emission 	139.55020655968
scalar IntersectionExampleScenario.node[16].appl 	VehicleRemoved 	0
scalar IntersectionExampleScenario.node[16].appl 	ArrivedAtDest 	1
scalar IntersectionExampleScenario.node[16].appl 	IntersectionEnterTime 	30.75
scalar IntersectionExampleScenario.node[16].appl 	IntersectionExitTime 	65.371234915132
scalar IntersectionExampleScenario.node[16].appl 	NumberOfCollisions 	0
scalar IntersectionExampleScenario.node[16].nic.phy80211p 	busyTime 	0
scalar IntersectionExampleScenario.node[16].nic.mac1609_4 	ReceivedUnicastPackets 	0
scalar IntersectionExampleScenario.node[16].nic.mac1609_4 	ReceivedBroadcasts 	0
scalar IntersectionExampleScenario.node[16].nic.mac1609_4 	SentPackets 	0
scalar IntersectionExampleScenario.node[16].nic.mac1609_4 	SNIRLostPackets 	0
scalar IntersectionExampleScenario.node[16].nic.mac1609_4 	RXTXLostPackets 	0
scalar IntersectionExampleScenario.node[16].nic.mac1609_4 	TotalLostPackets 	0
scalar IntersectionExampleScenario.node[16].nic.mac1609_4 	DroppedPacketsInMac 	0
scalar IntersectionExampleScenario.node[16].nic.mac1609_4 	TooLittleTime 	0
scalar IntersectionExampleScenario.node[16].nic.mac1609_4 	TimesIntoBackoff 	0
scalar IntersectionExampleScenario.node[16].nic.mac1609_4 	SlotsBackoff 	0
scalar IntersectionExampleScenario.node[16].nic.mac1609_4 	NumInternalContention 	0
scalar IntersectionExampleScenario.node[16].nic.mac1609_4 	totalBusyTime 	0
scalar IntersectionExampleScenario.node[16].veinsmobility 	startTime 	30.75
scalar IntersectionExampleScenario.node[16].veinsmobility 	totalTime 	51.5
scalar IntersectionExampleScenario.node[16].veinsmobility 	stopTime 	82.5
scalar IntersectionExampleScenario.node[16].veinsmobility 	minSpeed 	0
scalar IntersectionExampleScenario.node[16].veinsmobility 	maxSpeed 	15.25
scalar IntersectionExampleScenario.node[16].veinsmobility 	totalDistance 	548.7630637814
scalar IntersectionExampleScenario.node[16].veinsmobility 	totalCO2Emission 	138.23525542315
scalar IntersectionExampleScenario.node[17].appl 	VehicleRemoved 	0
scalar IntersectionExampleScenario.node[17].appl 	ArrivedAtDest 	1
scalar IntersectionExampleScenario.node[17].appl 	IntersectionEnterTime 	34.25
scalar IntersectionExampleScenario.node[17].appl 	IntersectionExitTime 	66.330499773409
scalar IntersectionExampleScenario.node[17].appl 	NumberOfCollisions 	0
scalar IntersectionExampleScenario.node[17].nic.phy80211p 	busyTime 	0
scalar IntersectionExampleScenario.node[17].nic.mac1609_4 	ReceivedUnicastPackets 	0
scalar IntersectionExampleScenario.node[17].nic.mac1609_4 	ReceivedBroadcasts 	0
scalar IntersectionExampleScenario.node[17].nic.mac1609_4 	SentPackets 	0
scalar IntersectionExampleScenario.node[17].nic.mac1609_4 	SNIRLostPackets 	0
scalar IntersectionExampleScenario.node[17].nic.mac1609_4 	RXTXLostPackets 	0
scalar IntersectionExampleScenario.node[17].nic.mac1609_4 	TotalLostPackets 	0
scalar IntersectionExampleScenario.node[17].nic.mac1609_4 	DroppedPacketsInMac 	0
scalar IntersectionExampleScenario.node[17].nic.mac1609_4 	TooLittleTime 	0
scalar IntersectionExampleScenario.node[17].nic.mac1609_4 	TimesIntoBackoff 	0
scalar IntersectionExampleScenario.node[17].nic.mac1609_4 	SlotsBackoff 	0
scalar IntersectionExampleScenario.node[17].nic.mac1609_4 	NumInternalContention 	0
scalar IntersectionExampleScenario.node[17].nic.mac1609_4 	totalBusyTime 	0
scalar IntersectionExampleScenario.node[17].veinsmobility 	startTime 	34.25
scalar IntersectionExampleScenario.node[17].veinsmobility 	totalTime 	48.75
scalar IntersectionExampleScenario.node[17].veinsmobility 	stopTime 	83.25
scalar IntersectionExampleScenario.node[17].veinsmobility 	minSpeed 	2.2465329170227
scalar IntersectionExampleScenario.node[17].veinsmobility 	maxSpeed 	15.02499961853
scalar IntersectionExampleScenario.node[17].veinsmobility 	totalDistance 	552.39839172363
scalar IntersectionExampleScenario.node[17].veinsmobility 	totalCO2Emission 	130.20584165687
scalar IntersectionExampleScenario.node[18].appl 	VehicleRemoved 	0
scalar IntersectionExampleScenario.node[18].appl 	ArrivedAtDest 	1
scalar IntersectionExampleScenario.node[18].appl 	IntersectionEnterTime 	45
scalar IntersectionExampleScenario.node[18].appl 	IntersectionExitTime 	68.837526402203
scalar IntersectionExampleScenario.node[18].appl 	NumberOfCollisions 	0
scalar IntersectionExampleScenario.node[18].nic.phy80211p 	busyTime 	0
scalar IntersectionExampleScenario.node[18].nic.mac1609_4 	ReceivedUnicastPackets 	0
scalar IntersectionExampleScenario.node[18].nic.mac1609_4 	ReceivedBroadcasts 	0
scalar IntersectionExampleScenario.node[18].nic.mac1609_4 	SentPackets 	0
scalar IntersectionExampleScenario.node[18].nic.mac1609_4 	SNIRLostPackets 	0
scalar IntersectionExampleScenario.node[18].nic.mac1609_4 	RXTXLostPackets 	0
scalar IntersectionExampleScenario.node[18].nic.mac1609_4 	TotalLostPackets 	0
scalar IntersectionExampleScenario.node[18].nic.mac1609_4 	DroppedPacketsInMac 	0
scalar IntersectionExampleScenario.node[18].nic.mac1609_4 	TooLittleTime 	0
scalar IntersectionExampleScenario.node[18].nic.mac1609_4 	TimesIntoBackoff 	0
scalar IntersectionExampleScenario.node[18].nic.mac1609_4 	SlotsBackoff 	0
scalar IntersectionExampleScenario.node[18].nic.mac1609_4 	NumInternalContention 	0
scalar IntersectionExampleScenario.node[18].nic.mac1609_4 	totalBusyTime 	0
scalar IntersectionExampleScenario.node[18].veinsmobility 	startTime 	45
scalar IntersectionExampleScenario.node[18].veinsmobility 	totalTime 	40
scalar IntersectionExampleScenario.node[18].veinsmobility 	stopTime 	85.25
scalar IntersectionExampleScenario.node[18].veinsmobility 	minSpeed 	5.6500000953674
scalar IntersectionExampleScenario.node[18].veinsmobility 	maxSpeed 	15.885475158691
scalar IntersectionExampleScenario.node[18].veinsmobility 	totalDistance 	551.44847215699
scalar IntersectionExampleScenario.node[18].veinsmobility 	totalCO2Emission 	135.71530620046
scalar IntersectionExampleScenario.node[21].appl 	VehicleRemoved 	0
scalar IntersectionExampleScenario.node[21].appl 	ArrivedAtDest 	1
scalar IntersectionExampleScenario.node[21].appl 	IntersectionEnterTime 	49.25
scalar IntersectionExampleScenario.node[21].appl 	IntersectionExitTime 	71.61463198479
scalar IntersectionExampleScenario.node[21].appl 	NumberOfCollisions 	0
scalar IntersectionExampleScenario.node[21].nic.phy80211p 	busyTime 	0
scalar IntersectionExampleScenario.node[21].nic.mac1609_4 	ReceivedUnicastPackets 	0
scalar IntersectionExampleScenario.node[21].nic.mac1609_4 	ReceivedBroadcasts 	0
scalar IntersectionExampleScenario.node[21].nic.mac1609_4 	SentPackets 	0
scalar IntersectionExampleScenario.node[21].nic.mac1609_4 	SNIRLostPackets 	0
scalar IntersectionExampleScenario.node[21].nic.mac1609_4 	RXTXLostPackets 	0
scalar IntersectionExampleScenario.node[21].nic.mac1609_4 	TotalLostPackets 	0
scalar IntersectionExampleScenario.node[21].nic.mac1609_4 	DroppedPacketsInMac 	0
scalar IntersectionExampleScenario.node[21].nic.mac1609_4 	TooLittleTime 	0
scalar IntersectionExampleScenario.node[21].nic.mac1609_4 	TimesIntoBackoff 	0
scalar IntersectionExampleScenario.node[21].nic.mac1609_4 	SlotsBackoff 	0
scalar IntersectionExampleScenario.node[21].nic.mac1609_4 	NumInternalContention 	0
scalar IntersectionExampleScenario.node[21].nic.mac1609_4 	totalBusyTime 	0
scalar IntersectionExampleScenario.node[21].veinsmobility 	startTime 	49.25
scalar IntersectionExampleScenario.node[21].veinsmobility 	totalTime 	38.25
scalar IntersectionExampleScenario.node[21].veinsmobility 	stopTime 	87.75
scalar IntersectionExampleScenario.node[21].veinsmobility 	minSpeed 	5.6500000953674
scalar IntersectionExampleScenario.node[21].veinsmobility 	maxSpeed 	16.214069366455
scalar IntersectionExampleScenario.node[21].veinsmobility 	totalDistance 	532.78429797649
scalar IntersectionExampleScenario.node[21].veinsmobility 	totalCO2Emission 	125.59146514698
scalar IntersectionExampleScenario.node[19].appl 	VehicleRemoved 	0
scalar IntersectionExampleScenario.node[19].appl 	ArrivedAtDest 	1
scalar IntersectionExampleScenario.node[19].appl 	IntersectionEnterTime 	48.5
scalar IntersectionExampleScenario.node[19].appl 	IntersectionExitTime 	73.039170737611
scalar IntersectionExampleScenario.node[19].appl 	NumberOfCollisions 	0
scalar IntersectionExampleScenario.node[19].nic.phy80211p 	busyTime 	0
scalar IntersectionExampleScenario.node[19].nic.mac1609_4 	ReceivedUnicastPackets 	0
scalar IntersectionExampleScenario.node[19].nic.mac1609_4 	ReceivedBroadcasts 	0
scalar IntersectionExampleScenario.node[19].nic.mac1609_4 	SentPackets 	0
scalar IntersectionExampleScenario.node[19].nic.mac1609_4 	SNIRLostPackets 	0
scalar IntersectionExampleScenario.node[19].nic.mac1609_4 	RXTXLostPackets 	0
scalar IntersectionExampleScenario.node[19].nic.mac1609_4 	TotalLostPackets 	0
scalar IntersectionExampleScenario.node[19].nic.mac1609_4 	DroppedPacketsInMac 	0
scalar IntersectionExampleScenario.node[19].nic.mac1609_4 	TooLittleTime 	0
scalar IntersectionExampleScenario.node[19].nic.mac1609_4 	TimesIntoBackoff 	0
scalar IntersectionExampleScenario.node[19].nic.mac1609_4 	SlotsBackoff 	0
scalar IntersectionExampleScenario.node[19].nic.mac1609_4 	NumInternalContention 	0
scalar IntersectionExampleScenario.node[19].nic.mac1609_4 	totalBusyTime 	0
scalar IntersectionExampleScenario.node[19].veinsmobility 	startTime 	48.5
scalar IntersectionExampleScenario.node[19].veinsmobility 	totalTime 	40.5
scalar IntersectionExampleScenario.node[19].veinsmobility 	stopTime 	89.25
scalar IntersectionExampleScenario.node[19].veinsmobility 	minSpeed 	5.6500000953674
scalar IntersectionExampleScenario.node[19].veinsmobility 	maxSpeed 	15.5
scalar IntersectionExampleScenario.node[19].veinsmobility 	totalDistance 	562.08061981201
scalar IntersectionExampleScenario.node[19].veinsmobility 	totalCO2Emission 	120.45595081264
scalar IntersectionExampleScenario.node[23].appl 	VehicleRemoved 	0
scalar IntersectionExampleScenario.node[23].appl 	ArrivedAtDest 	1
scalar IntersectionExampleScenario.node[23].appl 	IntersectionEnterTime 	52.5
scalar IntersectionExampleScenario.node[23].appl 	IntersectionExitTime 	76.789198541024
scalar IntersectionExampleScenario.node[23].appl 	NumberOfCollisions 	0
scalar IntersectionExampleScenario.node[23].nic.phy80211p 	busyTime 	0
scalar IntersectionExampleScenario.node[23].nic.mac1609_4 	ReceivedUnicastPackets 	0
scalar IntersectionExampleScenario.node[23].nic.mac1609_4 	ReceivedBroadcasts 	0
scalar IntersectionExampleScenario.node[23].nic.mac1609_4 	SentPackets 	0
scalar IntersectionExampleScenario.node[23].nic.mac1609_4 	SNIRLostPackets 	0
scalar IntersectionExampleScenario.node[23].nic.mac1609_4 	RXTXLostPackets 	0
scalar IntersectionExampleScenario.node[23].nic.mac1609_4 	TotalLostPackets 	0
scalar IntersectionExampleScenario.node[23].nic.mac1609_4 	DroppedPacketsInMac 	0
scalar IntersectionExampleScenario.node[23].nic.mac1609_4 	TooLittleTime 	0
scalar IntersectionExampleScenario.node[23].nic.mac1609_4 	TimesIntoBackoff 	0
scalar IntersectionExampleScenario.node[23].nic.mac1609_4 	SlotsBackoff 	0
scalar IntersectionExampleScenario.node[23].nic.mac1609_4 	NumInternalContention 	0
scalar IntersectionExampleScenario.node[23].nic.mac1609_4 	totalBusyTime 	0
scalar IntersectionExampleScenario.node[23].veinsmobility 	startTime 	52.5
scalar IntersectionExampleScenario.node[23].veinsmobility 	totalTime 	40.5
scalar IntersectionExampleScenario.node[23].veinsmobility 	stopTime 	93.25
scalar IntersectionExampleScenario.node[23].veinsmobility 	minSpeed 	5.6500000953674
scalar IntersectionExampleScenario.node[23].veinsmobility 	maxSpeed 	15.64999961853
scalar IntersectionExampleScenario.node[23].veinsmobility 	totalDistance 	565.23629082672
scalar IntersectionExampleScenario.node[23].veinsmobility 	totalCO2Emission 	124.67457247921
scalar IntersectionExampleScenario.node[22].appl 	VehicleRemoved 	0
scalar IntersectionExampleScenario.node[22].appl 	ArrivedAtDest 	1
scalar IntersectionExampleScenario.node[22].appl 	IntersectionEnterTime 	49.5
scalar IntersectionExampleScenario.node[22].appl 	IntersectionExitTime 	78.580240273557
scalar IntersectionExampleScenario.node[22].appl 	NumberOfCollisions 	0
scalar IntersectionExampleScenario.node[22].nic.phy80211p 	busyTime 	0
scalar IntersectionExampleScenario.node[22].nic.mac1609_4 	ReceivedUnicastPackets 	0
scalar IntersectionExampleScenario.node[22].nic.mac1609_4 	ReceivedBroadcasts 	0
scalar IntersectionExampleScenario.node[22].nic.mac1609_4 	SentPackets 	0
scalar IntersectionExampleScenario.node[22].nic.mac1609_4 	SNIRLostPackets 	0
scalar IntersectionExampleScenario.node[22].nic.mac1609_4 	RXTXLostPackets 	0
scalar IntersectionExampleScenario.node[22].nic.mac1609_4 	TotalLostPackets 	0
scalar IntersectionExampleScenario.node[22].nic.mac1609_4 	DroppedPacketsInMac 	0
scalar IntersectionExampleScenario.node[22].nic.mac1609_4 	TooLittleTime 	0
scalar IntersectionExampleScenario.node[22].nic.mac1609_4 	TimesIntoBackoff 	0
scalar IntersectionExampleScenario.node[22].nic.mac1609_4 	SlotsBackoff 	0
scalar IntersectionExampleScenario.node[22].nic.mac1609_4 	NumInternalContention 	0
scalar IntersectionExampleScenario.node[22].nic.mac1609_4 	totalBusyTime 	0
scalar IntersectionExampleScenario.node[22].veinsmobility 	startTime 	49.5
scalar IntersectionExampleScenario.node[22].veinsmobility 	totalTime 	45.25
scalar IntersectionExampleScenario.node[22].veinsmobility 	stopTime 	95
scalar IntersectionExampleScenario.node[22].veinsmobility 	minSpeed 	0
scalar IntersectionExampleScenario.node[22].veinsmobility 	maxSpeed 	16.27499961853
scalar IntersectionExampleScenario.node[22].veinsmobility 	totalDistance 	546.04180051238
scalar IntersectionExampleScenario.node[22].veinsmobility 	totalCO2Emission 	143.94361014696
scalar IntersectionExampleScenario.node[20].appl 	VehicleRemoved 	0
scalar IntersectionExampleScenario.node[20].appl 	ArrivedAtDest 	1
scalar IntersectionExampleScenario.node[20].appl 	IntersectionEnterTime 	49
scalar IntersectionExampleScenario.node[20].appl 	IntersectionExitTime 	78.604411994835
scalar IntersectionExampleScenario.node[20].appl 	NumberOfCollisions 	0
scalar IntersectionExampleScenario.node[20].nic.phy80211p 	busyTime 	0
scalar IntersectionExampleScenario.node[20].nic.mac1609_4 	ReceivedUnicastPackets 	0
scalar IntersectionExampleScenario.node[20].nic.mac1609_4 	ReceivedBroadcasts 	0
scalar IntersectionExampleScenario.node[20].nic.mac1609_4 	SentPackets 	0
scalar IntersectionExampleScenario.node[20].nic.mac1609_4 	SNIRLostPackets 	0
scalar IntersectionExampleScenario.node[20].nic.mac1609_4 	RXTXLostPackets 	0
scalar IntersectionExampleScenario.node[20].nic.mac1609_4 	TotalLostPackets 	0
scalar IntersectionExampleScenario.node[20].nic.mac1609_4 	DroppedPacketsInMac 	0
scalar IntersectionExampleScenario.node[20].nic.mac1609_4 	TooLittleTime 	0
scalar IntersectionExampleScenario.node[20].nic.mac1609_4 	TimesIntoBackoff 	0
scalar IntersectionExampleScenario.node[20].nic.mac1609_4 	SlotsBackoff 	0
scalar IntersectionExampleScenario.node[20].nic.mac1609_4 	NumInternalContention 	0
scalar IntersectionExampleScenario.node[20].nic.mac1609_4 	totalBusyTime 	0
scalar IntersectionExampleScenario.node[20].veinsmobility 	startTime 	49
scalar IntersectionExampleScenario.node[20].veinsmobility 	totalTime 	46.5
scalar IntersectionExampleScenario.node[20].veinsmobility 	stopTime 	95.75
scalar IntersectionExampleScenario.node[20].veinsmobility 	minSpeed 	0
scalar IntersectionExampleScenario.node[20].veinsmobility 	maxSpeed 	15.25
scalar IntersectionExampleScenario.node[20].veinsmobility 	totalDistance 	543.92483426482
scalar IntersectionExampleScenario.node[20].veinsmobility 	totalCO2Emission 	135.65335192622
scalar IntersectionExampleScenario.node[25].appl 	VehicleRemoved 	0
scalar IntersectionExampleScenario.node[25].appl 	ArrivedAtDest 	1
scalar IntersectionExampleScenario.node[25].appl 	IntersectionEnterTime 	55.25
scalar IntersectionExampleScenario.node[25].appl 	IntersectionExitTime 	81.28934697638
scalar IntersectionExampleScenario.node[25].appl 	NumberOfCollisions 	0
scalar IntersectionExampleScenario.node[25].nic.phy80211p 	busyTime 	0
scalar IntersectionExampleScenario.node[25].nic.mac1609_4 	ReceivedUnicastPackets 	0
scalar IntersectionExampleScenario.node[25].nic.mac1609_4 	ReceivedBroadcasts 	0
scalar IntersectionExampleScenario.node[25].nic.mac1609_4 	SentPackets 	0
scalar IntersectionExampleScenario.node[25].nic.mac1609_4 	SNIRLostPackets 	0
scalar IntersectionExampleScenario.node[25].nic.mac1609_4 	RXTXLostPackets 	0
scalar IntersectionExampleScenario.node[25].nic.mac1609_4 	TotalLostPackets 	0
scalar IntersectionExampleScenario.node[25].nic.mac1609_4 	DroppedPacketsInMac 	0
scalar IntersectionExampleScenario.node[25].nic.mac1609_4 	TooLittleTime 	0
scalar IntersectionExampleScenario.node[25].nic.mac1609_4 	TimesIntoBackoff 	0
scalar IntersectionExampleScenario.node[25].nic.mac1609_4 	SlotsBackoff 	0
scalar IntersectionExampleScenario.node[25].nic.mac1609_4 	NumInternalContention 	0
scalar IntersectionExampleScenario.node[25].nic.mac1609_4 	totalBusyTime 	0
scalar IntersectionExampleScenario.node[25].veinsmobility 	startTime 	55.25
scalar IntersectionExampleScenario.node[25].veinsmobility 	totalTime 	42.25
scalar IntersectionExampleScenario.node[25].veinsmobility 	stopTime 	97.75
scalar IntersectionExampleScenario.node[25].veinsmobility 	minSpeed 	5.4794144630432
scalar IntersectionExampleScenario.node[25].veinsmobility 	maxSpeed 	15.679246902466
scalar IntersectionExampleScenario.node[25].veinsmobility 	totalDistance 	543.31752773289
scalar IntersectionExampleScenario.node[25].veinsmobility 	totalCO2Emission 	133.83075576426
scalar IntersectionExampleScenario.node[30].appl 	VehicleRemoved 	0
scalar IntersectionExampleScenario.node[30].appl 	ArrivedAtDest 	1
scalar IntersectionExampleScenario.node[30].appl 	IntersectionEnterTime 	64
scalar IntersectionExampleScenario.node[30].appl 	IntersectionExitTime 	86.081397017319
scalar IntersectionExampleScenario.node[30].appl 	NumberOfCollisions 	0
scalar IntersectionExampleScenario.node[30].nic.phy80211p 	busyTime 	0
scalar IntersectionExampleScenario.node[30].nic.mac1609_4 	ReceivedUnicastPackets 	0
scalar IntersectionExampleScenario.node[30].nic.mac1609_4 	ReceivedBroadcasts 	0
scalar IntersectionExampleScenario.node[30].nic.mac1609_4 	SentPackets 	0
scalar IntersectionExampleScenario.node[30].nic.mac1609_4 	SNIRLostPackets 	0
scalar IntersectionExampleScenario.node[30].nic.mac1609_4 	RXTXLostPackets 	0
scalar IntersectionExampleScenario.node[30].nic.mac1609_4 	TotalLostPackets 	0
scalar IntersectionExampleScenario.node[30].nic.mac1609_4 	DroppedPacketsInMac 	0
scalar IntersectionExampleScenario.node[30].nic.mac1609_4 	TooLittleTime 	0
scalar IntersectionExampleScenario.node[30].nic.mac1609_4 	TimesIntoBackoff 	0
scalar IntersectionExampleScenario.node[30].nic.mac1609_4 	SlotsBackoff 	0
scalar IntersectionExampleScenario.node[30].nic.mac1609_4 	NumInternalContention 	0
scalar IntersectionExampleScenario.node[30].nic.mac1609_4 	totalBusyTime 	0
scalar IntersectionExampleScenario.node[30].veinsmobility 	startTime 	64
scalar IntersectionExampleScenario.node[30].veinsmobility 	totalTime 	37
scalar IntersectionExampleScenario.node[30].veinsmobility 	stopTime 	101.25
scalar IntersectionExampleScenario.node[30].veinsmobility 	minSpeed 	5.6500000953674
scalar IntersectionExampleScenario.node[30].veinsmobility 	maxSpeed 	16.83670425415
scalar IntersectionExampleScenario.node[30].veinsmobility 	totalDistance 	551.68436431885
scalar IntersectionExampleScenario.node[30].veinsmobility 	totalCO2Emission 	129.43579204405
scalar IntersectionExampleScenario.node[24].appl 	VehicleRemoved 	0
scalar IntersectionExampleScenario.node[24].appl 	ArrivedAtDest 	1
scalar IntersectionExampleScenario.node[24].appl 	IntersectionEnterTime 	53.5
scalar IntersectionExampleScenario.node[24].appl 	IntersectionExitTime 	93.607892143395
scalar IntersectionExampleScenario.node[24].appl 	NumberOfCollisions 	0
scalar IntersectionExampleScenario.node[24].nic.phy80211p 	busyTime 	0
scalar IntersectionExampleScenario.node[24].nic.mac1609_4 	ReceivedUnicastPackets 	0
scalar IntersectionExampleScenario.node[24].nic.mac1609_4 	ReceivedBroadcasts 	0
scalar IntersectionExampleScenario.node[24].nic.mac1609_4 	SentPackets 	0
scalar IntersectionExampleScenario.node[24].nic.mac1609_4 	SNIRLostPackets 	0
scalar IntersectionExampleScenario.node[24].nic.mac1609_4 	RXTXLostPackets 	0
scalar IntersectionExampleScenario.node[24].nic.mac1609_4 	TotalLostPackets 	0
scalar IntersectionExampleScenario.node[24].nic.mac1609_4 	DroppedPacketsInMac 	0
scalar IntersectionExampleScenario.node[24].nic.mac1609_4 	TooLittleTime 	0
scalar IntersectionExampleScenario.node[24].nic.mac1609_4 	TimesIntoBackoff 	0
scalar IntersectionExampleScenario.node[24].nic.mac1609_4 	SlotsBackoff 	0
scalar IntersectionExampleScenario.node[24].nic.mac1609_4 	NumInternalContention 	0
scalar IntersectionExampleScenario.node[24].nic.mac1609_4 	totalBusyTime 	0
scalar IntersectionExampleScenario.node[24].veinsmobility 	startTime 	53.5
scalar IntersectionExampleScenario.node[24].veinsmobility 	totalTime 	56
scalar IntersectionExampleScenario.node[24].veinsmobility 	stopTime 	109.75
scalar IntersectionExampleScenario.node[24].veinsmobility 	minSpeed 	0
scalar IntersectionExampleScenario.node[24].veinsmobility 	maxSpeed 	16.5
scalar IntersectionExampleScenario.node[24].veinsmobility 	totalDistance 	573.02038480193
scalar IntersectionExampleScenario.node[24].veinsmobility 	totalCO2Emission 	157.79419961726
scalar IntersectionExampleScenario.node[27].appl 	VehicleRemoved 	0
scalar IntersectionExampleScenario.node[27].appl 	ArrivedAtDest 	1
scalar IntersectionExampleScenario.node[27].appl 	IntersectionEnterTime 	57.5
scalar IntersectionExampleScenario.node[27].appl 	IntersectionExitTime 	95.293710219965
scalar IntersectionExampleScenario.node[27].appl 	NumberOfCollisions 	0
scalar IntersectionExampleScenario.node[27].nic.phy80211p 	busyTime 	0
scalar IntersectionExampleScenario.node[27].nic.mac1609_4 	ReceivedUnicastPackets 	0
scalar IntersectionExampleScenario.node[27].nic.mac1609_4 	ReceivedBroadcasts 	0
scalar IntersectionExampleScenario.node[27].nic.mac1609_4 	SentPackets 	0
scalar IntersectionExampleScenario.node[27].nic.mac1609_4 	SNIRLostPackets 	0
scalar IntersectionExampleScenario.node[27].nic.mac1609_4 	RXTXLostPackets 	0
scalar IntersectionExampleScenario.node[27].nic.mac1609_4 	TotalLostPackets 	0
scalar IntersectionExampleScenario.node[27].nic.mac1609_4 	DroppedPacketsInMac 	0
scalar IntersectionExampleScenario.node[27].nic.mac1609_4 	TooLittleTime 	0
scalar IntersectionExampleScenario.node[27].nic.mac1609_4 	TimesIntoBackoff 	0
scalar IntersectionExampleScenario.node[27].nic.mac1609_4 	SlotsBackoff 	0
scalar IntersectionExampleScenario.node[27].nic.mac1609_4 	NumInternalContention 	0
scalar IntersectionExampleScenario.node[27].nic.mac1609_4 	totalBusyTime 	0
scalar IntersectionExampleScenario.node[27].veinsmobility 	startTime 	57.5
scalar IntersectionExampleScenario.node[27].veinsmobility 	totalTime 	54.25
scalar IntersectionExampleScenario.node[27].veinsmobility 	stopTime 	112
scalar IntersectionExampleScenario.node[27].veinsmobility 	minSpeed 	0
scalar IntersectionExampleScenario.node[27].veinsmobility 	maxSpeed 	15.64999961853
scalar IntersectionExampleScenario.node[27].veinsmobility 	totalDistance 	573.39316434599
scalar IntersectionExampleScenario.node[27].veinsmobility 	totalCO2Emission 	148.63819087701
scalar IntersectionExampleScenario.node[26].appl 	VehicleRemoved 	0
scalar IntersectionExampleScenario.node[26].appl 	ArrivedAtDest 	1
scalar IntersectionExampleScenario.node[26].appl 	IntersectionEnterTime 	57.25
scalar IntersectionExampleScenario.node[26].appl 	IntersectionExitTime 	95.784989908017
scalar IntersectionExampleScenario.node[26].appl 	NumberOfCollisions 	0
scalar IntersectionExampleScenario.node[26].nic.phy80211p 	busyTime 	0
scalar IntersectionExampleScenario.node[26].nic.mac1609_4 	ReceivedUnicastPackets 	0
scalar IntersectionExampleScenario.node[26].nic.mac1609_4 	ReceivedBroadcasts 	0
scalar IntersectionExampleScenario.node[26].nic.mac1609_4 	SentPackets 	0
scalar IntersectionExampleScenario.node[26].nic.mac1609_4 	SNIRLostPackets 	0
scalar IntersectionExampleScenario.node[26].nic.mac1609_4 	RXTXLostPackets 	0
scalar IntersectionExampleScenario.node[26].nic.mac1609_4 	TotalLostPackets 	0
scalar IntersectionExampleScenario.node[26].nic.mac1609_4 	DroppedPacketsInMac 	0
scalar IntersectionExampleScenario.node[26].nic.mac1609_4 	TooLittleTime 	0
scalar IntersectionExampleScenario.node[26].nic.mac1609_4 	TimesIntoBackoff 	0
scalar IntersectionExampleScenario.node[26].nic.mac1609_4 	SlotsBackoff 	0
scalar IntersectionExampleScenario.node[26].nic.mac1609_4 	NumInternalContention 	0
scalar IntersectionExampleScenario.node[26].nic.mac1609_4 	totalBusyTime 	0
scalar IntersectionExampleScenario.node[26].veinsmobility 	startTime 	57.25
scalar IntersectionExampleScenario.node[26].veinsmobility 	totalTime 	54.75
scalar IntersectionExampleScenario.node[26].veinsmobility 	stopTime 	112.25
scalar IntersectionExampleScenario.node[26].veinsmobility 	minSpeed 	0
scalar IntersectionExampleScenario.node[26].veinsmobility 	maxSpeed 	15.799745559692
scalar IntersectionExampleScenario.node[26].veinsmobility 	totalDistance 	548.53459996463
scalar IntersectionExampleScenario.node[26].veinsmobility 	totalCO2Emission 	147.86436155763
scalar IntersectionExampleScenario.node[29].appl 	VehicleRemoved 	0
scalar IntersectionExampleScenario.node[29].appl 	ArrivedAtDest 	1
scalar IntersectionExampleScenario.node[29].appl 	IntersectionEnterTime 	60.25
scalar IntersectionExampleScenario.node[29].appl 	IntersectionExitTime 	97.540532733896
scalar IntersectionExampleScenario.node[29].appl 	NumberOfCollisions 	0
scalar IntersectionExampleScenario.node[29].nic.phy80211p 	busyTime 	0
scalar IntersectionExampleScenario.node[29].nic.mac1609_4 	ReceivedUnicastPackets 	0
scalar IntersectionExampleScenario.node[29].nic.mac1609_4 	ReceivedBroadcasts 	0
scalar IntersectionExampleScenario.node[29].nic.mac1609_4 	SentPackets 	0
scalar IntersectionExampleScenario.node[29].nic.mac1609_4 	SNIRLostPackets 	0
scalar IntersectionExampleScenario.node[29].nic.mac1609_4 	RXTXLostPackets 	0
scalar IntersectionExampleScenario.node[29].nic.mac1609_4 	TotalLostPackets 	0
scalar IntersectionExampleScenario.node[29].nic.mac1609_4 	DroppedPacketsInMac 	0
scalar IntersectionExampleScenario.node[29].nic.mac1609_4 	TooLittleTime 	0
scalar IntersectionExampleScenario.node[29].nic.mac1609_4 	TimesIntoBackoff 	0
scalar IntersectionExampleScenario.node[29].nic.mac1609_4 	SlotsBackoff 	0
scalar IntersectionExampleScenario.node[29].nic.mac1609_4 	NumInternalContention 	0
scalar IntersectionExampleScenario.node[29].nic.mac1609_4 	totalBusyTime 	0
scalar IntersectionExampleScenario.node[29].veinsmobility 	startTime 	60.25
scalar IntersectionExampleScenario.node[29].veinsmobility 	totalTime 	52.75
scalar IntersectionExampleScenario.node[29].veinsmobility 	stopTime 	113.25
scalar IntersectionExampleScenario.node[29].veinsmobility 	minSpeed 	0
scalar IntersectionExampleScenario.node[29].veinsmobility 	maxSpeed 	16.125
scalar IntersectionExampleScenario.node[29].veinsmobility 	totalDistance 	575.98310089111
scalar IntersectionExampleScenario.node[29].veinsmobility 	totalCO2Emission 	148.53943245214
scalar IntersectionExampleScenario.node[28].appl 	VehicleRemoved 	0
scalar IntersectionExampleScenario.node[28].appl 	ArrivedAtDest 	1
scalar IntersectionExampleScenario.node[28].appl 	IntersectionEnterTime 	58.5
scalar IntersectionExampleScenario.node[28].appl 	IntersectionExitTime 	97.543172724079
scalar IntersectionExampleScenario.node[28].appl 	NumberOfCollisions 	0
scalar IntersectionExampleScenario.node[28].nic.phy80211p 	busyTime 	0
scalar IntersectionExampleScenario.node[28].nic.mac1609_4 	ReceivedUnicastPackets 	0
scalar IntersectionExampleScenario.node[28].nic.mac1609_4 	ReceivedBroadcasts 	0
scalar IntersectionExampleScenario.node[28].nic.mac1609_4 	SentPackets 	0
scalar IntersectionExampleScenario.node[28].nic.mac1609_4 	SNIRLostPackets 	0
scalar IntersectionExampleScenario.node[28].nic.mac1609_4 	RXTXLostPackets 	0
scalar IntersectionExampleScenario.node[28].nic.mac1609_4 	TotalLostPackets 	0
scalar IntersectionExampleScenario.node[28].nic.mac1609_4 	DroppedPacketsInMac 	0
scalar IntersectionExampleScenario.node[28].nic.mac1609_4 	TooLittleTime 	0
scalar IntersectionExampleScenario.node[28].nic.mac1609_4 	TimesIntoBackoff 	0
scalar IntersectionExampleScenario.node[28].nic.mac1609_4 	SlotsBackoff 	0
scalar IntersectionExampleScenario.node[28].nic.mac1609_4 	NumInternalContention 	0
scalar IntersectionExampleScenario.node[28].nic.mac1609_4 	totalBusyTime 	0
scalar IntersectionExampleScenario.node[28].veinsmobility 	startTime 	58.5
scalar IntersectionExampleScenario.node[28].veinsmobility 	totalTime 	54.5
scalar IntersectionExampleScenario.node[28].veinsmobility 	stopTime 	113.25
scalar IntersectionExampleScenario.node[28].veinsmobility 	minSpeed 	-1.8656647205353
scalar IntersectionExampleScenario.node[28].veinsmobility 	maxSpeed 	16.682106018066
scalar IntersectionExampleScenario.node[28].veinsmobility 	totalDistance 	570.6314032125
scalar IntersectionExampleScenario.node[28].veinsmobility 	totalCO2Emission 	162.27907361387
scalar IntersectionExampleScenario.node[31].appl 	VehicleRemoved 	0
scalar IntersectionExampleScenario.node[31].appl 	ArrivedAtDest 	1
scalar IntersectionExampleScenario.node[31].appl 	IntersectionEnterTime 	67.75
scalar IntersectionExampleScenario.node[31].appl 	IntersectionExitTime 	100.25932813942
scalar IntersectionExampleScenario.node[31].appl 	NumberOfCollisions 	0
scalar IntersectionExampleScenario.node[31].nic.phy80211p 	busyTime 	0
scalar IntersectionExampleScenario.node[31].nic.mac1609_4 	ReceivedUnicastPackets 	0
scalar IntersectionExampleScenario.node[31].nic.mac1609_4 	ReceivedBroadcasts 	0
scalar IntersectionExampleScenario.node[31].nic.mac1609_4 	SentPackets 	0
scalar IntersectionExampleScenario.node[31].nic.mac1609_4 	SNIRLostPackets 	0
scalar IntersectionExampleScenario.node[31].nic.mac1609_4 	RXTXLostPackets 	0
scalar IntersectionExampleScenario.node[31].nic.mac1609_4 	TotalLostPackets 	0
scalar IntersectionExampleScenario.node[31].nic.mac1609_4 	DroppedPacketsInMac 	0
scalar IntersectionExampleScenario.node[31].nic.mac1609_4 	TooLittleTime 	0
scalar IntersectionExampleScenario.node[31].nic.mac1609_4 	TimesIntoBackoff 	0
scalar IntersectionExampleScenario.node[31].nic.mac1609_4 	SlotsBackoff 	0
scalar IntersectionExampleScenario.node[31].nic.mac1609_4 	NumInternalContention 	0
scalar IntersectionExampleScenario.node[31].nic.mac1609_4 	totalBusyTime 	0
scalar IntersectionExampleScenario.node[31].veinsmobility 	startTime 	67.75
scalar IntersectionExampleScenario.node[31].veinsmobility 	totalTime 	49.25
scalar IntersectionExampleScenario.node[31].veinsmobility 	stopTime 	117.25
scalar IntersectionExampleScenario.node[31].veinsmobility 	minSpeed 	2.7199518680573
scalar IntersectionExampleScenario.node[31].veinsmobility 	maxSpeed 	15.02499961853
scalar IntersectionExampleScenario.node[31].veinsmobility 	totalDistance 	548.82764675135
scalar IntersectionExampleScenario.node[31].veinsmobility 	totalCO2Emission 	133.68028532227
scalar IntersectionExampleScenario.node[32].appl 	VehicleRemoved 	0
scalar IntersectionExampleScenario.node[32].appl 	ArrivedAtDest 	1
scalar IntersectionExampleScenario.node[32].appl 	IntersectionEnterTime 	73.5
scalar IntersectionExampleScenario.node[32].appl 	IntersectionExitTime 	101.5812745218
scalar IntersectionExampleScenario.node[32].appl 	NumberOfCollisions 	0
scalar IntersectionExampleScenario.node[32].nic.phy80211p 	busyTime 	0
scalar IntersectionExampleScenario.node[32].nic.mac1609_4 	ReceivedUnicastPackets 	0
scalar IntersectionExampleScenario.node[32].nic.mac1609_4 	ReceivedBroadcasts 	0
scalar IntersectionExampleScenario.node[32].nic.mac1609_4 	SentPackets 	0
scalar IntersectionExampleScenario.node[32].nic.mac1609_4 	SNIRLostPackets 	0
scalar IntersectionExampleScenario.node[32].nic.mac1609_4 	RXTXLostPackets 	0
scalar IntersectionExampleScenario.node[32].nic.mac1609_4 	TotalLostPackets 	0
scalar IntersectionExampleScenario.node[32].nic.mac1609_4 	DroppedPacketsInMac 	0
scalar IntersectionExampleScenario.node[32].nic.mac1609_4 	TooLittleTime 	0
scalar IntersectionExampleScenario.node[32].nic.mac1609_4 	TimesIntoBackoff 	0
scalar IntersectionExampleScenario.node[32].nic.mac1609_4 	SlotsBackoff 	0
scalar IntersectionExampleScenario.node[32].nic.mac1609_4 	NumInternalContention 	0
scalar IntersectionExampleScenario.node[32].nic.mac1609_4 	totalBusyTime 	0
scalar IntersectionExampleScenario.node[32].veinsmobility 	startTime 	73.5
scalar IntersectionExampleScenario.node[32].veinsmobility 	totalTime 	43.75
scalar IntersectionExampleScenario.node[32].veinsmobility 	stopTime 	117.5
scalar IntersectionExampleScenario.node[32].veinsmobility 	minSpeed 	5.3757510185242
scalar IntersectionExampleScenario.node[32].veinsmobility 	maxSpeed 	16.125
scalar IntersectionExampleScenario.node[32].veinsmobility 	totalDistance 	553.56324768066
scalar IntersectionExampleScenario.node[32].veinsmobility 	totalCO2Emission 	134.26153398672
scalar IntersectionExampleScenario.node[33].appl 	VehicleRemoved 	0
scalar IntersectionExampleScenario.node[33].appl 	ArrivedAtDest 	1
scalar IntersectionExampleScenario.node[33].appl 	IntersectionEnterTime 	82.5
scalar IntersectionExampleScenario.node[33].appl 	IntersectionExitTime 	108.55389211248
scalar IntersectionExampleScenario.node[33].appl 	NumberOfCollisions 	0
scalar IntersectionExampleScenario.node[33].nic.phy80211p 	busyTime 	0
scalar IntersectionExampleScenario.node[33].nic.mac1609_4 	ReceivedUnicastPackets 	0
scalar IntersectionExampleScenario.node[33].nic.mac1609_4 	ReceivedBroadcasts 	0
scalar IntersectionExampleScenario.node[33].nic.mac1609_4 	SentPackets 	0
scalar IntersectionExampleScenario.node[33].nic.mac1609_4 	SNIRLostPackets 	0
scalar IntersectionExampleScenario.node[33].nic.mac1609_4 	RXTXLostPackets 	0
scalar IntersectionExampleScenario.node[33].nic.mac1609_4 	TotalLostPackets 	0
scalar IntersectionExampleScenario.node[33].nic.mac1609_4 	DroppedPacketsInMac 	0
scalar IntersectionExampleScenario.node[33].nic.mac1609_4 	TooLittleTime 	0
scalar IntersectionExampleScenario.node[33].nic.mac1609_4 	TimesIntoBackoff 	0
scalar IntersectionExampleScenario.node[33].nic.mac1609_4 	SlotsBackoff 	0
scalar IntersectionExampleScenario.node[33].nic.mac1609_4 	NumInternalContention 	0
scalar IntersectionExampleScenario.node[33].nic.mac1609_4 	totalBusyTime 	0
scalar IntersectionExampleScenario.node[33].veinsmobility 	startTime 	82.5
scalar IntersectionExampleScenario.node[33].veinsmobility 	totalTime 	42.5
scalar IntersectionExampleScenario.node[33].veinsmobility 	stopTime 	125.25
scalar IntersectionExampleScenario.node[33].veinsmobility 	minSpeed 	0
scalar IntersectionExampleScenario.node[33].veinsmobility 	maxSpeed 	15.875
scalar IntersectionExampleScenario.node[33].veinsmobility 	totalDistance 	544.83433438689
scalar IntersectionExampleScenario.node[33].veinsmobility 	totalCO2Emission 	137.55647662612
scalar IntersectionExampleScenario.node[34].appl 	VehicleRemoved 	0
scalar IntersectionExampleScenario.node[34].appl 	ArrivedAtDest 	1
scalar IntersectionExampleScenario.node[34].appl 	IntersectionEnterTime 	83.5
scalar IntersectionExampleScenario.node[34].appl 	IntersectionExitTime 	110.61691622721
scalar IntersectionExampleScenario.node[34].appl 	NumberOfCollisions 	0
scalar IntersectionExampleScenario.node[34].nic.phy80211p 	busyTime 	0
scalar IntersectionExampleScenario.node[34].nic.mac1609_4 	ReceivedUnicastPackets 	0
scalar IntersectionExampleScenario.node[34].nic.mac1609_4 	ReceivedBroadcasts 	0
scalar IntersectionExampleScenario.node[34].nic.mac1609_4 	SentPackets 	0
scalar IntersectionExampleScenario.node[34].nic.mac1609_4 	SNIRLostPackets 	0
scalar IntersectionExampleScenario.node[34].nic.mac1609_4 	RXTXLostPackets 	0
scalar IntersectionExampleScenario.node[34].nic.mac1609_4 	TotalLostPackets 	0
scalar IntersectionExampleScenario.node[34].nic.mac1609_4 	DroppedPacketsInMac 	0
scalar IntersectionExampleScenario.node[34].nic.mac1609_4 	TooLittleTime 	0
scalar IntersectionExampleScenario.node[34].nic.mac1609_4 	TimesIntoBackoff 	0
scalar IntersectionExampleScenario.node[34].nic.mac1609_4 	SlotsBackoff 	0
scalar IntersectionExampleScenario.node[34].nic.mac1609_4 	NumInternalContention 	0
scalar IntersectionExampleScenario.node[34].nic.mac1609_4 	totalBusyTime 	0
scalar IntersectionExampleScenario.node[34].veinsmobility 	startTime 	83.5
scalar IntersectionExampleScenario.node[34].veinsmobility 	totalTime 	43.5
scalar IntersectionExampleScenario.node[34].veinsmobility 	stopTime 	127.25
scalar IntersectionExampleScenario.node[34].veinsmobility 	minSpeed 	2.417576789856
scalar IntersectionExampleScenario.node[34].veinsmobility 	maxSpeed 	15.64999961853
scalar IntersectionExampleScenario.node[34].veinsmobility 	totalDistance 	551.8840776176
scalar IntersectionExampleScenario.node[34].veinsmobility 	totalCO2Emission 	135.96897535773
scalar IntersectionExampleScenario.node[35].appl 	VehicleRemoved 	0
scalar IntersectionExampleScenario.node[35].appl 	ArrivedAtDest 	1
scalar IntersectionExampleScenario.node[35].appl 	IntersectionEnterTime 	87.75
scalar IntersectionExampleScenario.node[35].appl 	IntersectionExitTime 	112.10878530031
scalar IntersectionExampleScenario.node[35].appl 	NumberOfCollisions 	0
scalar IntersectionExampleScenario.node[35].nic.phy80211p 	busyTime 	0
scalar IntersectionExampleScenario.node[35].nic.mac1609_4 	ReceivedUnicastPackets 	0
scalar IntersectionExampleScenario.node[35].nic.mac1609_4 	ReceivedBroadcasts 	0
scalar IntersectionExampleScenario.node[35].nic.mac1609_4 	SentPackets 	0
scalar IntersectionExampleScenario.node[35].nic.mac1609_4 	SNIRLostPackets 	0
scalar IntersectionExampleScenario.node[35].nic.mac1609_4 	RXTXLostPackets 	0
scalar IntersectionExampleScenario.node[35].nic.mac1609_4 	TotalLostPackets 	0
scalar IntersectionExampleScenario.node[35].nic.mac1609_4 	DroppedPacketsInMac 	0
scalar IntersectionExampleScenario.node[35].nic.mac1609_4 	TooLittleTime 	0
scalar IntersectionExampleScenario.node[35].nic.mac1609_4 	TimesIntoBackoff 	0
scalar IntersectionExampleScenario.node[35].nic.mac1609_4 	SlotsBackoff 	0
scalar IntersectionExampleScenario.node[35].nic.mac1609_4 	NumInternalContention 	0
scalar IntersectionExampleScenario.node[35].nic.mac1609_4 	totalBusyTime 	0
scalar IntersectionExampleScenario.node[35].veinsmobility 	startTime 	87.75
scalar IntersectionExampleScenario.node[35].veinsmobility 	totalTime 	40.75
scalar IntersectionExampleScenario.node[35].veinsmobility 	stopTime 	128.75
scalar IntersectionExampleScenario.node[35].veinsmobility 	minSpeed 	5.6500000953674
scalar IntersectionExampleScenario.node[35].veinsmobility 	maxSpeed 	15.64999961853
scalar IntersectionExampleScenario.node[35].veinsmobility 	totalDistance 	546.04520800823
scalar IntersectionExampleScenario.node[35].veinsmobility 	totalCO2Emission 	130.73152821948
scalar IntersectionExampleScenario.node[36].appl 	VehicleRemoved 	0
scalar IntersectionExampleScenario.node[36].appl 	ArrivedAtDest 	1
scalar IntersectionExampleScenario.node[36].appl 	IntersectionEnterTime 	88.5
scalar IntersectionExampleScenario.node[36].appl 	IntersectionExitTime 	124.35869896636
scalar IntersectionExampleScenario.node[36].appl 	NumberOfCollisions 	0
scalar IntersectionExampleScenario.node[36].nic.phy80211p 	busyTime 	0
scalar IntersectionExampleScenario.node[36].nic.mac1609_4 	ReceivedUnicastPackets 	0
scalar IntersectionExampleScenario.node[36].nic.mac1609_4 	ReceivedBroadcasts 	0
scalar IntersectionExampleScenario.node[36].nic.mac1609_4 	SentPackets 	0
scalar IntersectionExampleScenario.node[36].nic.mac1609_4 	SNIRLostPackets 	0
scalar IntersectionExampleScenario.node[36].nic.mac1609_4 	RXTXLostPackets 	0
scalar IntersectionExampleScenario.node[36].nic.mac1609_4 	TotalLostPackets 	0
scalar IntersectionExampleScenario.node[36].nic.mac1609_4 	DroppedPacketsInMac 	0
scalar IntersectionExampleScenario.node[36].nic.mac1609_4 	TooLittleTime 	0
scalar IntersectionExampleScenario.node[36].nic.mac1609_4 	TimesIntoBackoff 	0
scalar IntersectionExampleScenario.node[36].nic.mac1609_4 	SlotsBackoff 	0
scalar IntersectionExampleScenario.node[36].nic.mac1609_4 	NumInternalContention 	0
scalar IntersectionExampleScenario.node[36].nic.mac1609_4 	totalBusyTime 	0
scalar IntersectionExampleScenario.node[36].veinsmobility 	startTime 	88.5
scalar IntersectionExampleScenario.node[36].veinsmobility 	totalTime 	51.5
scalar IntersectionExampleScenario.node[36].veinsmobility 	stopTime 	140.25
scalar IntersectionExampleScenario.node[36].veinsmobility 	minSpeed 	0
scalar IntersectionExampleScenario.node[36].veinsmobility 	maxSpeed 	16.27499961853
scalar IntersectionExampleScenario.node[36].veinsmobility 	totalDistance 	551.4950953876
scalar IntersectionExampleScenario.node[36].veinsmobility 	totalCO2Emission 	147.99173038682
scalar IntersectionExampleScenario.node[37].appl 	VehicleRemoved 	0
scalar IntersectionExampleScenario.node[37].appl 	ArrivedAtDest 	1
scalar IntersectionExampleScenario.node[37].appl 	IntersectionEnterTime 	97.75
scalar IntersectionExampleScenario.node[37].appl 	IntersectionExitTime 	124.25349266318
scalar IntersectionExampleScenario.node[37].appl 	NumberOfCollisions 	0
scalar IntersectionExampleScenario.node[37].nic.phy80211p 	busyTime 	0
scalar IntersectionExampleScenario.node[37].nic.mac1609_4 	ReceivedUnicastPackets 	0
scalar IntersectionExampleScenario.node[37].nic.mac1609_4 	ReceivedBroadcasts 	0
scalar IntersectionExampleScenario.node[37].nic.mac1609_4 	SentPackets 	0
scalar IntersectionExampleScenario.node[37].nic.mac1609_4 	SNIRLostPackets 	0
scalar IntersectionExampleScenario.node[37].nic.mac1609_4 	RXTXLostPackets 	0
scalar IntersectionExampleScenario.node[37].nic.mac1609_4 	TotalLostPackets 	0
scalar IntersectionExampleScenario.node[37].nic.mac1609_4 	DroppedPacketsInMac 	0
scalar IntersectionExampleScenario.node[37].nic.mac1609_4 	TooLittleTime 	0
scalar IntersectionExampleScenario.node[37].nic.mac1609_4 	TimesIntoBackoff 	0
scalar IntersectionExampleScenario.node[37].nic.mac1609_4 	SlotsBackoff 	0
scalar IntersectionExampleScenario.node[37].nic.mac1609_4 	NumInternalContention 	0
scalar IntersectionExampleScenario.node[37].nic.mac1609_4 	totalBusyTime 	0
scalar IntersectionExampleScenario.node[37].veinsmobility 	startTime 	97.75
scalar IntersectionExampleScenario.node[37].veinsmobility 	totalTime 	42.5
scalar IntersectionExampleScenario.node[37].veinsmobility 	stopTime 	140.5
scalar IntersectionExampleScenario.node[37].veinsmobility 	minSpeed 	0
scalar IntersectionExampleScenario.node[37].veinsmobility 	maxSpeed 	15.64999961853
scalar IntersectionExampleScenario.node[37].veinsmobility 	totalDistance 	553.61808013916
scalar IntersectionExampleScenario.node[37].veinsmobility 	totalCO2Emission 	135.64931828446
scalar IntersectionExampleScenario.node[40].appl 	VehicleRemoved 	0
scalar IntersectionExampleScenario.node[40].appl 	ArrivedAtDest 	1
scalar IntersectionExampleScenario.node[40].appl 	IntersectionEnterTime 	112.25
scalar IntersectionExampleScenario.node[40].appl 	IntersectionExitTime 	135.79441426953
scalar IntersectionExampleScenario.node[40].appl 	NumberOfCollisions 	0
scalar IntersectionExampleScenario.node[40].nic.phy80211p 	busyTime 	0
scalar IntersectionExampleScenario.node[40].nic.mac1609_4 	ReceivedUnicastPackets 	0
scalar IntersectionExampleScenario.node[40].nic.mac1609_4 	ReceivedBroadcasts 	0
scalar IntersectionExampleScenario.node[40].nic.mac1609_4 	SentPackets 	0
scalar IntersectionExampleScenario.node[40].nic.mac1609_4 	SNIRLostPackets 	0
scalar IntersectionExampleScenario.node[40].nic.mac1609_4 	RXTXLostPackets 	0
scalar IntersectionExampleScenario.node[40].nic.mac1609_4 	TotalLostPackets 	0
scalar IntersectionExampleScenario.node[40].nic.mac1609_4 	DroppedPacketsInMac 	0
scalar IntersectionExampleScenario.node[40].nic.mac1609_4 	TooLittleTime 	0
scalar IntersectionExampleScenario.node[40].nic.mac1609_4 	TimesIntoBackoff 	0
scalar IntersectionExampleScenario.node[40].nic.mac1609_4 	SlotsBackoff 	0
scalar IntersectionExampleScenario.node[40].nic.mac1609_4 	NumInternalContention 	0
scalar IntersectionExampleScenario.node[40].nic.mac1609_4 	totalBusyTime 	0
scalar IntersectionExampleScenario.node[40].veinsmobility 	startTime 	112.25
scalar IntersectionExampleScenario.node[40].veinsmobility 	totalTime 	40
scalar IntersectionExampleScenario.node[40].veinsmobility 	stopTime 	152.5
scalar IntersectionExampleScenario.node[40].veinsmobility 	minSpeed 	5.6500000953674
scalar IntersectionExampleScenario.node[40].veinsmobility 	maxSpeed 	15.375
scalar IntersectionExampleScenario.node[40].veinsmobility 	totalDistance 	549.31682929075
scalar IntersectionExampleScenario.node[40].veinsmobility 	totalCO2Emission 	120.7194466891
scalar IntersectionExampleScenario.node[38].appl 	VehicleRemoved 	0
scalar IntersectionExampleScenario.node[38].appl 	ArrivedAtDest 	1
scalar IntersectionExampleScenario.node[38].appl 	IntersectionEnterTime 	105.75
scalar IntersectionExampleScenario.node[38].appl 	IntersectionExitTime 	138.52823633101
scalar IntersectionExampleScenario.node[38].appl 	NumberOfCollisions 	0
scalar IntersectionExampleScenario.node[38].nic.phy80211p 	busyTime 	0
scalar IntersectionExampleScenario.node[38].nic.mac1609_4 	ReceivedUnicastPackets 	0
scalar IntersectionExampleScenario.node[38].nic.mac1609_4 	ReceivedBroadcasts 	0
scalar IntersectionExampleScenario.node[38].nic.mac1609_4 	SentPackets 	0
scalar IntersectionExampleScenario.node[38].nic.mac1609_4 	SNIRLostPackets 	0
scalar IntersectionExampleScenario.node[38].nic.mac1609_4 	RXTXLostPackets 	0
scalar IntersectionExampleScenario.node[38].nic.mac1609_4 	TotalLostPackets 	0
scalar IntersectionExampleScenario.node[38].nic.mac1609_4 	DroppedPacketsInMac 	0
scalar IntersectionExampleScenario.node[38].nic.mac1609_4 	TooLittleTime 	0
scalar IntersectionExampleScenario.node[38].nic.mac1609_4 	TimesIntoBackoff 	0
[...]
scalar IntersectionExampleScenario.manager 	Direction-East-StDev 	5.5695102757401
scalar IntersectionExampleScenario.node[494].appl 	VehicleRemoved 	0
scalar IntersectionExampleScenario.node[494].appl 	ArrivedAtDest 	0
scalar IntersectionExampleScenario.node[494].appl 	IntersectionEnterTime 	1759.25
scalar IntersectionExampleScenario.node[494].appl 	IntersectionExitTime 	1783.8392470754
scalar IntersectionExampleScenario.node[494].appl 	NumberOfCollisions 	0
scalar IntersectionExampleScenario.node[494].nic.phy80211p 	busyTime 	0
scalar IntersectionExampleScenario.node[494].nic.mac1609_4 	ReceivedUnicastPackets 	0
scalar IntersectionExampleScenario.node[494].nic.mac1609_4 	ReceivedBroadcasts 	0
scalar IntersectionExampleScenario.node[494].nic.mac1609_4 	SentPackets 	0
scalar IntersectionExampleScenario.node[494].nic.mac1609_4 	SNIRLostPackets 	0
scalar IntersectionExampleScenario.node[494].nic.mac1609_4 	RXTXLostPackets 	0
scalar IntersectionExampleScenario.node[494].nic.mac1609_4 	TotalLostPackets 	0
scalar IntersectionExampleScenario.node[494].nic.mac1609_4 	DroppedPacketsInMac 	0
scalar IntersectionExampleScenario.node[494].nic.mac1609_4 	TooLittleTime 	0
scalar IntersectionExampleScenario.node[494].nic.mac1609_4 	TimesIntoBackoff 	0
scalar IntersectionExampleScenario.node[494].nic.mac1609_4 	SlotsBackoff 	0
scalar IntersectionExampleScenario.node[494].nic.mac1609_4 	NumInternalContention 	0
scalar IntersectionExampleScenario.node[494].nic.mac1609_4 	totalBusyTime 	0
scalar IntersectionExampleScenario.node[494].veinsmobility 	startTime 	1759.25
scalar IntersectionExampleScenario.node[494].veinsmobility 	totalTime 	40.75
scalar IntersectionExampleScenario.node[494].veinsmobility 	stopTime 	1800
scalar IntersectionExampleScenario.node[494].veinsmobility 	minSpeed 	5.6500000953674
scalar IntersectionExampleScenario.node[494].veinsmobility 	maxSpeed 	15.02499961853
scalar IntersectionExampleScenario.node[494].veinsmobility 	totalDistance 	534.08011698032
scalar IntersectionExampleScenario.node[494].veinsmobility 	totalCO2Emission 	119.61456468056
scalar IntersectionExampleScenario.node[495].appl 	VehicleRemoved 	0
scalar IntersectionExampleScenario.node[495].appl 	ArrivedAtDest 	0
scalar IntersectionExampleScenario.node[495].appl 	IntersectionEnterTime 	1764
scalar IntersectionExampleScenario.node[495].appl 	IntersectionExitTime 	1787.1033500787
scalar IntersectionExampleScenario.node[495].appl 	NumberOfCollisions 	0
scalar IntersectionExampleScenario.node[495].nic.phy80211p 	busyTime 	0
scalar IntersectionExampleScenario.node[495].nic.mac1609_4 	ReceivedUnicastPackets 	0
scalar IntersectionExampleScenario.node[495].nic.mac1609_4 	ReceivedBroadcasts 	0
scalar IntersectionExampleScenario.node[495].nic.mac1609_4 	SentPackets 	0
scalar IntersectionExampleScenario.node[495].nic.mac1609_4 	SNIRLostPackets 	0
scalar IntersectionExampleScenario.node[495].nic.mac1609_4 	RXTXLostPackets 	0
scalar IntersectionExampleScenario.node[495].nic.mac1609_4 	TotalLostPackets 	0
scalar IntersectionExampleScenario.node[495].nic.mac1609_4 	DroppedPacketsInMac 	0
scalar IntersectionExampleScenario.node[495].nic.mac1609_4 	TooLittleTime 	0
scalar IntersectionExampleScenario.node[495].nic.mac1609_4 	TimesIntoBackoff 	0
scalar IntersectionExampleScenario.node[495].nic.mac1609_4 	SlotsBackoff 	0
scalar IntersectionExampleScenario.node[495].nic.mac1609_4 	NumInternalContention 	0
scalar IntersectionExampleScenario.node[495].nic.mac1609_4 	totalBusyTime 	0
scalar IntersectionExampleScenario.node[495].veinsmobility 	startTime 	1764
scalar IntersectionExampleScenario.node[495].veinsmobility 	totalTime 	36
scalar IntersectionExampleScenario.node[495].veinsmobility 	stopTime 	1800
scalar IntersectionExampleScenario.node[495].veinsmobility 	minSpeed 	5.6500000953674
scalar IntersectionExampleScenario.node[495].veinsmobility 	maxSpeed 	15.654712677002
scalar IntersectionExampleScenario.node[495].veinsmobility 	totalDistance 	501.97779806896
scalar IntersectionExampleScenario.node[495].veinsmobility 	totalCO2Emission 	115.38278804173
scalar IntersectionExampleScenario.node[496].appl 	VehicleRemoved 	0
scalar IntersectionExampleScenario.node[496].appl 	ArrivedAtDest 	0
scalar IntersectionExampleScenario.node[496].appl 	IntersectionEnterTime 	1764
scalar IntersectionExampleScenario.node[496].appl 	IntersectionExitTime 	1787.0022662035
scalar IntersectionExampleScenario.node[496].appl 	NumberOfCollisions 	0
scalar IntersectionExampleScenario.node[496].nic.phy80211p 	busyTime 	0
scalar IntersectionExampleScenario.node[496].nic.mac1609_4 	ReceivedUnicastPackets 	0
scalar IntersectionExampleScenario.node[496].nic.mac1609_4 	ReceivedBroadcasts 	0
scalar IntersectionExampleScenario.node[496].nic.mac1609_4 	SentPackets 	0
scalar IntersectionExampleScenario.node[496].nic.mac1609_4 	SNIRLostPackets 	0
scalar IntersectionExampleScenario.node[496].nic.mac1609_4 	RXTXLostPackets 	0
scalar IntersectionExampleScenario.node[496].nic.mac1609_4 	TotalLostPackets 	0
scalar IntersectionExampleScenario.node[496].nic.mac1609_4 	DroppedPacketsInMac 	0
scalar IntersectionExampleScenario.node[496].nic.mac1609_4 	TooLittleTime 	0
scalar IntersectionExampleScenario.node[496].nic.mac1609_4 	TimesIntoBackoff 	0
scalar IntersectionExampleScenario.node[496].nic.mac1609_4 	SlotsBackoff 	0
scalar IntersectionExampleScenario.node[496].nic.mac1609_4 	NumInternalContention 	0
scalar IntersectionExampleScenario.node[496].nic.mac1609_4 	totalBusyTime 	0
scalar IntersectionExampleScenario.node[496].veinsmobility 	startTime 	1764
scalar IntersectionExampleScenario.node[496].veinsmobility 	totalTime 	36
scalar IntersectionExampleScenario.node[496].veinsmobility 	stopTime 	1800
scalar IntersectionExampleScenario.node[496].veinsmobility 	minSpeed 	5.6500000953674
scalar IntersectionExampleScenario.node[496].veinsmobility 	maxSpeed 	15.64999961853
scalar IntersectionExampleScenario.node[496].veinsmobility 	totalDistance 	500.12852375388
scalar IntersectionExampleScenario.node[496].veinsmobility 	totalCO2Emission 	116.13612622025
scalar IntersectionExampleScenario.node[497].appl 	VehicleRemoved 	0
scalar IntersectionExampleScenario.node[497].appl 	ArrivedAtDest 	0
scalar IntersectionExampleScenario.node[497].appl 	IntersectionEnterTime 	1774
scalar IntersectionExampleScenario.node[497].appl 	IntersectionExitTime 	-1
scalar IntersectionExampleScenario.node[497].appl 	NumberOfCollisions 	0
scalar IntersectionExampleScenario.node[497].nic.phy80211p 	busyTime 	0
scalar IntersectionExampleScenario.node[497].nic.mac1609_4 	ReceivedUnicastPackets 	0
scalar IntersectionExampleScenario.node[497].nic.mac1609_4 	ReceivedBroadcasts 	0
scalar IntersectionExampleScenario.node[497].nic.mac1609_4 	SentPackets 	0
scalar IntersectionExampleScenario.node[497].nic.mac1609_4 	SNIRLostPackets 	0
scalar IntersectionExampleScenario.node[497].nic.mac1609_4 	RXTXLostPackets 	0
scalar IntersectionExampleScenario.node[497].nic.mac1609_4 	TotalLostPackets 	0
scalar IntersectionExampleScenario.node[497].nic.mac1609_4 	DroppedPacketsInMac 	0
scalar IntersectionExampleScenario.node[497].nic.mac1609_4 	TooLittleTime 	0
scalar IntersectionExampleScenario.node[497].nic.mac1609_4 	TimesIntoBackoff 	0
scalar IntersectionExampleScenario.node[497].nic.mac1609_4 	SlotsBackoff 	0
scalar IntersectionExampleScenario.node[497].nic.mac1609_4 	NumInternalContention 	0
scalar IntersectionExampleScenario.node[497].nic.mac1609_4 	totalBusyTime 	0
scalar IntersectionExampleScenario.node[497].veinsmobility 	startTime 	1774
scalar IntersectionExampleScenario.node[497].veinsmobility 	totalTime 	26
scalar IntersectionExampleScenario.node[497].veinsmobility 	stopTime 	1800
scalar IntersectionExampleScenario.node[497].veinsmobility 	minSpeed 	0
scalar IntersectionExampleScenario.node[497].veinsmobility 	maxSpeed 	15.123247146606
scalar IntersectionExampleScenario.node[497].veinsmobility 	totalDistance 	287.42188262939
scalar IntersectionExampleScenario.node[497].veinsmobility 	totalCO2Emission 	67.886907959751
scalar IntersectionExampleScenario.node[498].appl 	VehicleRemoved 	0
scalar IntersectionExampleScenario.node[498].appl 	ArrivedAtDest 	0
scalar IntersectionExampleScenario.node[498].appl 	IntersectionEnterTime 	1775.25
scalar IntersectionExampleScenario.node[498].appl 	IntersectionExitTime 	1799.3634749529
scalar IntersectionExampleScenario.node[498].appl 	NumberOfCollisions 	0
scalar IntersectionExampleScenario.node[498].nic.phy80211p 	busyTime 	0
scalar IntersectionExampleScenario.node[498].nic.mac1609_4 	ReceivedUnicastPackets 	0
scalar IntersectionExampleScenario.node[498].nic.mac1609_4 	ReceivedBroadcasts 	0
scalar IntersectionExampleScenario.node[498].nic.mac1609_4 	SentPackets 	0
scalar IntersectionExampleScenario.node[498].nic.mac1609_4 	SNIRLostPackets 	0
scalar IntersectionExampleScenario.node[498].nic.mac1609_4 	RXTXLostPackets 	0
scalar IntersectionExampleScenario.node[498].nic.mac1609_4 	TotalLostPackets 	0
scalar IntersectionExampleScenario.node[498].nic.mac1609_4 	DroppedPacketsInMac 	0
scalar IntersectionExampleScenario.node[498].nic.mac1609_4 	TooLittleTime 	0
scalar IntersectionExampleScenario.node[498].nic.mac1609_4 	TimesIntoBackoff 	0
scalar IntersectionExampleScenario.node[498].nic.mac1609_4 	SlotsBackoff 	0
scalar IntersectionExampleScenario.node[498].nic.mac1609_4 	NumInternalContention 	0
scalar IntersectionExampleScenario.node[498].nic.mac1609_4 	totalBusyTime 	0
scalar IntersectionExampleScenario.node[498].veinsmobility 	startTime 	1775.25
scalar IntersectionExampleScenario.node[498].veinsmobility 	totalTime 	24.75
scalar IntersectionExampleScenario.node[498].veinsmobility 	stopTime 	1800
scalar IntersectionExampleScenario.node[498].veinsmobility 	minSpeed 	5.6500000953674
scalar IntersectionExampleScenario.node[498].veinsmobility 	maxSpeed 	15.02499961853
scalar IntersectionExampleScenario.node[498].veinsmobility 	totalDistance 	310.5330797542
scalar IntersectionExampleScenario.node[498].veinsmobility 	totalCO2Emission 	70.870442529143
scalar IntersectionExampleScenario.node[499].appl 	VehicleRemoved 	0
scalar IntersectionExampleScenario.node[499].appl 	ArrivedAtDest 	0
scalar IntersectionExampleScenario.node[499].appl 	IntersectionEnterTime 	1778
scalar IntersectionExampleScenario.node[499].appl 	IntersectionExitTime 	-1
scalar IntersectionExampleScenario.node[499].appl 	NumberOfCollisions 	0
scalar IntersectionExampleScenario.node[499].nic.phy80211p 	busyTime 	0
scalar IntersectionExampleScenario.node[499].nic.mac1609_4 	ReceivedUnicastPackets 	0
scalar IntersectionExampleScenario.node[499].nic.mac1609_4 	ReceivedBroadcasts 	0
scalar IntersectionExampleScenario.node[499].nic.mac1609_4 	SentPackets 	0
scalar IntersectionExampleScenario.node[499].nic.mac1609_4 	SNIRLostPackets 	0
scalar IntersectionExampleScenario.node[499].nic.mac1609_4 	RXTXLostPackets 	0
scalar IntersectionExampleScenario.node[499].nic.mac1609_4 	TotalLostPackets 	0
scalar IntersectionExampleScenario.node[499].nic.mac1609_4 	DroppedPacketsInMac 	0
scalar IntersectionExampleScenario.node[499].nic.mac1609_4 	TooLittleTime 	0
scalar IntersectionExampleScenario.node[499].nic.mac1609_4 	TimesIntoBackoff 	0
scalar IntersectionExampleScenario.node[499].nic.mac1609_4 	SlotsBackoff 	0
scalar IntersectionExampleScenario.node[499].nic.mac1609_4 	NumInternalContention 	0
scalar IntersectionExampleScenario.node[499].nic.mac1609_4 	totalBusyTime 	0
scalar IntersectionExampleScenario.node[499].veinsmobility 	startTime 	1778
scalar IntersectionExampleScenario.node[499].veinsmobility 	totalTime 	22
scalar IntersectionExampleScenario.node[499].veinsmobility 	stopTime 	1800
scalar IntersectionExampleScenario.node[499].veinsmobility 	minSpeed 	5.6500000953674
scalar IntersectionExampleScenario.node[499].veinsmobility 	maxSpeed 	16.013851165771
scalar IntersectionExampleScenario.node[499].veinsmobility 	totalDistance 	311.04376220703
scalar IntersectionExampleScenario.node[499].veinsmobility 	totalCO2Emission 	79.33587164225
scalar IntersectionExampleScenario.node[500].appl 	VehicleRemoved 	0
scalar IntersectionExampleScenario.node[500].appl 	ArrivedAtDest 	0
scalar IntersectionExampleScenario.node[500].appl 	IntersectionEnterTime 	1781.75
scalar IntersectionExampleScenario.node[500].appl 	IntersectionExitTime 	-1
scalar IntersectionExampleScenario.node[500].appl 	NumberOfCollisions 	0
scalar IntersectionExampleScenario.node[500].nic.phy80211p 	busyTime 	0
scalar IntersectionExampleScenario.node[500].nic.mac1609_4 	ReceivedUnicastPackets 	0
scalar IntersectionExampleScenario.node[500].nic.mac1609_4 	ReceivedBroadcasts 	0
scalar IntersectionExampleScenario.node[500].nic.mac1609_4 	SentPackets 	0
scalar IntersectionExampleScenario.node[500].nic.mac1609_4 	SNIRLostPackets 	0
scalar IntersectionExampleScenario.node[500].nic.mac1609_4 	RXTXLostPackets 	0
scalar IntersectionExampleScenario.node[500].nic.mac1609_4 	TotalLostPackets 	0
scalar IntersectionExampleScenario.node[500].nic.mac1609_4 	DroppedPacketsInMac 	0
scalar IntersectionExampleScenario.node[500].nic.mac1609_4 	TooLittleTime 	0
scalar IntersectionExampleScenario.node[500].nic.mac1609_4 	TimesIntoBackoff 	0
scalar IntersectionExampleScenario.node[500].nic.mac1609_4 	SlotsBackoff 	0
scalar IntersectionExampleScenario.node[500].nic.mac1609_4 	NumInternalContention 	0
scalar IntersectionExampleScenario.node[500].nic.mac1609_4 	totalBusyTime 	0
scalar IntersectionExampleScenario.node[500].veinsmobility 	startTime 	1781.75
scalar IntersectionExampleScenario.node[500].veinsmobility 	totalTime 	18.25
scalar IntersectionExampleScenario.node[500].veinsmobility 	stopTime 	1800
scalar IntersectionExampleScenario.node[500].veinsmobility 	minSpeed 	5.6500000953674
scalar IntersectionExampleScenario.node[500].veinsmobility 	maxSpeed 	16.27499961853
scalar IntersectionExampleScenario.node[500].veinsmobility 	totalDistance 	263.9748840332
scalar IntersectionExampleScenario.node[500].veinsmobility 	totalCO2Emission 	64.269893089345
scalar IntersectionExampleScenario.node[501].appl 	VehicleRemoved 	0
scalar IntersectionExampleScenario.node[501].appl 	ArrivedAtDest 	0
scalar IntersectionExampleScenario.node[501].appl 	IntersectionEnterTime 	1786.25
scalar IntersectionExampleScenario.node[501].appl 	IntersectionExitTime 	-1
scalar IntersectionExampleScenario.node[501].appl 	NumberOfCollisions 	0
scalar IntersectionExampleScenario.node[501].nic.phy80211p 	busyTime 	0
scalar IntersectionExampleScenario.node[501].nic.mac1609_4 	ReceivedUnicastPackets 	0
scalar IntersectionExampleScenario.node[501].nic.mac1609_4 	ReceivedBroadcasts 	0
scalar IntersectionExampleScenario.node[501].nic.mac1609_4 	SentPackets 	0
scalar IntersectionExampleScenario.node[501].nic.mac1609_4 	SNIRLostPackets 	0
scalar IntersectionExampleScenario.node[501].nic.mac1609_4 	RXTXLostPackets 	0
scalar IntersectionExampleScenario.node[501].nic.mac1609_4 	TotalLostPackets 	0
scalar IntersectionExampleScenario.node[501].nic.mac1609_4 	DroppedPacketsInMac 	0
scalar IntersectionExampleScenario.node[501].nic.mac1609_4 	TooLittleTime 	0
scalar IntersectionExampleScenario.node[501].nic.mac1609_4 	TimesIntoBackoff 	0
scalar IntersectionExampleScenario.node[501].nic.mac1609_4 	SlotsBackoff 	0
scalar IntersectionExampleScenario.node[501].nic.mac1609_4 	NumInternalContention 	0
scalar IntersectionExampleScenario.node[501].nic.mac1609_4 	totalBusyTime 	0
scalar IntersectionExampleScenario.node[501].veinsmobility 	startTime 	1786.25
scalar IntersectionExampleScenario.node[501].veinsmobility 	totalTime 	13.75
scalar IntersectionExampleScenario.node[501].veinsmobility 	stopTime 	1800
scalar IntersectionExampleScenario.node[501].veinsmobility 	minSpeed 	5.6500000953674
scalar IntersectionExampleScenario.node[501].veinsmobility 	maxSpeed 	15.64999961853
scalar IntersectionExampleScenario.node[501].veinsmobility 	totalDistance 	191.21759033203
scalar IntersectionExampleScenario.node[501].veinsmobility 	totalCO2Emission 	53.881876508984
scalar IntersectionExampleScenario.node[502].appl 	VehicleRemoved 	0
scalar IntersectionExampleScenario.node[502].appl 	ArrivedAtDest 	0
scalar IntersectionExampleScenario.node[502].appl 	IntersectionEnterTime 	1787
scalar IntersectionExampleScenario.node[502].appl 	IntersectionExitTime 	-1
scalar IntersectionExampleScenario.node[502].appl 	NumberOfCollisions 	0
scalar IntersectionExampleScenario.node[502].nic.phy80211p 	busyTime 	0
scalar IntersectionExampleScenario.node[502].nic.mac1609_4 	ReceivedUnicastPackets 	0
scalar IntersectionExampleScenario.node[502].nic.mac1609_4 	ReceivedBroadcasts 	0
scalar IntersectionExampleScenario.node[502].nic.mac1609_4 	SentPackets 	0
scalar IntersectionExampleScenario.node[502].nic.mac1609_4 	SNIRLostPackets 	0
scalar IntersectionExampleScenario.node[502].nic.mac1609_4 	RXTXLostPackets 	0
scalar IntersectionExampleScenario.node[502].nic.mac1609_4 	TotalLostPackets 	0
scalar IntersectionExampleScenario.node[502].nic.mac1609_4 	DroppedPacketsInMac 	0
scalar IntersectionExampleScenario.node[502].nic.mac1609_4 	TooLittleTime 	0
scalar IntersectionExampleScenario.node[502].nic.mac1609_4 	TimesIntoBackoff 	0
scalar IntersectionExampleScenario.node[502].nic.mac1609_4 	SlotsBackoff 	0
scalar IntersectionExampleScenario.node[502].nic.mac1609_4 	NumInternalContention 	0
scalar IntersectionExampleScenario.node[502].nic.mac1609_4 	totalBusyTime 	0
scalar IntersectionExampleScenario.node[502].veinsmobility 	startTime 	1787
scalar IntersectionExampleScenario.node[502].veinsmobility 	totalTime 	13
scalar IntersectionExampleScenario.node[502].veinsmobility 	stopTime 	1800
scalar IntersectionExampleScenario.node[502].veinsmobility 	minSpeed 	5.6500000953674
scalar IntersectionExampleScenario.node[502].veinsmobility 	maxSpeed 	15.02499961853
scalar IntersectionExampleScenario.node[502].veinsmobility 	totalDistance 	174.26853179932
scalar IntersectionExampleScenario.node[502].veinsmobility 	totalCO2Emission 	49.400973174479
scalar IntersectionExampleScenario.node[503].appl 	VehicleRemoved 	0
scalar IntersectionExampleScenario.node[503].appl 	ArrivedAtDest 	0
scalar IntersectionExampleScenario.node[503].appl 	IntersectionEnterTime 	1798.75
scalar IntersectionExampleScenario.node[503].appl 	IntersectionExitTime 	-1
scalar IntersectionExampleScenario.node[503].appl 	NumberOfCollisions 	0
scalar IntersectionExampleScenario.node[503].nic.phy80211p 	busyTime 	0
scalar IntersectionExampleScenario.node[503].nic.mac1609_4 	ReceivedUnicastPackets 	0
scalar IntersectionExampleScenario.node[503].nic.mac1609_4 	ReceivedBroadcasts 	0
scalar IntersectionExampleScenario.node[503].nic.mac1609_4 	SentPackets 	0
scalar IntersectionExampleScenario.node[503].nic.mac1609_4 	SNIRLostPackets 	0
scalar IntersectionExampleScenario.node[503].nic.mac1609_4 	RXTXLostPackets 	0
scalar IntersectionExampleScenario.node[503].nic.mac1609_4 	TotalLostPackets 	0
scalar IntersectionExampleScenario.node[503].nic.mac1609_4 	DroppedPacketsInMac 	0
scalar IntersectionExampleScenario.node[503].nic.mac1609_4 	TooLittleTime 	0
scalar IntersectionExampleScenario.node[503].nic.mac1609_4 	TimesIntoBackoff 	0
scalar IntersectionExampleScenario.node[503].nic.mac1609_4 	SlotsBackoff 	0
scalar IntersectionExampleScenario.node[503].nic.mac1609_4 	NumInternalContention 	0
scalar IntersectionExampleScenario.node[503].nic.mac1609_4 	totalBusyTime 	0
scalar IntersectionExampleScenario.node[503].veinsmobility 	startTime 	1798.75
scalar IntersectionExampleScenario.node[503].veinsmobility 	totalTime 	1.25
scalar IntersectionExampleScenario.node[503].veinsmobility 	stopTime 	1800
scalar IntersectionExampleScenario.node[503].veinsmobility 	minSpeed 	5.6500000953674
scalar IntersectionExampleScenario.node[503].veinsmobility 	maxSpeed 	8.1499996185303
scalar IntersectionExampleScenario.node[503].veinsmobility 	totalDistance 	8.2343673706055
scalar IntersectionExampleScenario.node[503].veinsmobility 	totalCO2Emission 	5.8390974258108
