file 15894394 1591474824                                        
version 2
run nodebug-49-20200606-16:18:10-20656
attr configname nodebug
attr datetime 20200606-16:18:10
attr experiment nodebug
attr inifile omnetpp.ini
attr iterationvars ""
attr iterationvars2 $repetition=49
attr measurement ""
attr network "\"org.car2x.veins.modules.application.ExtTraCIScenarioManagerLaunchd.IntersectionExampleScenario\""
attr processid 20656
attr repetition 49
attr replication #49
attr resultdir results
attr runnumber 49
attr seedset 49
param **.coreDebug false
param **.debug false
param *.**.nic.mac1609_4.bitrate 18Mbps
param *.**.nic.mac1609_4.txPower 20mW
param *.**.nic.mac1609_4.useServiceChannel false
param *.**.nic.phy80211p.analogueModels "xmldoc(\"config.xml\")"
param *.**.nic.phy80211p.decider "xmldoc(\"config.xml\")"
param *.**.nic.phy80211p.sensitivity -89dBm
param *.**.nic.phy80211p.thermalNoise -110dBm
param *.**.nic.phy80211p.usePropagationDelay true
param *.**.nic.phy80211p.useThermalNoise true
param *.annotations.draw false
param *.connectionManager.alpha 2.0
param *.connectionManager.carrierFrequency "5.890e9 Hz"
param *.connectionManager.pMax 20mW
param *.connectionManager.sat -89dBm
param *.connectionManager.sendDirect true
param *.manager.autoShutdown true
param *.manager.host "\"localhost\""
param *.manager.launchConfig "xmldoc(\"paramics.launchd.xml\")"
param *.manager.margin 25
param *.manager.moduleDisplayString "\"\""
param *.manager.moduleName "\"node\""
param *.manager.moduleType "\"org.car2x.veins.nodes.Car\""
param *.manager.port 9999
param *.manager.updateInterval 250ms
param *.node[*0].veinsmobility.accidentCount 0
param *.node[*0].veinsmobility.accidentDuration 30s
param *.node[*0].veinsmobility.accidentStart 75s
param *.node[*].appl.LiderSelectZoneRadio 55.0
param *.node[*].appl.ShareDataZoneRadio 110.0
param *.node[*].appl.TiempoSemaforo 30.0
param *.node[*].appl.beaconInterval 1s
param *.node[*].appl.beaconPriority 3
param *.node[*].appl.dataOnSch false
param *.node[*].appl.dataPriority 2
param *.node[*].appl.debug false
param *.node[*].appl.headerLength "256 bit"
param *.node[*].appl.maxOffset 0.005s
param *.node[*].appl.sendBeacons false
param *.node[*].appl.sendData true
param *.node[*].applType "\"Dummy\""
param *.node[*].mobilityType "\"TraCIMobility\""
param *.node[*].mobilityType.debug true
param *.node[*].veinsmobility.x 0
param *.node[*].veinsmobility.y 0
param *.node[*].veinsmobility.z 1.895
param *.node[*].veinsmobilityType "\"org.car2x.veins.modules.mobility.traci.TraCIMobility\""
param *.node[*].veinsmobilityType.debug true
param *.playgroundSizeX 8500m
param *.playgroundSizeY 8500m
param *.playgroundSizeZ 50m
param *.world.use2D false
param *.world.useTorus false

vector 56441  IntersectionExampleScenario.manager  vehiclesinsim  ETV
attr type  int
vector 56442  IntersectionExampleScenario.manager  realtime  ETV
attr type  int
attr unit  s
vector 56445  IntersectionExampleScenario.node[0].veinsmobility  posx  ETV
vector 56446  IntersectionExampleScenario.node[0].veinsmobility  posy  ETV
vector 56447  IntersectionExampleScenario.node[0].veinsmobility  speed  ETV
vector 56448  IntersectionExampleScenario.node[0].veinsmobility  acceleration  ETV
vector 56449  IntersectionExampleScenario.node[0].veinsmobility  co2emission  ETV
vector 56452  IntersectionExampleScenario.node[1].veinsmobility  posx  ETV
vector 56453  IntersectionExampleScenario.node[1].veinsmobility  posy  ETV
vector 56454  IntersectionExampleScenario.node[1].veinsmobility  speed  ETV
vector 56455  IntersectionExampleScenario.node[1].veinsmobility  acceleration  ETV
vector 56456  IntersectionExampleScenario.node[1].veinsmobility  co2emission  ETV
vector 56459  IntersectionExampleScenario.node[2].veinsmobility  posx  ETV
vector 56460  IntersectionExampleScenario.node[2].veinsmobility  posy  ETV
vector 56461  IntersectionExampleScenario.node[2].veinsmobility  speed  ETV
vector 56462  IntersectionExampleScenario.node[2].veinsmobility  acceleration  ETV
vector 56463  IntersectionExampleScenario.node[2].veinsmobility  co2emission  ETV
vector 56466  IntersectionExampleScenario.node[3].veinsmobility  posx  ETV
vector 56467  IntersectionExampleScenario.node[3].veinsmobility  posy  ETV
vector 56468  IntersectionExampleScenario.node[3].veinsmobility  speed  ETV
vector 56469  IntersectionExampleScenario.node[3].veinsmobility  acceleration  ETV
vector 56470  IntersectionExampleScenario.node[3].veinsmobility  co2emission  ETV
vector 56473  IntersectionExampleScenario.node[4].veinsmobility  posx  ETV
vector 56474  IntersectionExampleScenario.node[4].veinsmobility  posy  ETV
vector 56475  IntersectionExampleScenario.node[4].veinsmobility  speed  ETV
vector 56476  IntersectionExampleScenario.node[4].veinsmobility  acceleration  ETV
vector 56477  IntersectionExampleScenario.node[4].veinsmobility  co2emission  ETV
vector 56480  IntersectionExampleScenario.node[5].veinsmobility  posx  ETV
vector 56481  IntersectionExampleScenario.node[5].veinsmobility  posy  ETV
vector 56482  IntersectionExampleScenario.node[5].veinsmobility  speed  ETV
vector 56483  IntersectionExampleScenario.node[5].veinsmobility  acceleration  ETV
vector 56484  IntersectionExampleScenario.node[5].veinsmobility  co2emission  ETV
vector 56487  IntersectionExampleScenario.node[6].veinsmobility  posx  ETV
vector 56488  IntersectionExampleScenario.node[6].veinsmobility  posy  ETV
vector 56489  IntersectionExampleScenario.node[6].veinsmobility  speed  ETV
vector 56490  IntersectionExampleScenario.node[6].veinsmobility  acceleration  ETV
vector 56491  IntersectionExampleScenario.node[6].veinsmobility  co2emission  ETV
vector 56494  IntersectionExampleScenario.node[7].veinsmobility  posx  ETV
vector 56495  IntersectionExampleScenario.node[7].veinsmobility  posy  ETV
vector 56496  IntersectionExampleScenario.node[7].veinsmobility  speed  ETV
vector 56497  IntersectionExampleScenario.node[7].veinsmobility  acceleration  ETV
vector 56498  IntersectionExampleScenario.node[7].veinsmobility  co2emission  ETV
vector 56501  IntersectionExampleScenario.node[8].veinsmobility  posx  ETV
vector 56502  IntersectionExampleScenario.node[8].veinsmobility  posy  ETV
vector 56503  IntersectionExampleScenario.node[8].veinsmobility  speed  ETV
vector 56504  IntersectionExampleScenario.node[8].veinsmobility  acceleration  ETV
vector 56505  IntersectionExampleScenario.node[8].veinsmobility  co2emission  ETV
vector 56508  IntersectionExampleScenario.node[9].veinsmobility  posx  ETV
vector 56509  IntersectionExampleScenario.node[9].veinsmobility  posy  ETV
vector 56510  IntersectionExampleScenario.node[9].veinsmobility  speed  ETV
vector 56511  IntersectionExampleScenario.node[9].veinsmobility  acceleration  ETV
vector 56512  IntersectionExampleScenario.node[9].veinsmobility  co2emission  ETV
vector 56515  IntersectionExampleScenario.node[10].veinsmobility  posx  ETV
vector 56516  IntersectionExampleScenario.node[10].veinsmobility  posy  ETV
vector 56517  IntersectionExampleScenario.node[10].veinsmobility  speed  ETV
vector 56518  IntersectionExampleScenario.node[10].veinsmobility  acceleration  ETV
vector 56519  IntersectionExampleScenario.node[10].veinsmobility  co2emission  ETV
56456	7297 4622 43 2170 5 41.5 147 0.973 12.44402232946 498.50891995123 2917.9168879266
56455	11919 4156 43 2170 5 41.5 147 -3.5516204833984 2.5 42.415441513062 225.37563009907
56454	16075 4511 38 2170 4.75 41.5 148 5.6500000953674 16.75 2216.1186981201 34069.549615558
56453	20586 4809 33 2170 4.5 41.5 149 486.85000610352 486.85000610352 72540.650909424 35316416.338006
56452	25395 4783 33 2170 4.5 41.5 149 237.33013916016 785.82187652588 77958.565818787 44736307.578291
vector 56522  IntersectionExampleScenario.node[11].veinsmobility  posx  ETV
vector 56523  IntersectionExampleScenario.node[11].veinsmobility  posy  ETV
vector 56524  IntersectionExampleScenario.node[11].veinsmobility  speed  ETV
vector 56525  IntersectionExampleScenario.node[11].veinsmobility  acceleration  ETV
vector 56526  IntersectionExampleScenario.node[11].veinsmobility  co2emission  ETV
vector 56529  IntersectionExampleScenario.node[12].veinsmobility  posx  ETV
vector 56530  IntersectionExampleScenario.node[12].veinsmobility  posy  ETV
vector 56531  IntersectionExampleScenario.node[12].veinsmobility  speed  ETV
vector 56536  IntersectionExampleScenario.node[13].veinsmobility  posx  ETV
vector 56537  IntersectionExampleScenario.node[13].veinsmobility  posy  ETV
vector 56532  IntersectionExampleScenario.node[12].veinsmobility  acceleration  ETV
vector 56533  IntersectionExampleScenario.node[12].veinsmobility  co2emission  ETV
vector 56538  IntersectionExampleScenario.node[13].veinsmobility  speed  ETV
vector 56539  IntersectionExampleScenario.node[13].veinsmobility  acceleration  ETV
vector 56540  IntersectionExampleScenario.node[13].veinsmobility  co2emission  ETV
56449	31381 5545 18 2674 3.25 49.5 186 0.973 12.353032912318 587.61097243243 3379.3003477119
56448	36926 5141 18 2674 3.25 49.5 186 -7.4689702987671 4 41.736440658569 516.10957977028
56447	42067 5372 15 2674 3 49.5 187 0 16.625 2213.9955453873 32882.297825966
56446	47439 6059 12 2674 2.75 49.5 188 236.46844482422 785.82187652588 97369.190223694 54438048.654816
56445	53498 6075 12 2674 2.75 49.5 188 483.14999389648 483.14999389648 90832.198852539 43885576.321208
vector 56543  IntersectionExampleScenario.node[14].veinsmobility  posx  ETV
vector 56544  IntersectionExampleScenario.node[14].veinsmobility  posy  ETV
56463	59727 5395 82 2719 6.75 50.25 175 0.973 11.648172402475 547.20895261113 2913.3730762502
56462	65122 5003 82 2719 6.75 50.25 175 -7.775092124939 4 38.511121749878 476.52722360891
56461	70125 5322 75 2719 6.5 50.25 176 0 15.64999961853 2201.8213527203 31157.431613078
56460	75447 5733 68 2719 6.25 50.25 177 184.17810058594 486.85000610352 71747.690582275 30938309.129853
56459	81180 5750 68 2719 6.25 50.25 177 236.75640869141 486.85000610352 77783.495849609 35182522.587587
vector 56545  IntersectionExampleScenario.node[14].veinsmobility  speed  ETV
vector 56546  IntersectionExampleScenario.node[14].veinsmobility  acceleration  ETV
vector 56547  IntersectionExampleScenario.node[14].veinsmobility  co2emission  ETV
vector 56550  IntersectionExampleScenario.node[15].veinsmobility  posx  ETV
vector 56551  IntersectionExampleScenario.node[15].veinsmobility  posy  ETV
vector 56552  IntersectionExampleScenario.node[15].veinsmobility  speed  ETV
vector 56557  IntersectionExampleScenario.node[16].veinsmobility  posx  ETV
vector 56558  IntersectionExampleScenario.node[16].veinsmobility  posy  ETV
vector 56553  IntersectionExampleScenario.node[15].veinsmobility  acceleration  ETV
vector 56554  IntersectionExampleScenario.node[15].veinsmobility  co2emission  ETV
vector 56559  IntersectionExampleScenario.node[16].veinsmobility  speed  ETV
vector 56560  IntersectionExampleScenario.node[16].veinsmobility  acceleration  ETV
vector 56561  IntersectionExampleScenario.node[16].veinsmobility  co2emission  ETV
56470	87979 5339 156 2887 9.25 52.75 175 0.973 11.54047740176 518.52048479529 2691.1510568336
56469	93318 5511 156 2887 9.25 52.75 175 -2.3452186584473 2.5 36.98334312439 262.50577201578
56468	98829 5595 147 2887 9 52.75 176 4.7145175933838 15.5 2210.7720265388 29694.068954488
56467	104424 5769 138 2887 8.75 52.75 177 238.00561523438 785.82187652588 92442.867134094 52468569.14226
56466	110193 5780 138 2887 8.75 52.75 177 483.14999389648 483.14999389648 85517.548919678 41317803.238584
56498	115973 5022 477 3142 16 56.5 163 0.973 11.237435130901 490.69035487841 2716.8772015074
56497	120995 4827 477 3142 16 56.5 163 -3.5536117553711 2.5 35.455564498901 218.3554156544
56496	125822 5160 460 3142 15.75 56.5 164 5.6500000953674 15.07647228241 2219.6340341568 30538.575996225
56495	130982 5400 443 3142 15.5 56.5 165 235.82690429688 785.82187652588 85970.594444275 49114935.690647
56494	136382 5415 443 3142 15.5 56.5 165 483.14999389648 483.14999389648 79719.74899292 38516596.239358
vector 56564  IntersectionExampleScenario.node[17].veinsmobility  posx  ETV
vector 56565  IntersectionExampleScenario.node[17].veinsmobility  posy  ETV
vector 56566  IntersectionExampleScenario.node[17].veinsmobility  speed  ETV
vector 56567  IntersectionExampleScenario.node[17].veinsmobility  acceleration  ETV
vector 56568  IntersectionExampleScenario.node[17].veinsmobility  co2emission  ETV
vector 56571  IntersectionExampleScenario.node[18].veinsmobility  posx  ETV
vector 56572  IntersectionExampleScenario.node[18].veinsmobility  posy  ETV
vector 56573  IntersectionExampleScenario.node[18].veinsmobility  speed  ETV
vector 56574  IntersectionExampleScenario.node[18].veinsmobility  acceleration  ETV
vector 56575  IntersectionExampleScenario.node[18].veinsmobility  co2emission  ETV
vector 56578  IntersectionExampleScenario.node[19].veinsmobility  posx  ETV
vector 56579  IntersectionExampleScenario.node[19].veinsmobility  posy  ETV
vector 56580  IntersectionExampleScenario.node[19].veinsmobility  speed  ETV
vector 56581  IntersectionExampleScenario.node[19].veinsmobility  acceleration  ETV
vector 56582  IntersectionExampleScenario.node[19].veinsmobility  co2emission  ETV
vector 56585  IntersectionExampleScenario.node[20].veinsmobility  posx  ETV
vector 56586  IntersectionExampleScenario.node[20].veinsmobility  posy  ETV
vector 56587  IntersectionExampleScenario.node[20].veinsmobility  speed  ETV
56484	143232 6157 307 3825 13 65 209 0.973 12.099024792222 597.10609889396 3218.8991641667
56483	149389 5743 307 3825 13 65 209 -9.2977170944214 4 40.038900375366 546.84718416102
56482	155132 5941 294 3825 12.75 65 210 0 16.27499961853 2207.277462244 32058.568170848
56481	161073 6912 281 3825 12.5 65 211 235.31896972656 486.85000610352 94440.328460693 43332636.352528
56480	167985 6903 281 3825 12.5 65 211 483.14999389648 785.82187652588 116674.40326691 66483475.246082
vector 56588  IntersectionExampleScenario.node[20].veinsmobility  acceleration  ETV
vector 56589  IntersectionExampleScenario.node[20].veinsmobility  co2emission  ETV
56477	175057 6352 259 3846 12 65.25 214 0.973 11.450879080643 574.39599095409 2810.0039842476
56476	181409 5759 259 3846 12 65.25 214 -8.6679162979126 4 36.98334312439 511.69677348038
56475	187168 6103 248 3846 11.75 65.25 215 0 15.375 2181.4988639355 30349.693260658
56474	193271 7073 237 3846 11.5 65.25 216 483.14999389648 733.20059204102 112940.48698425 60144482.822479
56473	200344 7055 237 3846 11.5 65.25 216 184.17810058594 486.85000610352 89948.14251709 39467168.549544
56505	207399 6203 532 3972 16.75 66.75 201 0.973 11.200708441096 550.60811939012 2667.3886629369
56504	213602 6155 532 3972 16.75 66.75 201 -4.1148872375488 2.5000002384186 36.643835067749 372.29186091651
56503	219757 6486 513 3972 16.5 66.75 202 0 15.02499961853 2210.6980608441 29890.762971446
56502	226243 6674 494 3972 16.25 66.75 203 483.14999389648 483.14999389648 98079.448760986 47387085.070241
56501	232917 6641 494 3972 16.25 66.75 203 184.17810058594 732.49028015137 91650.835113525 45597444.286425
vector 56592  IntersectionExampleScenario.node[21].veinsmobility  posx  ETV
vector 56593  IntersectionExampleScenario.node[21].veinsmobility  posy  ETV
vector 56594  IntersectionExampleScenario.node[21].veinsmobility  speed  ETV
vector 56595  IntersectionExampleScenario.node[21].veinsmobility  acceleration  ETV
vector 56596  IntersectionExampleScenario.node[21].veinsmobility  co2emission  ETV
56491	239959 6575 428 4127 15.25 68.5 214 0.973 11.200708441096 562.97029721544 2643.5215148801
56490	246534 6655 428 4127 15.25 68.5 214 -3.9829444885254 2.5 35.795072555542 354.42476038058
56489	253189 6860 413 4127 15 68.5 215 0 15.02499961853 2279.875168236 30391.647752626
56488	260049 7081 398 4127 14.75 68.5 216 234.98272705078 486.85000610352 96270.972015381 44034479.360812
56487	267130 7081 398 4127 14.75 68.5 216 482.96249389648 802.70781707764 121598.74942017 70721926.438128
56512	274211 4879 1969 4633 37.5 75.25 152 0.973 12.099024792222 509.65437851529 2931.6333282533
56511	279090 4421 1969 4633 37.5 75.25 152 -3.4178009033203 2.5 41.227170944214 260.25388798362
56510	283511 4746 1956 4633 37.25 75.25 153 5.6500000953674 16.27499961853 2208.285572052 32998.513095376
56509	288257 5077 1943 4633 37 75.25 154 483.14999389648 733.19090270996 82459.176055908 45071110.59351
56508	293334 5053 1943 4633 37 75.25 154 184.17810058594 486.87911987305 61244.766235352 26091994.293879
56519	298387 4952 2157 4902 41.25 79.75 155 0.973 12.099024792222 521.64124941272 3030.560225444
56518	303339 4653 2157 4902 41.25 79.75 155 -4.5 2.5 40.887662887573 288.26202837416
56517	307992 4849 2144 4902 41 79.75 156 5.6500000953674 16.27499961853 2210.296505928 32537.731990625
56516	312841 5161 2131 4902 40.75 79.75 157 184.17810058594 486.85000610352 62597.309448242 26706699.800648
56515	318002 5177 2131 4902 40.75 79.75 157 236.61334228516 486.85000610352 68326.272247314 30666443.951013
56533	323179 4888 2433 5087 46.25 84.5 154 0.973 12.26218747632 529.75490118625 3225.0505723445
56532	328067 4746 2433 5087 46.25 84.5 154 -3.6402206420898 2.5 41.736440658569 316.38816306476
56531	332813 4760 2416 5087 46 84.5 155 5.6500000953674 16.5 2186.4650688171 32512.363350036
56530	337573 5115 2399 5087 45.75 84.5 156 184.17810058594 483.22680664062 61988.418487549 26334619.813869
56529	342688 5134 2399 5087 45.75 84.5 156 486.85000610352 733.59889221191 83761.848815918 45861566.936161
56540	347822 4887 2471 5087 46.75 84.5 152 0.973 11.990504229548 480.56587504167 2612.2460010431
56539	352709 4451 2471 5087 46.75 84.5 152 -3.0983200073242 2.5 39.699392318726 198.74138804258
56538	357160 4800 2452 5087 46.5 84.5 153 5.6500000953674 16.125 2223.7700185776 33036.010028512
56537	361960 5073 2433 5087 46.25 84.5 154 235.17742919922 785.82187652588 80275.021064758 45955759.48209
56536	367033 5083 2433 5087 46.25 84.5 154 483.14999389648 483.14999389648 74405.099060059 35948823.156735
56547	372116 5133 2752 5255 50.75 90.5 160 0.973 11.450879080643 483.61037607144 2507.2036753771
56546	377249 4938 2752 5255 50.75 90.5 160 -3.3458480834961 2.5 36.98334312439 226.89482151566
56545	382187 5026 2736 5255 50.5 90.5 161 5.6500000953674 15.375 2214.0392131805 31272.940519484
56544	387213 5318 2719 5255 50.25 90.5 162 184.17810058594 486.88024902344 64534.07824707 27506658.4902
56543	392531 5331 2719 5255 50.25 90.5 162 235.05438232422 486.85000610352 70164.496734619 31383219.248377
vector 56599  IntersectionExampleScenario.node[22].veinsmobility  posx  ETV
vector 56600  IntersectionExampleScenario.node[22].veinsmobility  posy  ETV
vector 56601  IntersectionExampleScenario.node[22].veinsmobility  speed  ETV
vector 56602  IntersectionExampleScenario.node[22].veinsmobility  acceleration  ETV
vector 56603  IntersectionExampleScenario.node[22].veinsmobility  co2emission  ETV
56561	398263 5258 2836 5314 52 93 165 0.973 11.810082123732 537.88962400036 2987.5518224131
56560	403521 5117 2836 5314 52 93 165 -4.5 2.5 38.680875778198 322.31921165585
56559	408638 5142 2819 5314 51.75 93 166 5.6500000953674 15.875 2265.3751411438 32305.008935726
56558	413780 5491 2801 5314 51.5 93 167 162.90466308594 483.14999389648 64983.253479004 27358666.43741
56557	419271 5505 2801 5314 51.5 93 167 486.85000610352 731.95324707031 89369.188995361 48749208.197264
56554	424776 5506 2801 5370 51.5 95.25 176 0.973 11.648172402475 547.492938066 2930.0306833126
56553	430282 5118 2801 5370 51.5 95.25 176 -7.4922199249268 4 38.171613693237 484.73603371837
56552	435400 5452 2784 5370 51.25 95.25 177 0 15.64999961853 2209.8923177719 31296.209765439
56551	440852 5873 2767 5370 51 95.25 178 486.85000610352 486.85000610352 86659.301086426 42190081.262853
56550	446725 5850 2767 5370 51 95.25 178 237.14044189453 785.82187652588 92354.581413269 52065919.340426
56526	452575 6128 2369 5375 45.25 95.5 202 0.973 11.36141391502 558.76806206791 2770.0707197201
56525	458703 5624 2369 5375 45.25 95.5 202 -8.2128305435181 4 36.813589096069 481.09835472119
56524	464327 5921 2354 5375 45 95.5 203 0 15.25 2172.3116796017 29932.914039771
56523	470248 6668 2339 5375 44.75 95.5 204 237.89813232422 483.14999389648 90252.238037109 40945991.979534
56522	476916 6702 2339 5375 44.75 95.5 204 184.17810058594 483.36395263672 84019.012451172 36540757.280782
56568	483618 5162 3231 5420 57.75 98.5 164 0.973 11.450879080643 546.0724476271 3220.2026071722
56567	488780 4728 3231 5420 57.75 98.5 164 -3.6818504333496 2.5 37.492597579956 331.11204828948
56566	493508 5153 3212 5420 57.5 98.5 165 5.6500000953674 15.375 2203.646361351 30416.508196558
56565	498661 5477 3193 5420 57.25 98.5 166 483.14999389648 732.45851135254 88671.979797363 48341302.561315
56564	504138 5452 3193 5420 57.25 98.5 166 184.17810058594 487.06872558594 66149.045043945 28149003.958912
vector 56606  IntersectionExampleScenario.node[23].veinsmobility  posx  ETV
vector 56607  IntersectionExampleScenario.node[23].veinsmobility  posy  ETV
vector 56613  IntersectionExampleScenario.node[24].veinsmobility  posx  ETV
vector 56614  IntersectionExampleScenario.node[24].veinsmobility  posy  ETV
vector 56608  IntersectionExampleScenario.node[23].veinsmobility  speed  ETV
vector 56609  IntersectionExampleScenario.node[23].veinsmobility  acceleration  ETV
vector 56610  IntersectionExampleScenario.node[23].veinsmobility  co2emission  ETV
vector 56615  IntersectionExampleScenario.node[24].veinsmobility  speed  ETV
vector 56616  IntersectionExampleScenario.node[24].veinsmobility  acceleration  ETV
vector 56617  IntersectionExampleScenario.node[24].veinsmobility  co2emission  ETV
vector 56620  IntersectionExampleScenario.node[25].veinsmobility  posx  ETV
vector 56621  IntersectionExampleScenario.node[25].veinsmobility  posy  ETV
vector 56622  IntersectionExampleScenario.node[25].veinsmobility  speed  ETV
vector 56623  IntersectionExampleScenario.node[25].veinsmobility  acceleration  ETV
vector 56624  IntersectionExampleScenario.node[25].veinsmobility  co2emission  ETV
56582	510793 5070 3473 5474 60.75 100.5 160 0.973 11.648172402475 536.30619053021 3149.1429288254
56581	515863 4798 3473 5474 60.75 100.5 160 -3.7244968414307 2.5 38.511121749878 327.64837791308
56580	520661 5019 3452 5474 60.5 100.5 161 5.6500000953674 15.64999961853 2185.8383946419 30994.027285042
56579	525680 5345 3431 5474 60.25 100.5 162 486.85000610352 733.49450683594 87056.192642212 47710859.969522
56578	531025 5334 3431 5474 60.25 100.5 162 486.85000610352 785.82187652588 92757.790382385 54851047.513631
vector 56627  IntersectionExampleScenario.node[26].veinsmobility  posx  ETV
vector 56628  IntersectionExampleScenario.node[26].veinsmobility  posy  ETV
vector 56629  IntersectionExampleScenario.node[26].veinsmobility  speed  ETV
vector 56630  IntersectionExampleScenario.node[26].veinsmobility  acceleration  ETV
vector 56631  IntersectionExampleScenario.node[26].veinsmobility  co2emission  ETV
56596	536760 5086 4081 5766 68 107.5 159 0.97223939240464 11.810082123732 508.73403990974 2863.7190441624
56595	541846 4998 4081 5766 68 107.5 159 -3.4169158935547 2.5 38.680875778198 283.11268897605
56594	546844 4985 4058 5766 67.75 107.5 160 5.6500000953674 15.875 2189.326171875 31321.612168232
56593	551829 5337 4035 5766 67.5 107.5 161 486.85000610352 734.37237548828 86594.600799561 47508394.548434
56592	557166 5334 4035 5766 67.5 107.5 161 486.67904663086 785.82187652588 92160.150672913 54493857.143541
56575	562500 6157 3330 5876 59 110 205 0.973 11.90022389248 586.91539508261 3134.8301495963
56574	568657 5955 3330 5876 59 110 205 -7.2528095245361 4 39.529638290405 489.97736991375
56573	574612 5965 3309 5876 58.75 110 206 0 16 2202.5264565945 31649.592608575
56572	580577 6853 3288 5876 58.5 110 207 184.17810058594 486.85000610352 86001.103271484 37691612.159993
56571	587430 6864 3288 5876 58.5 110 207 236.87365722656 486.85000610352 92531.889801025 42407838.14283
56589	594294 5839 3846 5997 65.25 112.75 191 0.973 12.099024792222 577.08272057154 3178.0152604265
56588	600133 5543 3846 5997 65.25 112.75 191 -7.8776445388794 4 40.038900375366 526.47367798103
56587	605676 5702 3825 5997 65 112.75 192 0 16.27499961853 2182.0037004948 31450.572522386
56586	611378 6402 3804 5997 64.75 112.75 193 486.75677490234 785.82187652588 107962.53388214 62264397.385001
56585	617780 6411 3804 5997 64.75 112.75 193 236.3984375 483.14999389648 85245.269622803 38631370.26369
vector 56634  IntersectionExampleScenario.node[27].veinsmobility  posx  ETV
vector 56635  IntersectionExampleScenario.node[27].veinsmobility  posy  ETV
vector 56636  IntersectionExampleScenario.node[27].veinsmobility  speed  ETV
vector 56637  IntersectionExampleScenario.node[27].veinsmobility  acceleration  ETV
vector 56638  IntersectionExampleScenario.node[27].veinsmobility  co2emission  ETV
vector 56641  IntersectionExampleScenario.node[28].veinsmobility  posx  ETV
vector 56642  IntersectionExampleScenario.node[28].veinsmobility  posy  ETV
vector 56643  IntersectionExampleScenario.node[28].veinsmobility  speed  ETV
vector 56644  IntersectionExampleScenario.node[28].veinsmobility  acceleration  ETV
vector 56645  IntersectionExampleScenario.node[28].veinsmobility  co2emission  ETV
vector 56648  IntersectionExampleScenario.node[29].veinsmobility  posx  ETV
vector 56649  IntersectionExampleScenario.node[29].veinsmobility  posy  ETV
vector 56650  IntersectionExampleScenario.node[29].veinsmobility  speed  ETV
vector 56651  IntersectionExampleScenario.node[29].veinsmobility  acceleration  ETV
vector 56652  IntersectionExampleScenario.node[29].veinsmobility  co2emission  ETV
vector 56655  IntersectionExampleScenario.node[30].veinsmobility  posx  ETV
vector 56656  IntersectionExampleScenario.node[30].veinsmobility  posy  ETV
vector 56662  IntersectionExampleScenario.node[31].veinsmobility  posx  ETV
vector 56663  IntersectionExampleScenario.node[31].veinsmobility  posy  ETV
vector 56657  IntersectionExampleScenario.node[30].veinsmobility  speed  ETV
vector 56658  IntersectionExampleScenario.node[30].veinsmobility  acceleration  ETV
vector 56659  IntersectionExampleScenario.node[30].veinsmobility  co2emission  ETV
vector 56664  IntersectionExampleScenario.node[31].veinsmobility  speed  ETV
vector 56665  IntersectionExampleScenario.node[31].veinsmobility  acceleration  ETV
vector 56666  IntersectionExampleScenario.node[31].veinsmobility  co2emission  ETV
vector 56669  IntersectionExampleScenario.node[32].veinsmobility  posx  ETV
vector 56670  IntersectionExampleScenario.node[32].veinsmobility  posy  ETV
vector 56671  IntersectionExampleScenario.node[32].veinsmobility  speed  ETV
vector 56672  IntersectionExampleScenario.node[32].veinsmobility  acceleration  ETV
vector 56673  IntersectionExampleScenario.node[32].veinsmobility  co2emission  ETV
vector 56676  IntersectionExampleScenario.node[33].veinsmobility  posx  ETV
vector 56677  IntersectionExampleScenario.node[33].veinsmobility  posy  ETV
vector 56678  IntersectionExampleScenario.node[33].veinsmobility  speed  ETV
vector 56679  IntersectionExampleScenario.node[33].veinsmobility  acceleration  ETV
vector 56680  IntersectionExampleScenario.node[33].veinsmobility  co2emission  ETV
vector 56683  IntersectionExampleScenario.node[34].veinsmobility  posx  ETV
vector 56684  IntersectionExampleScenario.node[34].veinsmobility  posy  ETV
vector 56685  IntersectionExampleScenario.node[34].veinsmobility  speed  ETV
vector 56686  IntersectionExampleScenario.node[34].veinsmobility  acceleration  ETV
vector 56687  IntersectionExampleScenario.node[34].veinsmobility  co2emission  ETV
vector 56690  IntersectionExampleScenario.node[35].veinsmobility  posx  ETV
vector 56691  IntersectionExampleScenario.node[35].veinsmobility  posy  ETV
vector 56692  IntersectionExampleScenario.node[35].veinsmobility  speed  ETV
vector 56693  IntersectionExampleScenario.node[35].veinsmobility  acceleration  ETV
vector 56694  IntersectionExampleScenario.node[35].veinsmobility  co2emission  ETV
56610	627800 5380 5435 7795 99.25 140 164 0.973 11.36141391502 494.36767332019 2585.8876772932
56609	633180 5059 5435 7795 99.25 140 164 -3.4573993682861 2.5 36.134572982788 269.53205947204
56608	638239 5276 5428 7795 99 140 165 5.6500000953674 15.25 2188.8810315132 30212.726783845
56607	643515 5636 5423 7795 98.75 140 166 235.37615966797 483.14999389648 71629.366241455 31878752.967677
56606	649151 5610 5423 7795 98.75 140 166 184.17810058594 483.14999389648 66059.584472656 28066186.937052
56603	654761 6086 5314 7846 93 140.75 192 0.973 11.200708441096 545.59952694315 2686.1517390912
56602	660847 5616 5314 7846 93 140.75 192 -8.817081451416 4 36.134572982788 473.06263670059
56601	666463 5986 5307 7846 92.75 140.75 193 0 15.02499961853 2208.4680182934 30345.283863719
56600	672449 6534 5300 7846 92.5 140.75 194 184.17810058594 732.88059997559 87869.594192505 44056312.350242
56599	678983 6567 5300 7846 92.5 140.75 194 486.85000610352 486.85000610352 94448.901184082 45982448.117941
56624	685550 5305 5474 7880 100.5 141.25 164 0.973 11.945308100424 543.45142714445 2993.8278780417
56623	690855 5201 5474 7880 100.5 141.25 164 -3.1321144104004 2.5 41.204626083374 293.60156509873
56622	696056 5591 5465 7880 100.25 141.25 165 5.6500000953674 16.062446594238 2222.9246306419 31459.548494484
56621	701647 5611 5456 7880 100 141.25 166 235.40625 785.82187652588 85850.276847839 48591169.985125
56620	707258 5643 5456 7880 100 141.25 166 483.14999389648 483.14999389648 80202.898986816 38750030.155961
56617	712901 5609 5442 7999 99.5 143 175 0.973 11.200708441096 517.48339712946 2565.0154992734
56616	718510 5508 5442 7999 99.5 143 175 -2.6022186279297 2.5000019073486 36.98334312439 257.56120875405
56615	724018 5861 5435 7999 99.25 143 176 4.7900004386902 15.02499961853 2222.0192232132 29952.212767023
56614	729879 5978 5428 7999 99 143 177 184.17810058594 734.84553527832 79548.316207886 40001469.122055
56613	735857 6012 5428 7999 99 143 177 486.85000610352 486.85000610352 86172.451080322 41953058.33441
vector 56697  IntersectionExampleScenario.node[36].veinsmobility  posx  ETV
vector 56698  IntersectionExampleScenario.node[36].veinsmobility  posy  ETV
vector 56699  IntersectionExampleScenario.node[36].veinsmobility  speed  ETV
vector 56700  IntersectionExampleScenario.node[36].veinsmobility  acceleration  ETV
vector 56701  IntersectionExampleScenario.node[36].veinsmobility  co2emission  ETV
vector 56704  IntersectionExampleScenario.node[37].veinsmobility  posx  ETV
vector 56705  IntersectionExampleScenario.node[37].veinsmobility  posy  ETV
vector 56706  IntersectionExampleScenario.node[37].veinsmobility  speed  ETV
vector 56707  IntersectionExampleScenario.node[37].veinsmobility  acceleration  ETV
vector 56708  IntersectionExampleScenario.node[37].veinsmobility  co2emission  ETV
vector 56711  IntersectionExampleScenario.node[38].veinsmobility  posx  ETV
vector 56712  IntersectionExampleScenario.node[38].veinsmobility  posy  ETV
vector 56713  IntersectionExampleScenario.node[38].veinsmobility  speed  ETV
vector 56714  IntersectionExampleScenario.node[38].veinsmobility  acceleration  ETV
vector 56715  IntersectionExampleScenario.node[38].veinsmobility  co2emission  ETV
vector 56718  IntersectionExampleScenario.node[39].veinsmobility  posx  ETV
vector 56719  IntersectionExampleScenario.node[39].veinsmobility  posy  ETV
vector 56720  IntersectionExampleScenario.node[39].veinsmobility  speed  ETV
vector 56721  IntersectionExampleScenario.node[39].veinsmobility  acceleration  ETV
vector 56722  IntersectionExampleScenario.node[39].veinsmobility  co2emission  ETV
56631	743473 6390 5568 8842 103 154.5 207 0.973 11.90022389248 607.37026061156 3151.5145761687
56630	749863 6104 5568 8842 103 154.5 207 -7.4396190643311 4 40.887662887573 519.77736965044
56629	755967 6171 5557 8842 102.75 154.5 208 0 16 2219.4529209137 32344.716138613
56628	762138 7091 5546 8842 102.5 154.5 209 483.14999389648 734.23052978516 109131.39797974 58029200.692465
56627	769229 7081 5546 8842 102.5 154.5 209 176.21716308594 486.85000610352 86348.362670898 37768565.361731
56638	776310 5440 6045 8861 113.75 154.75 165 0.973 11.200708441096 489.24583359627 2471.5767355219
56637	781750 4934 6045 8861 113.75 154.75 165 -3.2952842712402 2.5 35.625318527222 252.82269031127
56636	786684 5339 6032 8861 113.5 154.75 166 5.6500000953674 15.02499961853 2181.7937364578 29821.532476815
56635	792023 5674 6019 8861 113.25 154.75 167 486.71420288086 785.82187652588 95522.59311676 56422413.073475
56634	797697 5671 6019 8861 113.25 154.75 167 237.38464355469 483.14999389648 72167.808288574 32144133.077836
vector 56725  IntersectionExampleScenario.node[40].veinsmobility  posx  ETV
vector 56726  IntersectionExampleScenario.node[40].veinsmobility  posy  ETV
vector 56727  IntersectionExampleScenario.node[40].veinsmobility  speed  ETV
vector 56728  IntersectionExampleScenario.node[40].veinsmobility  acceleration  ETV
vector 56729  IntersectionExampleScenario.node[40].veinsmobility  co2emission  ETV
56659	803769 5374 6664 9462 124 164.25 162 0.973 11.200708441096 476.08751514023 2369.9055514619
56658	809143 4834 6664 9462 124 164.25 162 -3.5818061828613 2.5 35.795072555542 221.15525065147
56657	813977 5266 6645 9462 123.75 164.25 163 5.6500000953674 15.02499961853 2208.9696474075 30681.575618734
56656	819243 5572 6628 9462 123.5 164.25 164 236.22680664062 486.85000610352 71047.201873779 31777297.866269
56655	824815 5569 6628 9462 123.5 164.25 164 482.92910766602 785.82187652588 93739.506111145 55393529.358209
56666	830384 5318 6683 9462 124.25 164.25 161 0.973 11.990504229548 508.87791260787 2734.8350027147
56665	835702 4990 6683 9462 124.25 164.25 161 -4.5 2.5 39.529638290405 238.71274114441
56664	840692 5261 6664 9462 124 164.25 162 5.6500000953674 16.125 2317.5710668564 33965.833031772
56663	845953 5542 6645 9462 123.75 164.25 163 486.85000610352 486.85000610352 79356.550994873 38634737.336208
56662	851495 5525 6645 9462 123.75 164.25 163 236.21264648438 810.23281097412 87348.714500427 51548768.28074
vector 56732  IntersectionExampleScenario.node[41].veinsmobility  posx  ETV
vector 56733  IntersectionExampleScenario.node[41].veinsmobility  posy  ETV
vector 56734  IntersectionExampleScenario.node[41].veinsmobility  speed  ETV
vector 56735  IntersectionExampleScenario.node[41].veinsmobility  acceleration  ETV
vector 56736  IntersectionExampleScenario.node[41].veinsmobility  co2emission  ETV
56645	857421 6773 6127 9814 115.25 170 220 0.973 11.90022389248 607.91679665519 3037.0688573923
56644	864194 6218 6127 9814 115.25 170 220 -7.3468637466431 4 39.529638290405 510.48960574425
56643	870412 6522 6112 9814 115 170 221 0 16 2284.6419918537 32752.407431611
56642	876934 7537 6097 9814 114.75 170 222 483.14999389648 806.11563110352 124028.08683014 71655683.821275
56641	884471 7542 6097 9814 114.75 170 222 483.14999389648 733.12632751465 115505.36009216 61163780.657989
56652	892013 6154 6582 9931 122.75 172 198 0.973 11.200708441096 534.30541986481 2626.2897961245
56651	898167 6397 6582 9931 122.75 172 198 -2.3160247802734 2.5 35.795072555542 295.14385654083
56650	904564 6613 6565 9931 122.5 172 199 1.1675052642822 15.02499961853 2219.2309582233 29002.924161735
56649	911177 6780 6548 9931 122.25 172 200 235.55035400391 785.82187652588 103902.45145416 58282385.080581
56648	917957 6800 6548 9931 122.25 172 200 483.14999389648 483.14999389648 96629.998779297 46686783.320434
56673	924757 6343 6736 10027 125 174 197 0.973 11.200708441096 544.10762616615 2516.838166729
56672	931100 6423 6736 10027 125 174 197 -4.5 2.5 36.134572982788 300.34030222885
56671	937523 6580 6719 10027 124.75 174 198 3.5339117050171 15.02499961853 2282.7085878849 29600.806514205
56670	944103 6758 6701 10027 124.5 174 199 236.86840820312 802.70781707764 105621.83766937 60715356.041366
56669	950861 6768 6701 10027 124.5 174 199 483.14999389648 483.14999389648 96146.8487854 46453349.403832
56680	957629 6056 7023 10135 129.5 177 191 0.973 11.36141391502 566.20996441131 3018.4852792605
56679	963685 6107 7023 10135 129.5 177 191 -4.0958080291748 2.5 36.474081039429 398.32401799145
56678	969792 6217 7006 10135 129.25 177 192 3.0235760211945 15.25 2221.1533253193 28562.486430135
56677	976009 6554 6989 10135 129 177 193 486.85000610352 796.75300598145 110690.05400085 65441701.170043
56676	982563 6567 6989 10135 129 177 193 238.04541015625 483.14999389648 84898.820465088 38345959.405005
vector 56739  IntersectionExampleScenario.node[42].veinsmobility  posx  ETV
vector 56740  IntersectionExampleScenario.node[42].veinsmobility  posy  ETV
vector 56741  IntersectionExampleScenario.node[42].veinsmobility  speed  ETV
vector 56742  IntersectionExampleScenario.node[42].veinsmobility  acceleration  ETV
vector 56743  IntersectionExampleScenario.node[42].veinsmobility  co2emission  ETV
vector 56746  IntersectionExampleScenario.node[43].veinsmobility  posx  ETV
vector 56747  IntersectionExampleScenario.node[43].veinsmobility  posy  ETV
vector 56748  IntersectionExampleScenario.node[43].veinsmobility  speed  ETV
vector 56749  IntersectionExampleScenario.node[43].veinsmobility  acceleration  ETV
vector 56750  IntersectionExampleScenario.node[43].veinsmobility  co2emission  ETV
vector 56753  IntersectionExampleScenario.node[44].veinsmobility  posx  ETV
vector 56754  IntersectionExampleScenario.node[44].veinsmobility  posy  ETV
vector 56755  IntersectionExampleScenario.node[44].veinsmobility  speed  ETV
vector 56756  IntersectionExampleScenario.node[44].veinsmobility  acceleration  ETV
vector 56757  IntersectionExampleScenario.node[44].veinsmobility  co2emission  ETV
vector 56760  IntersectionExampleScenario.node[45].veinsmobility  posx  ETV
vector 56761  IntersectionExampleScenario.node[45].veinsmobility  posy  ETV
vector 56762  IntersectionExampleScenario.node[45].veinsmobility  speed  ETV
vector 56763  IntersectionExampleScenario.node[45].veinsmobility  acceleration  ETV
vector 56764  IntersectionExampleScenario.node[45].veinsmobility  co2emission  ETV
56687	990734 6359 7367 10549 134.5 185 203 0.973 11.648172402475 573.24952980001 2936.0914009974
56686	997093 5866 7367 10549 134.5 185 203 -7.7750906944275 4 38.511121749878 476.52721114425
56685	1002959 6175 7348 10549 134.25 185 204 0 15.64999961853 2186.543571353 30924.021030557
56684	1009134 7009 7329 10549 134 185 205 483.14999389648 734.23628234863 107497.42523193 57435514.930225
56683	1016143 6993 7329 10549 134 185 205 184.17810058594 486.85000610352 84937.240783691 37151076.637026
vector 56767  IntersectionExampleScenario.node[46].veinsmobility  posx  ETV
vector 56768  IntersectionExampleScenario.node[46].veinsmobility  posy  ETV
vector 56769  IntersectionExampleScenario.node[46].veinsmobility  speed  ETV
vector 56770  IntersectionExampleScenario.node[46].veinsmobility  acceleration  ETV
vector 56771  IntersectionExampleScenario.node[46].veinsmobility  co2emission  ETV
56694	1023537 6905 7466 10714 135.75 188.25 211 0.973 11.450879080643 578.10478837995 2817.1638633825
56693	1030442 6619 7466 10714 135.75 188.25 211 -4.5 2.5000009536743 36.98334312439 423.79602237578
56692	1037061 7034 7445 10714 135.5 188.25 212 0 15.375 2298.3290393725 31483.224213448
56691	1044095 7302 7424 10714 135.25 188.25 213 483.14999389648 734.79406738281 111604.68222046 59581304.49112
56690	1051397 7277 7424 10714 135.25 188.25 213 162.90466308594 486.86605834961 86354.171722412 37340237.688309
vector 56774  IntersectionExampleScenario.node[47].veinsmobility  posx  ETV
vector 56775  IntersectionExampleScenario.node[47].veinsmobility  posy  ETV
vector 56776  IntersectionExampleScenario.node[47].veinsmobility  speed  ETV
vector 56777  IntersectionExampleScenario.node[47].veinsmobility  acceleration  ETV
vector 56778  IntersectionExampleScenario.node[47].veinsmobility  co2emission  ETV
56708	1059075 5359 8491 10796 150 189.75 160 0.973 11.450879080643 482.04855883014 2493.3576507118
56707	1064434 4894 8491 10796 150 189.75 160 -3.7600936889648 2.5 36.813589096069 225.15493778399
56706	1069328 5252 8474 10796 149.75 189.75 161 5.6500000953674 15.375 2209.2100419998 31127.028744497
56705	1074580 5563 8457 10796 149.5 189.75 162 235.64947509766 486.85000610352 70184.510131836 31396396.377148
56704	1080143 5565 8457 10796 149.5 189.75 162 482.9638671875 785.82187652588 92633.137214661 54766786.528403
56701	1085708 5870 8139 10826 145 190.25 182 0.973 11.200708441096 530.68760062942 2657.193287214
56700	1091578 5846 8139 10826 145 190.25 182 -2.7489280700684 2.5 37.32285118103 272.65235668089
56699	1097424 6053 8120 10826 144.75 190.25 183 4.3471331596375 15.130784988403 2209.3181362152 29032.338564248
56698	1103477 6313 8101 10826 144.5 190.25 184 483.14999389648 733.18022155762 97447.794082642 52636003.614899
56697	1109790 6290 8101 10826 144.5 190.25 184 184.17810058594 486.85000610352 74111.193572998 31680368.991189
vector 56781  IntersectionExampleScenario.node[48].veinsmobility  posx  ETV
vector 56782  IntersectionExampleScenario.node[48].veinsmobility  posy  ETV
vector 56783  IntersectionExampleScenario.node[48].veinsmobility  speed  ETV
vector 56784  IntersectionExampleScenario.node[48].veinsmobility  acceleration  ETV
vector 56785  IntersectionExampleScenario.node[48].veinsmobility  co2emission  ETV
vector 56788  IntersectionExampleScenario.node[49].veinsmobility  posx  ETV
vector 56789  IntersectionExampleScenario.node[49].veinsmobility  posy  ETV
vector 56790  IntersectionExampleScenario.node[49].veinsmobility  speed  ETV
vector 56791  IntersectionExampleScenario.node[49].veinsmobility  acceleration  ETV
vector 56792  IntersectionExampleScenario.node[49].veinsmobility  co2emission  ETV
56715	1116882 6310 8563 11403 151 200.25 198 0.973 11.648172402475 569.58795261113 2935.1478432502
56714	1123192 5827 8563 11403 151 200.25 198 -7.7750473022461 4 38.511121749878 476.5267975717
56713	1129019 6150 8544 11403 150.75 200.25 199 0 15.64999961853 2201.8212580681 31157.430440079
56712	1135169 6896 8525 11403 150.5 200.25 200 483.14999389648 785.82187652588 111405.50705719 64000345.372613
56711	1142065 6899 8525 11403 150.5 200.25 200 483.14999389648 733.24354553223 105018.95397949 56190820.672711
56722	1148964 6350 8738 11488 153.25 201.5 194 0.973 11.648172402475 568.71396407675 2942.4975116406
56721	1155314 6092 8738 11488 153.25 201.5 194 -4.5 2.5 38.171613693237 446.93864343599
56720	1161406 6388 8717 11488 153 201.5 195 0 15.64999961853 2286.5794028025 32005.879367368
56719	1167794 6761 8696 11488 152.75 201.5 196 235.85540771484 802.70781707764 102953.58995056 58643139.415216
56718	1174555 6777 8696 11488 152.75 201.5 196 483.14999389648 483.14999389648 94697.398803711 45753047.654026
56729	1181332 5662 9222 11573 160.25 202.75 171 0.96333723109819 12.099024792222 564.44051908324 3194.3481343127
56728	1186994 5288 9222 11573 160.25 202.75 171 -29.033470153809 4 40.208654403687 1238.847136005
56727	1192282 5534 9206 11573 160 202.75 172 0 16.27499961853 2183.8000030518 31540.075345261
56726	1197816 5967 9189 11573 159.75 202.75 173 184.17810058594 483.24322509766 69825.526733398 29969882.009066
56725	1203783 5991 9189 11573 159.75 202.75 173 486.85000610352 734.09733581543 92239.630722046 50124816.594815
56736	1209774 5376 9721 11893 168.5 207.5 157 0.973 11.200708441096 460.15834192339 2219.9375708414
56735	1215150 4689 9721 11893 168.5 207.5 157 -3.1989059448242 2.5 36.813589096069 173.16766246996
56734	1219839 5295 9704 11893 168.25 207.5 158 5.6500000953674 15.02499961853 2213.1961212158 31557.99574022
56733	1225134 5510 9687 11893 168 207.5 159 237.50286865234 785.82187652588 82875.22858429 47398697.567213
56732	1230644 5542 9687 11893 168 207.5 159 483.14999389648 483.14999389648 76820.849029541 37115992.739745
vector 56795  IntersectionExampleScenario.node[50].veinsmobility  posx  ETV
vector 56796  IntersectionExampleScenario.node[50].veinsmobility  posy  ETV
vector 56797  IntersectionExampleScenario.node[50].veinsmobility  speed  ETV
vector 56798  IntersectionExampleScenario.node[50].veinsmobility  acceleration  ETV
vector 56799  IntersectionExampleScenario.node[50].veinsmobility  co2emission  ETV
vector 56802  IntersectionExampleScenario.node[51].veinsmobility  posx  ETV
vector 56803  IntersectionExampleScenario.node[51].veinsmobility  posy  ETV
vector 56804  IntersectionExampleScenario.node[51].veinsmobility  speed  ETV
vector 56805  IntersectionExampleScenario.node[51].veinsmobility  acceleration  ETV
vector 56806  IntersectionExampleScenario.node[51].veinsmobility  co2emission  ETV
vector 56809  IntersectionExampleScenario.node[52].veinsmobility  posx  ETV
vector 56810  IntersectionExampleScenario.node[52].veinsmobility  posy  ETV
vector 56816  IntersectionExampleScenario.node[53].veinsmobility  posx  ETV
vector 56817  IntersectionExampleScenario.node[53].veinsmobility  posy  ETV
vector 56811  IntersectionExampleScenario.node[52].veinsmobility  speed  ETV
vector 56823  IntersectionExampleScenario.node[54].veinsmobility  posx  ETV
vector 56824  IntersectionExampleScenario.node[54].veinsmobility  posy  ETV
vector 56812  IntersectionExampleScenario.node[52].veinsmobility  acceleration  ETV
vector 56813  IntersectionExampleScenario.node[52].veinsmobility  co2emission  ETV
vector 56818  IntersectionExampleScenario.node[53].veinsmobility  speed  ETV
vector 56830  IntersectionExampleScenario.node[55].veinsmobility  posx  ETV
vector 56831  IntersectionExampleScenario.node[55].veinsmobility  posy  ETV
vector 56819  IntersectionExampleScenario.node[53].veinsmobility  acceleration  ETV
vector 56820  IntersectionExampleScenario.node[53].veinsmobility  co2emission  ETV
vector 56825  IntersectionExampleScenario.node[54].veinsmobility  speed  ETV
vector 56826  IntersectionExampleScenario.node[54].veinsmobility  acceleration  ETV
vector 56827  IntersectionExampleScenario.node[54].veinsmobility  co2emission  ETV
vector 56832  IntersectionExampleScenario.node[55].veinsmobility  speed  ETV
vector 56833  IntersectionExampleScenario.node[55].veinsmobility  acceleration  ETV
vector 56834  IntersectionExampleScenario.node[55].veinsmobility  co2emission  ETV
vector 56837  IntersectionExampleScenario.node[56].veinsmobility  posx  ETV
vector 56838  IntersectionExampleScenario.node[56].veinsmobility  posy  ETV
vector 56839  IntersectionExampleScenario.node[56].veinsmobility  speed  ETV
vector 56840  IntersectionExampleScenario.node[56].veinsmobility  acceleration  ETV
vector 56841  IntersectionExampleScenario.node[56].veinsmobility  co2emission  ETV
vector 56844  IntersectionExampleScenario.node[57].veinsmobility  posx  ETV
vector 56845  IntersectionExampleScenario.node[57].veinsmobility  posy  ETV
vector 56846  IntersectionExampleScenario.node[57].veinsmobility  speed  ETV
vector 56847  IntersectionExampleScenario.node[57].veinsmobility  acceleration  ETV
vector 56848  IntersectionExampleScenario.node[57].veinsmobility  co2emission  ETV
vector 56851  IntersectionExampleScenario.node[58].veinsmobility  posx  ETV
vector 56852  IntersectionExampleScenario.node[58].veinsmobility  posy  ETV
vector 56853  IntersectionExampleScenario.node[58].veinsmobility  speed  ETV
vector 56854  IntersectionExampleScenario.node[58].veinsmobility  acceleration  ETV
vector 56855  IntersectionExampleScenario.node[58].veinsmobility  co2emission  ETV
56764	1239795 5334 10519 13108 184.5 223.25 156 0.973 11.648172402475 493.90664985485 2648.9493700567
56763	1245129 4717 10519 13108 184.5 223.25 156 -3.4680404663086 2.5 38.850629806519 242.6620583105
56762	1249846 5209 10503 13108 184.25 223.25 157 5.6500000953674 15.64999961853 2207.15736866 31975.52612511
56761	1255055 5516 10486 13108 184 223.25 158 483.14999389648 733.10472106934 84677.39465332 46329556.478475
56760	1260571 5504 10486 13108 184 223.25 158 184.17810058594 486.87796020508 62869.884368896 26783508.367452
vector 56858  IntersectionExampleScenario.node[59].veinsmobility  posx  ETV
vector 56859  IntersectionExampleScenario.node[59].veinsmobility  posy  ETV
vector 56860  IntersectionExampleScenario.node[59].veinsmobility  speed  ETV
vector 56861  IntersectionExampleScenario.node[59].veinsmobility  acceleration  ETV
vector 56862  IntersectionExampleScenario.node[59].veinsmobility  co2emission  ETV
vector 56865  IntersectionExampleScenario.node[60].veinsmobility  posx  ETV
vector 56866  IntersectionExampleScenario.node[60].veinsmobility  posy  ETV
vector 56867  IntersectionExampleScenario.node[60].veinsmobility  speed  ETV
56771	1266708 5299 10714 13393 188.25 226.75 155 0.973 11.648172402475 469.33629237784 2454.282636671
56770	1272007 4954 10714 13393 188.25 226.75 155 -3.747200012207 2.5 37.832105636597 197.81486022793
56769	1276961 5214 10701 13393 188 226.75 156 5.6500000953674 15.64999961853 2216.6752176285 32114.93602172
56768	1282175 5496 10688 13393 187.75 226.75 157 486.85000610352 486.85000610352 76435.450958252 37212599.76555
56767	1287671 5479 10688 13393 187.75 226.75 157 236.86224365234 785.82187652588 81826.01927948 46806428.796036
vector 56868  IntersectionExampleScenario.node[60].veinsmobility  acceleration  ETV
vector 56869  IntersectionExampleScenario.node[60].veinsmobility  co2emission  ETV
vector 56872  IntersectionExampleScenario.node[61].veinsmobility  posx  ETV
vector 56873  IntersectionExampleScenario.node[61].veinsmobility  posy  ETV
vector 56874  IntersectionExampleScenario.node[61].veinsmobility  speed  ETV
vector 56875  IntersectionExampleScenario.node[61].veinsmobility  acceleration  ETV
vector 56876  IntersectionExampleScenario.node[61].veinsmobility  co2emission  ETV
56743	1293720 6540 10202 13685 178.75 229.75 205 0.973 12.099024792222 594.88937363349 3126.1378552964
56742	1300260 6175 10202 13685 178.75 229.75 205 -9.4888134002686 4 40.887662887573 524.5413908616
56741	1306435 6299 10191 13685 178.5 229.75 206 0 16.27499961853 2178.0607702732 31628.045707868
56740	1312734 7240 10180 13685 178.25 229.75 207 486.63604736328 785.82187652588 114867.25656891 65656499.819749
56739	1319974 7181 10180 13685 178.25 229.75 207 237.26110839844 483.14999389648 92146.902313232 42002923.186773
56757	1327155 6389 10351 13760 181.75 230.5 196 0.973 11.450879080643 561.45120488771 2830.2124601692
56756	1333544 5709 10351 13760 181.75 230.5 196 -6.9984560012817 4 37.492597579956 469.58322164982
56755	1339253 6255 10336 13760 181.5 230.5 197 0 15.375 2215.8641409874 31072.669399792
56754	1345508 6899 10321 13760 181.25 230.5 198 184.17810058594 734.38114929199 89828.092010498 44978069.552287
56753	1352407 6931 10321 13760 181.25 230.5 198 486.85000610352 486.85000610352 96396.301208496 46930539.831713
vector 56879  IntersectionExampleScenario.node[62].veinsmobility  posx  ETV
vector 56880  IntersectionExampleScenario.node[62].veinsmobility  posy  ETV
vector 56886  IntersectionExampleScenario.node[63].veinsmobility  posx  ETV
vector 56887  IntersectionExampleScenario.node[63].veinsmobility  posy  ETV
56750	1359646 6708 10295 13810 180.75 231 202 0.973 11.648172402475 581.54395843335 2970.9853281795
56749	1366354 6602 10295 13810 180.75 231 202 -4.5 2.5 39.020376205444 427.9913730181
56748	1372956 6959 10282 13810 180.5 231 203 0 15.64999961853 2279.4552040119 32213.794845156
56747	1379915 7119 10269 13810 180.25 231 204 238.80688476562 803.92188262939 107348.86958313 60979301.807007
56746	1387034 7140 10269 13810 180.25 231 204 483.14999389648 483.14999389648 98562.598754883 47620518.986843
vector 56881  IntersectionExampleScenario.node[62].veinsmobility  speed  ETV
vector 56888  IntersectionExampleScenario.node[63].veinsmobility  speed  ETV
vector 56882  IntersectionExampleScenario.node[62].veinsmobility  acceleration  ETV
vector 56883  IntersectionExampleScenario.node[62].veinsmobility  co2emission  ETV
vector 56889  IntersectionExampleScenario.node[63].veinsmobility  acceleration  ETV
vector 56890  IntersectionExampleScenario.node[63].veinsmobility  co2emission  ETV
vector 56893  IntersectionExampleScenario.node[64].veinsmobility  posx  ETV
vector 56894  IntersectionExampleScenario.node[64].veinsmobility  posy  ETV
vector 56895  IntersectionExampleScenario.node[64].veinsmobility  speed  ETV
vector 56896  IntersectionExampleScenario.node[64].veinsmobility  acceleration  ETV
vector 56897  IntersectionExampleScenario.node[64].veinsmobility  co2emission  ETV
56778	1395069 5796 10796 14147 189.75 234 178 0.973 11.648172402475 549.8377149128 3055.5472582747
56777	1400865 5618 10796 14147 189.75 234 178 -3.0210285186768 2.5 38.171613693237 336.94887525263
56776	1406483 5939 10781 14147 189.5 234 179 4.6729216575623 15.64999961853 2186.9461421967 29037.348718127
56775	1412422 6289 10766 14147 189.25 234 180 486.85000610352 785.82187652588 102475.46855927 60107727.852728
56774	1418711 6294 10766 14147 189.25 234 180 236.43310546875 483.14999389648 78724.070495605 35403580.890657
vector 56900  IntersectionExampleScenario.node[65].veinsmobility  posx  ETV
vector 56901  IntersectionExampleScenario.node[65].veinsmobility  posy  ETV
vector 56902  IntersectionExampleScenario.node[65].veinsmobility  speed  ETV
vector 56903  IntersectionExampleScenario.node[65].veinsmobility  acceleration  ETV
vector 56904  IntersectionExampleScenario.node[65].veinsmobility  co2emission  ETV
vector 56907  IntersectionExampleScenario.node[66].veinsmobility  posx  ETV
vector 56908  IntersectionExampleScenario.node[66].veinsmobility  posy  ETV
vector 56909  IntersectionExampleScenario.node[66].veinsmobility  speed  ETV
vector 56910  IntersectionExampleScenario.node[66].veinsmobility  acceleration  ETV
vector 56911  IntersectionExampleScenario.node[66].veinsmobility  co2emission  ETV
vector 56914  IntersectionExampleScenario.node[67].veinsmobility  posx  ETV
vector 56915  IntersectionExampleScenario.node[67].veinsmobility  posy  ETV
vector 56916  IntersectionExampleScenario.node[67].veinsmobility  speed  ETV
vector 56917  IntersectionExampleScenario.node[67].veinsmobility  acceleration  ETV
vector 56918  IntersectionExampleScenario.node[67].veinsmobility  co2emission  ETV
56785	1426208 5263 11177 14495 196.75 236.75 161 0.973 11.648172402475 560.69383018204 3460.4030899702
56784	1431471 5245 11177 14495 196.75 236.75 161 -4.4087066650391 2.5 41.227170944214 345.99835862981
56783	1436716 5352 11162 14495 196.5 236.75 162 5.6500000953674 16.024200439453 2188.5625605583 31112.446346124
56782	1442068 5700 11147 14495 196.25 236.75 163 486.85000610352 785.82187652588 93356.311897278 55186308.664315
56781	1447768 5704 11147 14495 196.25 236.75 163 235.98156738281 483.14999389648 70843.086212158 31701540.824227
56792	1453472 5696 11301 14991 198.75 240.5 168 0.973 11.200708441096 512.47996758286 2728.1714351475
56791	1459168 5364 11301 14991 198.75 240.5 168 -4.203670501709 2.5 35.795072555542 263.93554114909
56790	1464532 5640 11284 14991 198.5 240.5 169 5.6500000953674 15.02499961853 2287.7096691132 31727.397839295
56789	1470172 5938 11267 14991 198.25 240.5 170 483.14999389648 803.92188262939 98323.479408264 58976438.293497
56788	1476110 5949 11267 14991 198.25 240.5 170 483.14999389648 735.00355529785 91020.57572937 49761540.982528
vector 56921  IntersectionExampleScenario.node[68].veinsmobility  posx  ETV
vector 56922  IntersectionExampleScenario.node[68].veinsmobility  posy  ETV
vector 56923  IntersectionExampleScenario.node[68].veinsmobility  speed  ETV
vector 56924  IntersectionExampleScenario.node[68].veinsmobility  acceleration  ETV
vector 56925  IntersectionExampleScenario.node[68].veinsmobility  co2emission  ETV
vector 56928  IntersectionExampleScenario.node[69].veinsmobility  posx  ETV
vector 56929  IntersectionExampleScenario.node[69].veinsmobility  posy  ETV
vector 56930  IntersectionExampleScenario.node[69].veinsmobility  speed  ETV
vector 56931  IntersectionExampleScenario.node[69].veinsmobility  acceleration  ETV
vector 56932  IntersectionExampleScenario.node[69].veinsmobility  co2emission  ETV
vector 56935  IntersectionExampleScenario.node[70].veinsmobility  posx  ETV
vector 56936  IntersectionExampleScenario.node[70].veinsmobility  posy  ETV
vector 56937  IntersectionExampleScenario.node[70].veinsmobility  speed  ETV
vector 56938  IntersectionExampleScenario.node[70].veinsmobility  acceleration  ETV
vector 56939  IntersectionExampleScenario.node[70].veinsmobility  co2emission  ETV
56799	1483262 5275 12017 15909 209.5 248 155 0.973 11.90022389248 500.52554855579 2781.3659964429
56798	1488537 4779 12017 15909 209.5 248 155 -3.2846527099609 2.5 39.869146347046 241.68198894314
56797	1493316 5161 12000 15909 209.25 248 156 5.6500000953674 16 2213.0224189758 32437.108865515
56796	1498477 5478 11983 15909 209 248 157 235.76922607422 486.85000610352 68152.313781738 30531874.819582
56795	1503955 5485 11983 15909 209 248 157 483.14999389648 785.82187652588 89785.977348328 53106735.302482
vector 56942  IntersectionExampleScenario.node[71].veinsmobility  posx  ETV
vector 56943  IntersectionExampleScenario.node[71].veinsmobility  posy  ETV
vector 56944  IntersectionExampleScenario.node[71].veinsmobility  speed  ETV
vector 56945  IntersectionExampleScenario.node[71].veinsmobility  acceleration  ETV
vector 56946  IntersectionExampleScenario.node[71].veinsmobility  co2emission  ETV
56820	1509841 5620 12253 16533 212.75 254 166 0.973 11.200708441096 486.95142255294 2459.8992791247
56819	1515461 5238 12253 16533 212.75 254 166 -3.2657375335693 2.5 35.116056442261 254.01790217618
56818	1520699 5528 12230 16533 212.5 254 167 5.6500000953674 15.02499961853 2186.1547961235 29710.454596836
56817	1526227 5863 12209 16533 212.25 254 168 236.02630615234 483.14999389648 72491.947113037 32258839.064578
56816	1532090 5858 12209 16533 212.25 254 168 184.17810058594 483.15060424805 66879.401367188 28415438.628742
vector 56949  IntersectionExampleScenario.node[72].veinsmobility  posx  ETV
vector 56950  IntersectionExampleScenario.node[72].veinsmobility  posy  ETV
vector 56951  IntersectionExampleScenario.node[72].veinsmobility  speed  ETV
vector 56952  IntersectionExampleScenario.node[72].veinsmobility  acceleration  ETV
vector 56953  IntersectionExampleScenario.node[72].veinsmobility  co2emission  ETV
vector 56956  IntersectionExampleScenario.node[73].veinsmobility  posx  ETV
vector 56957  IntersectionExampleScenario.node[73].veinsmobility  posy  ETV
56841	1538503 5449 12726 16920 218.5 258 159 0.973 11.200708441096 454.02019127521 2190.5961140274
56840	1543952 4955 12726 16920 218.5 258 159 -3.3945121765137 2.5 35.625318527222 173.50564863248
56839	1548907 5378 12707 16920 218.25 258 160 5.6500000953674 15.02499961853 2209.7530469894 31019.862813876
56838	1554285 5633 12688 16920 218 258 161 486.85000610352 486.85000610352 78382.850982666 38160691.479322
56837	1559918 5614 12688 16920 218 258 161 238.29858398438 785.82187652588 83905.765296936 47970045.691832
vector 56958  IntersectionExampleScenario.node[73].veinsmobility  speed  ETV
vector 56959  IntersectionExampleScenario.node[73].veinsmobility  acceleration  ETV
vector 56960  IntersectionExampleScenario.node[73].veinsmobility  co2emission  ETV
56813	1565779 6059 12230 17055 212.5 259.25 188 0.973 12.553400930962 598.21680725148 3512.6994824055
56812	1571838 5681 12230 17055 212.5 259.25 188 -7.0621199607849 4 43.264211654663 515.10628707835
56811	1577519 5862 12209 17055 212.25 259.25 189 0 16.89999961853 2176.5794833899 32607.562233467
56810	1583381 6629 12190 17055 212 259.25 190 184.17810058594 483.36395263672 78146.849914551 33982845.317232
56809	1590010 6568 12190 17055 212 259.25 190 486.85000610352 732.45846557617 100077.14425659 53643536.020434
56827	1596578 6486 12278 17241 213 261.25 194 0.973 11.54047740176 569.31065807848 2891.6299107089
56826	1603064 6264 12278 17241 213 261.25 194 -4.5 2.5 38.341367721558 428.89882899146
56825	1609328 6684 12253 17241 212.75 261.25 195 0 15.5 2308.3751226328 32273.556724717
56824	1616012 6825 12230 17241 212.5 261.25 196 160.43438720703 732.83001708984 86166.409103394 42642324.545761
56823	1622837 6860 12230 17241 212.5 261.25 196 486.85000610352 486.85000610352 95422.601196289 46456493.974827
56806	1629697 6587 12122 17241 211 261.25 202 0.973 11.00486315618 542.63282623873 2556.6540977229
56805	1636284 6007 12122 17241 211 261.25 202 -7.8154296875 4 34.267293930054 454.34505795862
56804	1642291 6465 12104 17241 210.75 261.25 203 0 14.75 2210.4432520866 29587.229754698
56803	1648756 7128 12085 17241 210.5 261.25 204 236.49285888672 785.82187652588 105237.78868103 58664975.035793
56802	1655884 7140 12085 17241 210.5 261.25 204 483.14999389648 483.14999389648 98562.598754883 47620518.986843
vector 56963  IntersectionExampleScenario.node[74].veinsmobility  posx  ETV
vector 56964  IntersectionExampleScenario.node[74].veinsmobility  posy  ETV
vector 56965  IntersectionExampleScenario.node[74].veinsmobility  speed  ETV
vector 56966  IntersectionExampleScenario.node[74].veinsmobility  acceleration  ETV
vector 56967  IntersectionExampleScenario.node[74].veinsmobility  co2emission  ETV
56834	1663425 6553 12303 17313 213.25 262 196 0.973 11.867264378242 581.66373282475 2880.5642497824
56833	1669978 6482 12303 17313 213.25 262 196 -4.5 2.5 39.529638290405 475.02922911603
56832	1676460 6707 12278 17313 213 262 197 0 15.954317092896 2274.095224062 32062.999182346
56831	1683167 6909 12253 17313 212.75 262 198 483.12521362305 802.70781707764 112058.52805328 65616629.374512
56830	1690076 6918 12253 17313 212.75 262 198 483.14999389648 733.0590057373 103925.23838806 55575779.455002
56848	1696994 5753 12806 17405 219.5 263 175 0.973 11.648172402475 529.8116665285 2751.1746137855
56847	1702747 5734 12806 17405 219.5 263 175 -2.8319892883301 2.5 38.511121749878 276.27831370409
56846	1708481 5974 12785 17405 219.25 263 176 4.1922998428345 15.64999961853 2218.4663500786 30211.726340443
56845	1714455 6170 12764 17405 219 263 177 236.39770507812 785.82187652588 92549.794410706 52542184.971339
56844	1720625 6193 12764 17405 219 263 177 483.14999389648 483.14999389648 85517.548919678 41317803.238584
vector 56970  IntersectionExampleScenario.node[75].veinsmobility  posx  ETV
vector 56971  IntersectionExampleScenario.node[75].veinsmobility  posy  ETV
vector 56972  IntersectionExampleScenario.node[75].veinsmobility  speed  ETV
vector 56973  IntersectionExampleScenario.node[75].veinsmobility  acceleration  ETV
vector 56974  IntersectionExampleScenario.node[75].veinsmobility  co2emission  ETV
vector 56977  IntersectionExampleScenario.node[76].veinsmobility  posx  ETV
vector 56978  IntersectionExampleScenario.node[76].veinsmobility  posy  ETV
56862	1727373 5427 13286 17721 225.5 266.75 166 0.973 11.810082123732 557.22701329036 3448.7408488554
56861	1732800 5371 13286 17721 225.5 266.75 166 -3.7698764801025 2.5 38.511121749878 376.81602272065
56860	1738171 5523 13265 17721 225.25 266.75 167 5.6500000953674 15.875 2187.782145977 30021.769552182
56859	1743694 5871 13244 17721 225 266.75 168 486.66900634766 785.82187652588 96198.162193298 56827145.915035
56858	1749565 5873 13244 17721 225 266.75 168 236.06640625 483.14999389648 72965.4793396 32638014.303105
vector 56979  IntersectionExampleScenario.node[76].veinsmobility  speed  ETV
vector 56980  IntersectionExampleScenario.node[76].veinsmobility  acceleration  ETV
vector 56981  IntersectionExampleScenario.node[76].veinsmobility  co2emission  ETV
vector 56984  IntersectionExampleScenario.node[77].veinsmobility  posx  ETV
vector 56985  IntersectionExampleScenario.node[77].veinsmobility  posy  ETV
vector 56986  IntersectionExampleScenario.node[77].veinsmobility  speed  ETV
vector 56987  IntersectionExampleScenario.node[77].veinsmobility  acceleration  ETV
vector 56988  IntersectionExampleScenario.node[77].veinsmobility  co2emission  ETV
56890	1756086 5248 13868 17983 231.5 269.75 154 0.973 11.648172402475 470.81661251285 2510.9323332238
56889	1761334 5075 13868 17983 231.5 269.75 154 -3.2704734802246 2.5 38.171613693237 195.2346097162
56888	1766409 5195 13839 17983 231.25 269.75 155 5.6500000953674 15.64999961853 2213.9971532822 32252.627032303
56887	1771604 5443 13810 17983 231 269.75 156 237.51824951172 785.82187652588 81383.978965759 46586982.659882
56886	1777047 5460 13810 17983 231 269.75 156 483.14999389648 483.14999389648 75371.399047852 36415690.989939
56883	1782507 5264 13868 18006 231.5 270 155 0.973 11.648172402475 502.46245073311 2750.8656479077
56882	1787771 4826 13868 18006 231.5 270 155 -3.4011611938477 2.5 39.699392318726 243.76015568831
56881	1792597 5178 13839 18006 231.25 270 156 5.6500000953674 15.991753578186 2208.812664032 32300.405057465
56880	1797775 5467 13810 18006 231 270 157 184.17810058594 486.85000610352 62488.551483154 26631457.051818
56879	1803242 5491 13810 18006 231 270 157 236.76477050781 486.85000610352 68189.035919189 30555405.891207
vector 56991  IntersectionExampleScenario.node[78].veinsmobility  posx  ETV
vector 56992  IntersectionExampleScenario.node[78].veinsmobility  posy  ETV
vector 56993  IntersectionExampleScenario.node[78].veinsmobility  speed  ETV
vector 56994  IntersectionExampleScenario.node[78].veinsmobility  acceleration  ETV
vector 56995  IntersectionExampleScenario.node[78].veinsmobility  co2emission  ETV
vector 56998  IntersectionExampleScenario.node[79].veinsmobility  posx  ETV
vector 56999  IntersectionExampleScenario.node[79].veinsmobility  posy  ETV
vector 57000  IntersectionExampleScenario.node[79].veinsmobility  speed  ETV
vector 57001  IntersectionExampleScenario.node[79].veinsmobility  acceleration  ETV
vector 57002  IntersectionExampleScenario.node[79].veinsmobility  co2emission  ETV
56869	1809535 6179 13416 18490 227 274.75 192 0.973 12.099024792222 584.42979778499 3135.2949955437
56868	1815714 5901 13416 18490 227 274.75 192 -7.2880325317383 4 41.057416915894 485.36472657911
56867	1821615 6062 13393 18490 226.75 274.75 193 0 16.27499961853 2203.3624815941 32203.139127123
56866	1827677 6783 13370 18490 226.5 274.75 194 236.62512207031 486.85000610352 86362.533355713 39454666.634863
56865	1834460 6781 13370 18490 226.5 274.75 194 483.14999389648 785.82187652588 108140.35454559 62184520.642749
vector 57005  IntersectionExampleScenario.node[80].veinsmobility  posx  ETV
vector 57006  IntersectionExampleScenario.node[80].veinsmobility  posy  ETV
vector 57007  IntersectionExampleScenario.node[80].veinsmobility  speed  ETV
56855	1841473 6754 13066 18542 222.75 275.25 211 0.97223939240464 11.648172402475 586.25999210266 2981.048371194
56854	1848227 6123 13066 18542 222.75 275.25 211 -8.1580581665039 4 38.680875778198 504.05278397151
56853	1854350 6529 13045 18542 222.5 275.25 212 0 15.64999961853 2216.2127346992 31640.949014535
56852	1860879 7456 13024 18542 222.25 275.25 213 483.14999389648 483.14999389648 102910.94869995 49721424.236263
56851	1868335 7424 13024 18542 222.25 275.25 213 184.17810058594 734.53523254395 96920.956741333 48274244.580469
vector 57008  IntersectionExampleScenario.node[80].veinsmobility  acceleration  ETV
vector 57009  IntersectionExampleScenario.node[80].veinsmobility  co2emission  ETV
56876	1875928 6611 13535 18760 228.25 277.5 198 0.973 12.099024792222 594.31378809226 3222.3071034469
56875	1882539 6496 13535 18760 228.25 277.5 198 -4.5 2.5000004768372 40.717908859253 465.05597419531
56874	1889035 6749 13510 18760 228 277.5 199 0 16.27499961853 2299.0391058922 33137.374818986
56873	1895784 6981 13485 18760 227.75 277.5 200 235.46807861328 486.85000610352 89176.091369629 40797583.93443
56872	1902765 6985 13485 18760 227.75 277.5 200 483.06851196289 807.09531402588 113227.74471283 66343654.906135
vector 57012  IntersectionExampleScenario.node[81].veinsmobility  posx  ETV
vector 57013  IntersectionExampleScenario.node[81].veinsmobility  posy  ETV
vector 57014  IntersectionExampleScenario.node[81].veinsmobility  speed  ETV
vector 57015  IntersectionExampleScenario.node[81].veinsmobility  acceleration  ETV
vector 57016  IntersectionExampleScenario.node[81].veinsmobility  co2emission  ETV
56897	1910151 6067 14147 19024 234 280.5 187 0.973 11.36141391502 543.18266498171 2831.0955762759
56896	1916218 6088 14147 19024 234 280.5 187 -2.8200988769531 2.5 36.98334312439 328.13188613526
56895	1922306 6262 14118 19024 233.75 280.5 188 3.3409717082977 15.25 2186.4664306641 28365.733326406
56894	1928568 6605 14089 19024 233.5 280.5 189 486.85000610352 733.6683807373 100413.95021057 54353843.172716
56893	1935173 6600 14089 19024 233.5 280.5 189 486.85000610352 785.82187652588 107224.55130768 62635192.116681
vector 57019  IntersectionExampleScenario.node[82].veinsmobility  posx  ETV
vector 57020  IntersectionExampleScenario.node[82].veinsmobility  posy  ETV
vector 57021  IntersectionExampleScenario.node[82].veinsmobility  speed  ETV
vector 57022  IntersectionExampleScenario.node[82].veinsmobility  acceleration  ETV
vector 57023  IntersectionExampleScenario.node[82].veinsmobility  co2emission  ETV
56904	1942174 6191 14296 19120 235.25 281.5 186 0.973 11.54047740176 557.30402336289 2887.119410979
56903	1948365 6121 14296 19120 235.25 281.5 186 -4.5 2.5 38.001859664917 374.90670416664
56902	1954486 6302 14265 19120 235 281.5 187 3.6700658798218 15.5 2304.3330974579 30922.76585444
56901	1960788 6580 14234 19120 234.75 281.5 188 486.85000610352 486.85000610352 91527.801147461 44560310.547283
56900	1967368 6555 14234 19120 234.75 281.5 188 236.15173339844 807.09531402588 100302.25173187 58202353.611884
vector 57026  IntersectionExampleScenario.node[83].veinsmobility  posx  ETV
vector 57027  IntersectionExampleScenario.node[83].veinsmobility  posy  ETV
vector 57028  IntersectionExampleScenario.node[83].veinsmobility  speed  ETV
vector 57029  IntersectionExampleScenario.node[83].veinsmobility  acceleration  ETV
vector 57030  IntersectionExampleScenario.node[83].veinsmobility  co2emission  ETV
56925	1974324 5697 15127 19292 241.5 283.25 168 0.973 10.916047529558 479.28778875395 2336.2943994862
56924	1980021 5227 15127 19292 241.5 283.25 168 -3.2710418701172 2.5 34.097539901733 237.72858879139
56923	1985248 5617 15092 19292 241.25 283.25 169 5.6500000953674 14.625 2184.0328416824 29225.314283266
56922	1990865 5908 15057 19292 241 283.25 170 236.54827880859 483.14999389648 73356.972045898 32643328.425736
56921	1996773 5920 15057 19292 241 283.25 170 184.17810058594 483.14999389648 67647.968536377 28727820.301942
vector 57033  IntersectionExampleScenario.node[84].veinsmobility  posx  ETV
vector 57034  IntersectionExampleScenario.node[84].veinsmobility  posy  ETV
vector 57035  IntersectionExampleScenario.node[84].veinsmobility  speed  ETV
vector 57036  IntersectionExampleScenario.node[84].veinsmobility  acceleration  ETV
vector 57037  IntersectionExampleScenario.node[84].veinsmobility  co2emission  ETV
vector 57040  IntersectionExampleScenario.node[85].veinsmobility  posx  ETV
vector 57041  IntersectionExampleScenario.node[85].veinsmobility  posy  ETV
vector 57042  IntersectionExampleScenario.node[85].veinsmobility  speed  ETV
vector 57043  IntersectionExampleScenario.node[85].veinsmobility  acceleration  ETV
vector 57044  IntersectionExampleScenario.node[85].veinsmobility  co2emission  ETV
vector 57047  IntersectionExampleScenario.node[86].veinsmobility  posx  ETV
vector 57048  IntersectionExampleScenario.node[86].veinsmobility  posy  ETV
vector 57049  IntersectionExampleScenario.node[86].veinsmobility  speed  ETV
vector 57050  IntersectionExampleScenario.node[86].veinsmobility  acceleration  ETV
vector 57051  IntersectionExampleScenario.node[86].veinsmobility  co2emission  ETV
56911	2003896 6866 14393 20055 236 290 217 0.973 11.90022389248 600.26530590283 3117.6311751821
56910	2010762 6380 14393 20055 236 290 217 -33.546966552734 4 39.529638290405 1489.3763132187
56909	2017142 6509 14360 20055 235.75 290 218 0 16 2200.8248243332 32063.211281908
56908	2023651 7637 14327 20055 235.5 290 219 184.17810058594 486.85000610352 91705.799041748 40402738.910164
56907	2031288 7657 14327 20055 235.5 290 219 236.87365722656 486.85000610352 98374.089874268 45252113.284146
vector 57054  IntersectionExampleScenario.node[87].veinsmobility  posx  ETV
vector 57055  IntersectionExampleScenario.node[87].veinsmobility  posy  ETV
vector 57061  IntersectionExampleScenario.node[88].veinsmobility  posx  ETV
vector 57062  IntersectionExampleScenario.node[88].veinsmobility  posy  ETV
vector 57056  IntersectionExampleScenario.node[87].veinsmobility  speed  ETV
vector 57057  IntersectionExampleScenario.node[87].veinsmobility  acceleration  ETV
vector 57058  IntersectionExampleScenario.node[87].veinsmobility  co2emission  ETV
vector 57063  IntersectionExampleScenario.node[88].veinsmobility  speed  ETV
vector 57064  IntersectionExampleScenario.node[88].veinsmobility  acceleration  ETV
vector 57065  IntersectionExampleScenario.node[88].veinsmobility  co2emission  ETV
56918	2039747 7326 14495 20226 236.75 291.5 220 0.973 11.54047740176 594.0043457158 2901.8587358089
56917	2047073 7164 14495 20226 236.75 291.5 220 -4.5 2.5 36.98334312439 438.33136088562
56916	2054237 7578 14461 20226 236.5 291.5 221 0 15.5 2300.972795032 31650.703577879
56915	2061815 7743 14426 20226 236.25 291.5 222 161.1796875 731.90628051758 98352.577774048 48357581.628641
56914	2069558 7771 14426 20226 236.25 291.5 222 486.85000610352 486.85000610352 108080.70135498 52619090.114344
56932	2077329 6187 15607 20359 245.25 292.75 191 0.973 12.099024792222 578.86771883055 3185.4561130565
56931	2083516 5910 15607 20359 245.25 292.75 191 -8.5031824111938 4 40.378400802612 525.0293730908
56930	2089426 6035 15576 20359 245 292.75 192 0 16.27499961853 2186.0380716324 31597.443496535
56929	2095461 6737 15545 20359 244.75 292.75 193 486.75677490234 785.82187652588 107937.7748642 62234903.675572
56928	2102198 6752 15545 20359 244.75 292.75 193 235.40704345703 483.14999389648 85221.474212646 38617263.810297
56939	2108950 5880 15909 20434 248 293.5 183 0.973 12.099024792222 560.85309799172 3202.8685643589
56938	2114830 5915 15909 20434 248 293.5 183 -2.7610321044922 2.5 40.038900375366 336.8984454955
56937	2120745 6110 15882 20434 247.75 293.5 184 3.2173414230347 16.27499961853 2182.3862369061 29299.635123562
56936	2126855 6450 15855 20434 247.5 293.5 185 184.17810058594 483.28338623047 74507.038513184 31766782.082415
56935	2133305 6470 15855 20434 247.5 293.5 185 486.85000610352 732.19944763184 97992.899856567 52856458.430704
56960	2139775 5250 16974 20851 258.5 298 159 0.973 11.810082123732 544.85006554508 3406.4433806759
56959	2145025 5033 16974 20851 258.5 298 159 -3.5591125488281 2.5 38.850629806519 327.39666104358
56958	2150058 5266 16947 20851 258.25 298 160 5.6500000953674 15.875 2177.3786096573 31007.132615114
56957	2155324 5600 16920 20851 258 298 161 184.17810058594 483.14999389648 63950.534332275 27136541.847614
56956	2160924 5629 16920 20851 258 298 161 486.85000610352 731.95683288574 86425.367202759 47301467.476027
vector 57068  IntersectionExampleScenario.node[89].veinsmobility  posx  ETV
vector 57069  IntersectionExampleScenario.node[89].veinsmobility  posy  ETV
vector 57070  IntersectionExampleScenario.node[89].veinsmobility  speed  ETV
vector 57071  IntersectionExampleScenario.node[89].veinsmobility  acceleration  ETV
vector 57072  IntersectionExampleScenario.node[89].veinsmobility  co2emission  ETV
vector 57075  IntersectionExampleScenario.node[90].veinsmobility  posx  ETV
vector 57076  IntersectionExampleScenario.node[90].veinsmobility  posy  ETV
vector 57077  IntersectionExampleScenario.node[90].veinsmobility  speed  ETV
vector 57078  IntersectionExampleScenario.node[90].veinsmobility  acceleration  ETV
vector 57079  IntersectionExampleScenario.node[90].veinsmobility  co2emission  ETV
vector 57082  IntersectionExampleScenario.node[91].veinsmobility  posx  ETV
vector 57083  IntersectionExampleScenario.node[91].veinsmobility  posy  ETV
vector 57089  IntersectionExampleScenario.node[92].veinsmobility  posx  ETV
vector 57090  IntersectionExampleScenario.node[92].veinsmobility  posy  ETV
vector 57084  IntersectionExampleScenario.node[91].veinsmobility  speed  ETV
vector 57085  IntersectionExampleScenario.node[91].veinsmobility  acceleration  ETV
vector 57086  IntersectionExampleScenario.node[91].veinsmobility  co2emission  ETV
vector 57091  IntersectionExampleScenario.node[92].veinsmobility  speed  ETV
vector 57092  IntersectionExampleScenario.node[92].veinsmobility  acceleration  ETV
vector 57093  IntersectionExampleScenario.node[92].veinsmobility  co2emission  ETV
56974	2168157 5414 17624 21471 265.5 305 159 0.973 11.648172402475 503.43654627657 2729.7172963131
56973	2173571 4981 17624 21471 265.5 305 159 -3.6182556152344 2.5 38.341367721558 266.04495831987
56972	2178552 5316 17601 21471 265.25 305 160 5.6500000953674 15.64999961853 2202.6094713211 31365.933332764
56971	2183868 5630 17578 21471 265 305 161 483.14999389648 731.8212890625 86107.202331543 47000801.077438
56970	2189498 5606 17578 21471 265 305 161 184.17810058594 486.87600708008 64192.542510986 27373597.091409
56946	2195104 6652 16480 21492 253.5 305.25 208 0.973 11.648172402475 575.60151423768 2949.4191959315
56945	2201756 6299 16480 21492 253.5 305.25 208 -7.1038160324097 4 37.832105636597 470.3475040619
56944	2208055 6492 16453 21492 253.25 305.25 209 0 15.64999961853 2205.4755666256 31050.023024759
56943	2214547 7349 16426 21492 253 305.25 210 486.85000610352 486.85000610352 102238.50128174 49774814.973028
56942	2221896 7332 16426 21492 253 305.25 210 238.25756835938 785.82187652588 108378.126091 60083653.745731
56953	2229228 6789 16745 21660 256.25 307.25 205 0.973 11.200708441096 555.20394187825 2663.1308500206
56952	2236017 6580 16745 21660 256.25 307.25 205 -4.5 2.5 35.964826583862 390.16705681052
56951	2242597 6997 16720 21660 256 307.25 206 0 15.02499961853 2266.8174280338 30453.487557355
56950	2249594 7234 16695 21660 255.75 307.25 207 235.49090576172 486.85000610352 91955.69631958 41952652.208142
56949	2256828 7227 16695 21660 255.75 307.25 207 482.95004272461 800.04531860352 116774.35956573 68065711.303792
vector 57096  IntersectionExampleScenario.node[93].veinsmobility  posx  ETV
vector 57097  IntersectionExampleScenario.node[93].veinsmobility  posy  ETV
vector 57098  IntersectionExampleScenario.node[93].veinsmobility  speed  ETV
vector 57099  IntersectionExampleScenario.node[93].veinsmobility  acceleration  ETV
vector 57100  IntersectionExampleScenario.node[93].veinsmobility  co2emission  ETV
56981	2264456 5571 17763 21762 267.25 308.5 166 0.973 11.911963932042 550.57389754427 3001.1921668289
56980	2270027 5394 17763 21762 267.25 308.5 166 -4.5 2.5 41.023641586304 341.38481276936
56979	2275421 5644 17742 21762 267 308.5 167 5.1737189292908 16.016265869141 2265.6445717812 32267.805041358
56978	2281065 5876 17721 21762 266.75 308.5 168 235.72894287109 483.14999389648 72790.982330322 32504340.425917
56977	2286941 5858 17721 21762 266.75 308.5 168 164.94219970703 483.14999389648 65796.878601074 27816352.710822
56967	2292799 6127 17313 21804 262 309 189 0.973 11.36141391502 548.19464301664 2823.7222505205
56966	2298926 6203 17313 21804 262 309 189 -3.286376953125 2.5 37.832105636597 317.54097230398
56965	2305129 6320 17289 21804 261.75 309 190 2.9624512195587 15.25 2182.9807603359 28397.188597682
56964	2311449 6674 17264 21804 261.5 309 191 486.85000610352 732.7261505127 101219.45860291 54630224.180608
56963	2318123 6676 17264 21804 261.5 309 191 486.74615478516 785.82187652588 108261.59053802 63161963.85148
vector 57103  IntersectionExampleScenario.node[94].veinsmobility  posx  ETV
vector 57104  IntersectionExampleScenario.node[94].veinsmobility  posy  ETV
vector 57105  IntersectionExampleScenario.node[94].veinsmobility  speed  ETV
vector 57106  IntersectionExampleScenario.node[94].veinsmobility  acceleration  ETV
vector 57107  IntersectionExampleScenario.node[94].veinsmobility  co2emission  ETV
56995	2325200 5146 18171 21936 271.75 310.5 156 0.973 12.099024792222 545.40379806649 3454.0460427069
56994	2330346 4864 18171 21936 271.75 310.5 156 -3.1199150085449 2.5 40.038900375366 289.0763554264
56993	2335210 5265 18146 21936 271.5 310.5 157 5.6500000953674 16.27499961853 2221.2228507996 32193.18428274
[...]
59884	15383111 7657 120694 123736 1693.5 1746.5 213 0 15.64999961853 2258.547529798 31354.94257907
59883	15390768 7914 120679 123736 1693.25 1746.5 214 483.14999389648 731.70526123047 111705.52409363 59362532.029028
59882	15398682 7903 120679 123736 1693.25 1746.5 214 169.69488525391 486.86666870117 87530.594055176 37991813.113193
vector 59959  IntersectionExampleScenario.node[502].veinsmobility  posx  ETV
vector 59960  IntersectionExampleScenario.node[502].veinsmobility  posy  ETV
vector 59961  IntersectionExampleScenario.node[502].veinsmobility  speed  ETV
vector 59962  IntersectionExampleScenario.node[502].veinsmobility  acceleration  ETV
vector 59963  IntersectionExampleScenario.node[502].veinsmobility  co2emission  ETV
59907	15406991 5741 121477 123806 1707.5 1748.25 164 0.973 12.099024792222 554.22937739158 3200.9690513866
59906	15412732 5669 121477 123806 1707.5 1748.25 164 -2.328239440918 2.5 42.415441513062 295.28071965419
59905	15418401 5817 121462 123806 1707.25 1748.25 165 5.6500000953674 16.311141967773 2201.8888268471 31218.514166666
59904	15424218 6133 121447 123806 1707 1748.25 166 483.14999389648 731.53646850586 88035.864334106 47610467.729821
59903	15430351 6108 121447 123806 1707 1748.25 166 184.17810058594 486.88088989258 66303.321594238 28218165.164312
vector 59966  IntersectionExampleScenario.node[503].veinsmobility  posx  ETV
vector 59967  IntersectionExampleScenario.node[503].veinsmobility  posy  ETV
vector 59968  IntersectionExampleScenario.node[503].veinsmobility  speed  ETV
vector 59969  IntersectionExampleScenario.node[503].veinsmobility  acceleration  ETV
vector 59970  IntersectionExampleScenario.node[503].veinsmobility  co2emission  ETV
59928	15436865 5294 121984 123986 1715.75 1753 150 0.90753377507377 12.553400930962 541.1864065852 3692.5637604434
59927	15442159 5117 121984 123986 1715.75 1753 150 -3.5160484313965 2.5 43.094457626343 310.28966124234
59926	15447276 5277 121967 123986 1715.5 1753 151 5.6500000953674 16.89999961853 2204.9285039902 33460.40867018
59925	15452553 5622 121950 123986 1715.25 1753 152 483.14999389648 732.21075439453 81220.503158569 44289079.617885
59924	15458175 5594 121950 123986 1715.25 1753 152 184.17810058594 486.85000610352 60394.392303467 25711825.26226
59921	15463769 6229 121984 124225 1715.75 1760 178 0.973 11.90022389248 559.08165338356 3053.793007325
59920	15469998 5909 121984 124225 1715.75 1760 178 -8.013355255127 4 39.529638290405 491.35818162182
59919	15475907 6132 121967 124225 1715.5 1760 179 0 16 2201.7318792343 31602.528258395
59918	15482039 6651 121950 124225 1715.25 1760 180 483.14999389648 785.82187652588 101339.25244904 58916357.998261
59917	15488690 6655 121950 124225 1715.25 1760 180 483.14999389648 733.12632751465 95213.060348511 51359556.160697
59914	15495345 6862 121661 124232 1710.5 1760.25 200 0.973 11.648172402475 571.15816147086 2934.8785169088
59913	15502207 6384 121661 124232 1710.5 1760.25 200 -7.092942237854 4 38.341367721558 478.53537292727
59912	15508591 6687 121644 124232 1710.25 1760.25 201 0 15.64999961853 2200.3473823071 31113.224980687
59911	15515278 7446 121627 124232 1710 1760.25 202 184.17810058594 486.85000610352 83527.256286621 36491429.583069
59910	15522724 7471 121627 124232 1710 1760.25 202 237.29504394531 486.85000610352 89968.752502441 41116524.054538
vector 59973  IntersectionExampleScenario.node[504].veinsmobility  posx  ETV
vector 59974  IntersectionExampleScenario.node[504].veinsmobility  posy  ETV
vector 59975  IntersectionExampleScenario.node[504].veinsmobility  speed  ETV
vector 59976  IntersectionExampleScenario.node[504].veinsmobility  acceleration  ETV
vector 59977  IntersectionExampleScenario.node[504].veinsmobility  co2emission  ETV
vector 59980  IntersectionExampleScenario.node[505].veinsmobility  posx  ETV
vector 59981  IntersectionExampleScenario.node[505].veinsmobility  posy  ETV
59935	15530757 5663 122508 124346 1724 1763.75 160 0.973 11.648172402475 545.77281456789 3264.0824746303
59934	15536420 5341 122508 124346 1724 1763.75 160 -2.9451484680176 2.5 39.699392318726 298.6332078247
59933	15541761 5674 122491 124346 1723.75 1763.75 161 5.6500000953674 15.64999961853 2207.5409879684 31346.537963623
59932	15547435 5967 122474 124346 1723.5 1763.75 162 184.17810058594 486.85000610352 64546.989715576 27480164.99326
59931	15553402 5989 122474 124346 1723.5 1763.75 162 236.96722412109 486.85000610352 70637.198272705 31750734.939217
vector 59982  IntersectionExampleScenario.node[505].veinsmobility  speed  ETV
vector 59983  IntersectionExampleScenario.node[505].veinsmobility  acceleration  ETV
vector 59984  IntersectionExampleScenario.node[505].veinsmobility  co2emission  ETV
59942	15559641 6060 122614 124500 1725.5 1767.25 168 0.973 11.450879080643 503.41777228471 2574.6569321607
59941	15565701 5799 122614 124500 1725.5 1767.25 168 -4.5 2.5 37.15309715271 250.65246989616
59940	15571500 5967 122595 124500 1725.25 1767.25 169 5.6500000953674 15.375 2289.7852401733 31874.549548956
59939	15577467 6254 122576 124500 1725 1767.25 170 163.88433837891 486.85000610352 66420.457244873 28073156.539704
59938	15583721 6286 122576 124500 1725 1767.25 170 237.13171386719 486.85000610352 74218.738525391 33395295.989777
vector 59987  IntersectionExampleScenario.node[506].veinsmobility  posx  ETV
vector 59988  IntersectionExampleScenario.node[506].veinsmobility  posy  ETV
vector 59989  IntersectionExampleScenario.node[506].veinsmobility  speed  ETV
vector 59990  IntersectionExampleScenario.node[506].veinsmobility  acceleration  ETV
vector 59991  IntersectionExampleScenario.node[506].veinsmobility  co2emission  ETV
vector 59994  IntersectionExampleScenario.node[507].veinsmobility  posx  ETV
vector 59995  IntersectionExampleScenario.node[507].veinsmobility  posy  ETV
vector 59996  IntersectionExampleScenario.node[507].veinsmobility  speed  ETV
vector 59997  IntersectionExampleScenario.node[507].veinsmobility  acceleration  ETV
vector 59998  IntersectionExampleScenario.node[507].veinsmobility  co2emission  ETV
59949	15590819 5925 123133 124881 1734.25 1775.25 165 0.973 11.36141391502 506.48741057749 2640.9100520687
59948	15596744 5509 123133 124881 1734.25 1775.25 165 -3.1120910644531 2.5 36.98334312439 285.69834851899
59947	15602253 5849 123120 124881 1734 1775.25 166 5.6500000953674 15.25 2180.9280333519 30144.622899657
59946	15608102 6156 123107 124881 1733.75 1775.25 167 486.85000610352 732.55226135254 89620.187286377 49039811.24777
59945	15614258 6171 123107 124881 1733.75 1775.25 167 486.85000610352 785.82187652588 95408.917366028 56282221.555071
vector 60001  IntersectionExampleScenario.node[508].veinsmobility  posx  ETV
vector 60002  IntersectionExampleScenario.node[508].veinsmobility  posy  ETV
vector 60003  IntersectionExampleScenario.node[508].veinsmobility  speed  ETV
vector 60004  IntersectionExampleScenario.node[508].veinsmobility  acceleration  ETV
vector 60005  IntersectionExampleScenario.node[508].veinsmobility  co2emission  ETV
vector 60008  IntersectionExampleScenario.node[509].veinsmobility  posx  ETV
vector 60009  IntersectionExampleScenario.node[509].veinsmobility  posy  ETV
vector 60010  IntersectionExampleScenario.node[509].veinsmobility  speed  ETV
vector 60011  IntersectionExampleScenario.node[509].veinsmobility  acceleration  ETV
vector 60012  IntersectionExampleScenario.node[509].veinsmobility  co2emission  ETV
vector 60015  IntersectionExampleScenario.node[510].veinsmobility  posx  ETV
vector 60016  IntersectionExampleScenario.node[510].veinsmobility  posy  ETV
vector 60017  IntersectionExampleScenario.node[510].veinsmobility  speed  ETV
vector 60018  IntersectionExampleScenario.node[510].veinsmobility  acceleration  ETV
vector 60019  IntersectionExampleScenario.node[510].veinsmobility  co2emission  ETV
59963	15621647 5586 123776 125392 1747.5 1786 155 0.973 11.90022389248 497.11489405223 2767.2158186651
59962	15627233 5250 123776 125392 1747.5 1786 155 -3.3288497924805 2.5 39.359884262085 243.92842118093
59961	15632483 5464 123765 125392 1747.25 1786 156 5.6500000953674 16 2203.7838602066 32129.12094659
59960	15637947 5801 123754 125392 1747 1786 157 237.88012695312 486.85000610352 68230.182647705 30583892.001558
59959	15643748 5796 123754 125392 1747 1786 157 483.14999389648 785.82187652588 89845.741203308 53174914.640994
59970	15649544 5386 123882 125482 1750.25 1787.5 150 0.973 12.553400930962 522.11709425572 3213.4260273201
59969	15654930 5085 123882 125482 1750.25 1787.5 150 -3.4257888793945 2.5 42.754949569702 274.65081152934
59968	15660015 5277 123871 125482 1750 1787.5 151 5.6500000953674 16.89999961853 2214.7583818436 33747.933650291
59967	15665292 5614 123860 125482 1749.75 1787.5 152 483.14999389648 734.76620483398 81411.723983765 44519950.099097
59966	15670906 5598 123860 125482 1749.75 1787.5 152 184.17810058594 486.85000610352 60475.889099121 25780228.817802
vector 60022  IntersectionExampleScenario.node[511].veinsmobility  posx  ETV
vector 60023  IntersectionExampleScenario.node[511].veinsmobility  posy  ETV
vector 60024  IntersectionExampleScenario.node[511].veinsmobility  speed  ETV
vector 60025  IntersectionExampleScenario.node[511].veinsmobility  acceleration  ETV
vector 60026  IntersectionExampleScenario.node[511].veinsmobility  co2emission  ETV
vector 60029  IntersectionExampleScenario.node[512].veinsmobility  posx  ETV
vector 60030  IntersectionExampleScenario.node[512].veinsmobility  posy  ETV
vector 60031  IntersectionExampleScenario.node[512].veinsmobility  speed  ETV
vector 60032  IntersectionExampleScenario.node[512].veinsmobility  acceleration  ETV
vector 60033  IntersectionExampleScenario.node[512].veinsmobility  co2emission  ETV
59956	15677316 7067 123353 125633 1738.5 1790.25 208 0.973 11.648172402475 579.31795261113 2944.6151332502
59955	15684383 6544 123353 125633 1738.5 1790.25 208 -7.7750473022461 4 38.511121749878 476.5267975717
59954	15690927 6870 123340 125633 1738.25 1790.25 209 0 15.64999961853 2201.8212580681 31157.430440079
59953	15697797 7757 123327 125633 1738 1790.25 210 483.14999389648 785.82187652588 116389.50699615 66484370.911773
59952	15705554 7760 123327 125633 1738 1790.25 210 483.14999389648 733.24354553223 109850.45391846 58525159.838733
vector 60036  IntersectionExampleScenario.node[513].veinsmobility  posx  ETV
vector 60037  IntersectionExampleScenario.node[513].veinsmobility  posy  ETV
vector 60038  IntersectionExampleScenario.node[513].veinsmobility  speed  ETV
vector 60039  IntersectionExampleScenario.node[513].veinsmobility  acceleration  ETV
vector 60040  IntersectionExampleScenario.node[513].veinsmobility  co2emission  ETV
vector 60043  IntersectionExampleScenario.node[514].veinsmobility  posx  ETV
vector 60044  IntersectionExampleScenario.node[514].veinsmobility  posy  ETV
vector 60050  IntersectionExampleScenario.node[515].veinsmobility  posx  ETV
vector 60051  IntersectionExampleScenario.node[515].veinsmobility  posy  ETV
vector 60045  IntersectionExampleScenario.node[514].veinsmobility  speed  ETV
vector 60052  IntersectionExampleScenario.node[515].veinsmobility  speed  ETV
vector 60046  IntersectionExampleScenario.node[514].veinsmobility  acceleration  ETV
vector 60047  IntersectionExampleScenario.node[514].veinsmobility  co2emission  ETV
vector 60053  IntersectionExampleScenario.node[515].veinsmobility  acceleration  ETV
vector 60054  IntersectionExampleScenario.node[515].veinsmobility  co2emission  ETV
vector 60057  IntersectionExampleScenario.node[516].veinsmobility  posx  ETV
vector 60058  IntersectionExampleScenario.node[516].veinsmobility  posy  ETV
vector 60059  IntersectionExampleScenario.node[516].veinsmobility  speed  ETV
vector 60060  IntersectionExampleScenario.node[516].veinsmobility  acceleration  ETV
vector 60061  IntersectionExampleScenario.node[516].veinsmobility  co2emission  ETV
vector 60064  IntersectionExampleScenario.node[517].veinsmobility  posx  ETV
vector 60065  IntersectionExampleScenario.node[517].veinsmobility  posy  ETV
vector 60066  IntersectionExampleScenario.node[517].veinsmobility  speed  ETV
vector 60067  IntersectionExampleScenario.node[517].veinsmobility  acceleration  ETV
vector 60068  IntersectionExampleScenario.node[517].veinsmobility  co2emission  ETV
59977	15715344 5284 124292 126365 1762.25 1800 152 0.93438186594183 12.26218747632 521.21586013089 3198.3163095987
59976	15720628 5144 124292 126365 1762.25 1800 152 -7.2880325317383 4 41.057847976685 496.17494206755
59975	15725772 5199 124283 126365 1762 1800 153 0 16.5 1881.3791251183 27005.209732236
59974	15730971 5612 124274 126365 1761.75 1800 154 486.85000610352 658.96560668945 78887.693588257 40755116.480416
59973	15736583 5688 124274 126365 1761.75 1800 154 486.63604736328 785.82187652588 88665.526359558 52699108.63261
59984	15742271 5185 124368 126365 1764.25 1800 144 0.973 11.200708441096 418.47779283944 2110.4571361782
59983	15747456 4995 124368 126365 1764.25 1800 144 -3.1925315856934 2.5 35.116060256958 169.1462653028
59982	15752451 5126 124357 126365 1764 1800 145 5.6500000953674 15.02499961853 1975.9214143753 27400.523030868
59981	15757577 5392 124346 126365 1763.75 1800 146 296.7744140625 785.82187652588 80187.473854065 47131905.687239
59980	15762969 5401 124346 126365 1763.75 1800 146 483.14999389648 483.14999389648 70539.899108887 34081351.823917
59991	15768370 4468 124559 126365 1768.5 1800 127 0.973 11.648172402475 466.40015261426 3125.1775690583
59990	15772838 4357 124559 126365 1768.5 1800 127 -3.6822242736816 2.5 38.511785507202 298.3482656095
59989	15777195 4503 124546 126365 1768.25 1800 128 5.6500000953674 15.64999961853 1747.3402118683 24535.819465268
59988	15781698 4771 124533 126365 1768 1800 129 486.85000610352 486.85000610352 62803.650787354 30575957.769146
59987	15786469 4756 124533 126365 1768 1800 129 353.85601806641 785.82187652588 74377.120521545 44997415.807262
59998	15791225 4248 124653 126365 1770.25 1800 120 0.973 12.26218747632 494.49890832867 3335.3759419946
59997	15795473 3997 124653 126365 1770.25 1800 120 -4.5 2.5 44.160818099976 373.73612847826
59996	15799470 4137 124639 126365 1770 1800 121 5.6500000953674 16.716053009033 1602.9647636414 22689.843139333
59995	15803607 4512 124624 126365 1769.75 1800 122 486.85000610352 568.29815673828 60365.152130127 29910351.399507
59994	15808119 4498 124624 126365 1769.75 1800 122 486.80435180664 805.05782318115 74544.461616516 47061012.191039
60005	15812617 3319 124912 126365 1776 1800 97 0.973 11.200708441096 261.09210280679 1308.5869132931
60004	15815936 3285 124912 126365 1776 1800 97 -7.2451009750366 2.5 -22.60000038147 299.91285629515
60003	15819221 3514 124901 126365 1775.75 1800 98 0 15.02499961853 1146.6194109917 15452.643987308
60002	15822735 3632 124890 126365 1775.5 1800 99 184.17810058594 471.60000610352 33469.514343262 12233097.718011
60001	15826367 3662 124890 126365 1775.5 1800 99 486.85000610352 486.85000610352 48198.150604248 23465269.915856
60012	15830029 2452 125246 126365 1783.5 1800 67 0.973 11.648172402475 238.6669766752 1406.7278586785
60011	15832481 2329 125246 126365 1783.5 1800 67 -0.45709991455078 2.5 38.171613693237 100.47756579405
60010	15834810 2500 125233 126365 1783.25 1800 68 5.6500000953674 15.64999961853 957.2592716217 13901.531119513
60009	15837310 2551 125220 126365 1783 1800 69 483.14999389648 483.14999389648 33337.349578857 16106940.24555
60008	15839861 2525 125220 126365 1783 1800 69 184.17810058594 418.39059448242 20096.575531006 6217846.6194278
60019	15842386 2325 125302 126365 1784.5 1800 63 2.1268725091202 11.889437872591 256.85679697633 1534.0599993981
60018	15844711 2242 125302 126365 1784.5 1800 63 -0.051315307617188 2.5 43.603719711304 101.28444096289
60017	15846953 2358 125287 126365 1784.25 1800 64 5.6500000953674 16.602241516113 951.96026706696 14747.705420062
60016	15849311 2403 125272 126365 1784 1800 65 483.14999389648 483.14999389648 31404.749603271 15173204.579141
60015	15851714 2371 125272 126365 1784 1800 65 162.00311279297 394.44561767578 17272.228546143 4931838.1457166
60026	15854085 1657 125562 126365 1789 1800 45 1.986667772344 11.200708441096 186.27416404716 1188.3532186994
60025	15855742 1614 125562 126365 1789 1800 45 -0.044288635253906 2.5 37.322874069214 93.754473902929
60024	15857356 1690 125549 126365 1788.75 1800 46 5.6500000953674 15.02499961853 614.95416069031 8579.2684048601
60023	15859046 1738 125535 126365 1788.5 1800 47 486.85000610352 486.85000610352 22881.950286865 11140077.636821
60022	15860784 1737 125535 126365 1788.5 1800 47 637.07539367676 785.82187652588 33852.909080505 24486416.216558
60033	15862521 1508 125618 126365 1790 1800 41 1.6778656626784 11.200708441096 176.26582206792 1164.2806713607
60032	15864029 1443 125618 126365 1790 1800 41 -0.12916564941406 2.5 36.983625411987 93.788124831834
60031	15865472 1540 125603 126365 1789.75 1800 42 5.6500000953674 15.02499961853 553.07895851135 7623.2266625404
60030	15867012 1586 125588 126365 1789.5 1800 43 652.51698303223 785.82187652588 31287.504966736 22841421.182623
60029	15868598 1590 125588 126365 1789.5 1800 43 483.14999389648 483.14999389648 20775.449737549 10037658.413893
60040	15870188 1179 125754 126365 1792.25 1800 32 3.1995653683584 11.200708441096 177.81503765815 1232.5006866424
60039	15871367 1028 125754 126365 1792.25 1800 32 0.24923706054688 2.5 42.136617660522 95.016962679427
60038	15872395 1207 125739 126365 1792 1800 33 5.6500000953674 16.184154510498 431.49752807617 6009.7021921496
60037	15873602 1253 125723 126365 1791.75 1800 34 700.23173522949 802.70781707764 25838.357467651 19671392.834038
60036	15874855 1257 125723 126365 1791.75 1800 34 483.14999389648 483.14999389648 16427.09979248 7936753.1644739
60047	15876112 984 125837 126365 1793.5 1800 27 0.973 10.63130784306 146.00932645838 1074.8478892317
60046	15877096 938 125837 126365 1793.5 1800 27 -0.35120391845703 2.5 37.06244468689 88.144360250157
60045	15878034 1030 125818 126365 1793.25 1800 28 5.6500000953674 15.247038841248 337.62508678436 4359.0139881818
60044	15879064 1066 125799 126365 1793 1800 29 736.10064697266 815.53829193115 22704.953598022 17794531.436486
60043	15880130 1071 125799 126365 1793 1800 29 483.14999389648 483.14999389648 14011.349822998 6769583.581463
60054	15881201 994 125837 126365 1793.5 1800 27 1.8321577376031 11.200708441096 147.08049973075 1103.202249388
60053	15882195 860 125837 126365 1793.5 1800 27 -0.086727142333984 2.5 37.164079666138 93.767165379559
60052	15883055 1026 125818 126365 1793.25 1800 28 5.6500000953674 15.02499961853 344.91120529175 4527.9954647438
60051	15884081 1054 125799 126365 1793 1800 29 184.17810058594 265.42639160156 6317.0458374023 1395265.9174289
60050	15885135 1071 125799 126365 1793 1800 29 486.85000610352 486.85000610352 14118.650177002 6873664.9248468
60061	15886206 885 125898 126365 1794.25 1800 24 2.0219907930536 10.88284273539 133.45759549268 962.4605048662
60060	15887091 793 125898 126365 1794.25 1800 24 -0.021892547607422 2.5 35.636999130249 84.216609192026
60059	15887884 919 125877 126365 1794 1800 25 5.6500000953674 14.578221321106 284.54326820374 3453.4186021277
60058	15888803 949 125856 126365 1793.75 1800 26 161.1796875 227.48376464844 4897.0773925781 933517.56616887
60057	15889752 961 125856 126365 1793.75 1800 26 486.85000610352 486.85000610352 12658.100158691 6162596.1395178
60068	15890713 476 126112 126365 1797 1800 13 5.2162187258585 10.315404520939 100.64515864481 812.01557512667
60067	15891189 335 126112 126365 1797 1800 13 2.4999980926514 2.5 32.499998092651 81.24999046326
60066	15891524 510 126091 126365 1796.75 1800 14 5.6500000953674 13.77499961853 135.97499656677 1409.5242963886
60065	15892034 554 126070 126365 1796.5 1800 15 483.14999389648 483.14999389648 7247.2499084473 3501508.7490326
60064	15892588 542 126070 126365 1796.5 1800 15 184.17810058594 213.71246337891 2940.9748535156 577965.59088425
56441	15893130 625 0 126364 0 1800 31 0 19 378 5088
56442	15893755 639 0 126364 0 1800 31 0 134 2144 198418
