version 2
run nodebug-12-20200606-15:41:14-20656
attr configname nodebug
attr datetime 20200606-15:41:14
attr experiment nodebug
attr inifile omnetpp.ini
attr iterationvars ""
attr iterationvars2 $repetition=12
attr measurement ""
attr network "\"org.car2x.veins.modules.application.ExtTraCIScenarioManagerLaunchd.IntersectionExampleScenario\""
attr processid 20656
attr repetition 12
attr replication #12
attr resultdir results
attr runnumber 12
attr seedset 12
param **.coreDebug false
param **.debug false
param *.**.nic.mac1609_4.bitrate 18Mbps
param *.**.nic.mac1609_4.txPower 20mW
param *.**.nic.mac1609_4.useServiceChannel false
param *.**.nic.phy80211p.analogueModels "xmldoc(\"config.xml\")"
param *.**.nic.phy80211p.decider "xmldoc(\"config.xml\")"
param *.**.nic.phy80211p.sensitivity -89dBm
param *.**.nic.phy80211p.thermalNoise -110dBm
param *.**.nic.phy80211p.usePropagationDelay true
param *.**.nic.phy80211p.useThermalNoise true
param *.annotations.draw false
param *.connectionManager.alpha 2.0
param *.connectionManager.carrierFrequency "5.890e9 Hz"
param *.connectionManager.pMax 20mW
param *.connectionManager.sat -89dBm
param *.connectionManager.sendDirect true
param *.manager.autoShutdown true
param *.manager.host "\"localhost\""
param *.manager.launchConfig "xmldoc(\"paramics.launchd.xml\")"
param *.manager.margin 25
param *.manager.moduleDisplayString "\"\""
param *.manager.moduleName "\"node\""
param *.manager.moduleType "\"org.car2x.veins.nodes.Car\""
param *.manager.port 9999
param *.manager.updateInterval 250ms
param *.node[*0].veinsmobility.accidentCount 0
param *.node[*0].veinsmobility.accidentDuration 30s
param *.node[*0].veinsmobility.accidentStart 75s
param *.node[*].appl.LiderSelectZoneRadio 55.0
param *.node[*].appl.ShareDataZoneRadio 110.0
param *.node[*].appl.TiempoSemaforo 30.0
param *.node[*].appl.beaconInterval 1s
param *.node[*].appl.beaconPriority 3
param *.node[*].appl.dataOnSch false
param *.node[*].appl.dataPriority 2
param *.node[*].appl.debug false
param *.node[*].appl.headerLength "256 bit"
param *.node[*].appl.maxOffset 0.005s
param *.node[*].appl.sendBeacons false
param *.node[*].appl.sendData true
param *.node[*].applType "\"Dummy\""
param *.node[*].mobilityType "\"TraCIMobility\""
param *.node[*].mobilityType.debug true
param *.node[*].veinsmobility.x 0
param *.node[*].veinsmobility.y 0
param *.node[*].veinsmobility.z 1.895
param *.node[*].veinsmobilityType "\"org.car2x.veins.modules.mobility.traci.TraCIMobility\""
param *.node[*].veinsmobilityType.debug true
param *.playgroundSizeX 8500m
param *.playgroundSizeY 8500m
param *.playgroundSizeZ 50m
param *.world.use2D false
param *.world.useTorus false

scalar IntersectionExampleScenario.node[1].appl 	VehicleRemoved 	0
scalar IntersectionExampleScenario.node[1].appl 	ArrivedAtDest 	1
scalar IntersectionExampleScenario.node[1].appl 	IntersectionEnterTime 	6.25
scalar IntersectionExampleScenario.node[1].appl 	IntersectionExitTime 	28.754177678755
scalar IntersectionExampleScenario.node[1].appl 	NumberOfCollisions 	0
scalar IntersectionExampleScenario.node[1].nic.phy80211p 	busyTime 	0
scalar IntersectionExampleScenario.node[1].nic.mac1609_4 	ReceivedUnicastPackets 	0
scalar IntersectionExampleScenario.node[1].nic.mac1609_4 	ReceivedBroadcasts 	0
scalar IntersectionExampleScenario.node[1].nic.mac1609_4 	SentPackets 	0
scalar IntersectionExampleScenario.node[1].nic.mac1609_4 	SNIRLostPackets 	0
scalar IntersectionExampleScenario.node[1].nic.mac1609_4 	RXTXLostPackets 	0
scalar IntersectionExampleScenario.node[1].nic.mac1609_4 	TotalLostPackets 	0
scalar IntersectionExampleScenario.node[1].nic.mac1609_4 	DroppedPacketsInMac 	0
scalar IntersectionExampleScenario.node[1].nic.mac1609_4 	TooLittleTime 	0
scalar IntersectionExampleScenario.node[1].nic.mac1609_4 	TimesIntoBackoff 	0
scalar IntersectionExampleScenario.node[1].nic.mac1609_4 	SlotsBackoff 	0
scalar IntersectionExampleScenario.node[1].nic.mac1609_4 	NumInternalContention 	0
scalar IntersectionExampleScenario.node[1].nic.mac1609_4 	totalBusyTime 	0
scalar IntersectionExampleScenario.node[1].veinsmobility 	startTime 	6.25
scalar IntersectionExampleScenario.node[1].veinsmobility 	totalTime 	38.25
scalar IntersectionExampleScenario.node[1].veinsmobility 	stopTime 	44.75
scalar IntersectionExampleScenario.node[1].veinsmobility 	minSpeed 	5.6500000953674
scalar IntersectionExampleScenario.node[1].veinsmobility 	maxSpeed 	16.125
scalar IntersectionExampleScenario.node[1].veinsmobility 	totalDistance 	554.53253173828
scalar IntersectionExampleScenario.node[1].veinsmobility 	totalCO2Emission 	120.14146876042
scalar IntersectionExampleScenario.node[0].appl 	VehicleRemoved 	0
scalar IntersectionExampleScenario.node[0].appl 	ArrivedAtDest 	1
scalar IntersectionExampleScenario.node[0].appl 	IntersectionEnterTime 	4.25
scalar IntersectionExampleScenario.node[0].appl 	IntersectionExitTime 	33.566717423586
scalar IntersectionExampleScenario.node[0].appl 	NumberOfCollisions 	0
scalar IntersectionExampleScenario.node[0].nic.phy80211p 	busyTime 	0
scalar IntersectionExampleScenario.node[0].nic.mac1609_4 	ReceivedUnicastPackets 	0
scalar IntersectionExampleScenario.node[0].nic.mac1609_4 	ReceivedBroadcasts 	0
scalar IntersectionExampleScenario.node[0].nic.mac1609_4 	SentPackets 	0
scalar IntersectionExampleScenario.node[0].nic.mac1609_4 	SNIRLostPackets 	0
scalar IntersectionExampleScenario.node[0].nic.mac1609_4 	RXTXLostPackets 	0
scalar IntersectionExampleScenario.node[0].nic.mac1609_4 	TotalLostPackets 	0
scalar IntersectionExampleScenario.node[0].nic.mac1609_4 	DroppedPacketsInMac 	0
scalar IntersectionExampleScenario.node[0].nic.mac1609_4 	TooLittleTime 	0
scalar IntersectionExampleScenario.node[0].nic.mac1609_4 	TimesIntoBackoff 	0
scalar IntersectionExampleScenario.node[0].nic.mac1609_4 	SlotsBackoff 	0
scalar IntersectionExampleScenario.node[0].nic.mac1609_4 	NumInternalContention 	0
scalar IntersectionExampleScenario.node[0].nic.mac1609_4 	totalBusyTime 	0
scalar IntersectionExampleScenario.node[0].veinsmobility 	startTime 	4.25
scalar IntersectionExampleScenario.node[0].veinsmobility 	totalTime 	46
scalar IntersectionExampleScenario.node[0].veinsmobility 	stopTime 	50.5
scalar IntersectionExampleScenario.node[0].veinsmobility 	minSpeed 	0
scalar IntersectionExampleScenario.node[0].veinsmobility 	maxSpeed 	15.64999961853
scalar IntersectionExampleScenario.node[0].veinsmobility 	totalDistance 	544.42739774138
scalar IntersectionExampleScenario.node[0].veinsmobility 	totalCO2Emission 	138.18049088446
scalar IntersectionExampleScenario.node[3].appl 	VehicleRemoved 	0
scalar IntersectionExampleScenario.node[3].appl 	ArrivedAtDest 	1
scalar IntersectionExampleScenario.node[3].appl 	IntersectionEnterTime 	16.25
scalar IntersectionExampleScenario.node[3].appl 	IntersectionExitTime 	39.565153253352
scalar IntersectionExampleScenario.node[3].appl 	NumberOfCollisions 	0
scalar IntersectionExampleScenario.node[3].nic.phy80211p 	busyTime 	0
scalar IntersectionExampleScenario.node[3].nic.mac1609_4 	ReceivedUnicastPackets 	0
scalar IntersectionExampleScenario.node[3].nic.mac1609_4 	ReceivedBroadcasts 	0
scalar IntersectionExampleScenario.node[3].nic.mac1609_4 	SentPackets 	0
scalar IntersectionExampleScenario.node[3].nic.mac1609_4 	SNIRLostPackets 	0
scalar IntersectionExampleScenario.node[3].nic.mac1609_4 	RXTXLostPackets 	0
scalar IntersectionExampleScenario.node[3].nic.mac1609_4 	TotalLostPackets 	0
scalar IntersectionExampleScenario.node[3].nic.mac1609_4 	DroppedPacketsInMac 	0
scalar IntersectionExampleScenario.node[3].nic.mac1609_4 	TooLittleTime 	0
scalar IntersectionExampleScenario.node[3].nic.mac1609_4 	TimesIntoBackoff 	0
scalar IntersectionExampleScenario.node[3].nic.mac1609_4 	SlotsBackoff 	0
scalar IntersectionExampleScenario.node[3].nic.mac1609_4 	NumInternalContention 	0
scalar IntersectionExampleScenario.node[3].nic.mac1609_4 	totalBusyTime 	0
scalar IntersectionExampleScenario.node[3].veinsmobility 	startTime 	16.25
scalar IntersectionExampleScenario.node[3].veinsmobility 	totalTime 	40
scalar IntersectionExampleScenario.node[3].veinsmobility 	stopTime 	56.5
scalar IntersectionExampleScenario.node[3].veinsmobility 	minSpeed 	5.6500000953674
scalar IntersectionExampleScenario.node[3].veinsmobility 	maxSpeed 	15.670515060425
scalar IntersectionExampleScenario.node[3].veinsmobility 	totalDistance 	545.675405341
scalar IntersectionExampleScenario.node[3].veinsmobility 	totalCO2Emission 	130.25548740057
scalar IntersectionExampleScenario.node[4].appl 	VehicleRemoved 	0
scalar IntersectionExampleScenario.node[4].appl 	ArrivedAtDest 	1
scalar IntersectionExampleScenario.node[4].appl 	IntersectionEnterTime 	16.25
scalar IntersectionExampleScenario.node[4].appl 	IntersectionExitTime 	41.02008959424
scalar IntersectionExampleScenario.node[4].appl 	NumberOfCollisions 	0
scalar IntersectionExampleScenario.node[4].nic.phy80211p 	busyTime 	0
scalar IntersectionExampleScenario.node[4].nic.mac1609_4 	ReceivedUnicastPackets 	0
scalar IntersectionExampleScenario.node[4].nic.mac1609_4 	ReceivedBroadcasts 	0
scalar IntersectionExampleScenario.node[4].nic.mac1609_4 	SentPackets 	0
scalar IntersectionExampleScenario.node[4].nic.mac1609_4 	SNIRLostPackets 	0
scalar IntersectionExampleScenario.node[4].nic.mac1609_4 	RXTXLostPackets 	0
scalar IntersectionExampleScenario.node[4].nic.mac1609_4 	TotalLostPackets 	0
scalar IntersectionExampleScenario.node[4].nic.mac1609_4 	DroppedPacketsInMac 	0
scalar IntersectionExampleScenario.node[4].nic.mac1609_4 	TooLittleTime 	0
scalar IntersectionExampleScenario.node[4].nic.mac1609_4 	TimesIntoBackoff 	0
scalar IntersectionExampleScenario.node[4].nic.mac1609_4 	SlotsBackoff 	0
scalar IntersectionExampleScenario.node[4].nic.mac1609_4 	NumInternalContention 	0
scalar IntersectionExampleScenario.node[4].nic.mac1609_4 	totalBusyTime 	0
scalar IntersectionExampleScenario.node[4].veinsmobility 	startTime 	16.25
scalar IntersectionExampleScenario.node[4].veinsmobility 	totalTime 	42.25
scalar IntersectionExampleScenario.node[4].veinsmobility 	stopTime 	58.75
scalar IntersectionExampleScenario.node[4].veinsmobility 	minSpeed 	5.6500000953674
scalar IntersectionExampleScenario.node[4].veinsmobility 	maxSpeed 	14.445489883423
scalar IntersectionExampleScenario.node[4].veinsmobility 	totalDistance 	550.82886218516
scalar IntersectionExampleScenario.node[4].veinsmobility 	totalCO2Emission 	120.54748306369
scalar IntersectionExampleScenario.node[6].appl 	VehicleRemoved 	0
scalar IntersectionExampleScenario.node[6].appl 	ArrivedAtDest 	1
scalar IntersectionExampleScenario.node[6].appl 	IntersectionEnterTime 	19.75
scalar IntersectionExampleScenario.node[6].appl 	IntersectionExitTime 	43.602021037368
scalar IntersectionExampleScenario.node[6].appl 	NumberOfCollisions 	0
scalar IntersectionExampleScenario.node[6].nic.phy80211p 	busyTime 	0
scalar IntersectionExampleScenario.node[6].nic.mac1609_4 	ReceivedUnicastPackets 	0
scalar IntersectionExampleScenario.node[6].nic.mac1609_4 	ReceivedBroadcasts 	0
scalar IntersectionExampleScenario.node[6].nic.mac1609_4 	SentPackets 	0
scalar IntersectionExampleScenario.node[6].nic.mac1609_4 	SNIRLostPackets 	0
scalar IntersectionExampleScenario.node[6].nic.mac1609_4 	RXTXLostPackets 	0
scalar IntersectionExampleScenario.node[6].nic.mac1609_4 	TotalLostPackets 	0
scalar IntersectionExampleScenario.node[6].nic.mac1609_4 	DroppedPacketsInMac 	0
scalar IntersectionExampleScenario.node[6].nic.mac1609_4 	TooLittleTime 	0
scalar IntersectionExampleScenario.node[6].nic.mac1609_4 	TimesIntoBackoff 	0
scalar IntersectionExampleScenario.node[6].nic.mac1609_4 	SlotsBackoff 	0
scalar IntersectionExampleScenario.node[6].nic.mac1609_4 	NumInternalContention 	0
scalar IntersectionExampleScenario.node[6].nic.mac1609_4 	totalBusyTime 	0
scalar IntersectionExampleScenario.node[6].veinsmobility 	startTime 	19.75
scalar IntersectionExampleScenario.node[6].veinsmobility 	totalTime 	40.25
scalar IntersectionExampleScenario.node[6].veinsmobility 	stopTime 	60.25
scalar IntersectionExampleScenario.node[6].veinsmobility 	minSpeed 	5.6500000953674
scalar IntersectionExampleScenario.node[6].veinsmobility 	maxSpeed 	15.722017288208
scalar IntersectionExampleScenario.node[6].veinsmobility 	totalDistance 	554.09893771209
scalar IntersectionExampleScenario.node[6].veinsmobility 	totalCO2Emission 	128.66928826588
scalar IntersectionExampleScenario.node[5].appl 	VehicleRemoved 	0
scalar IntersectionExampleScenario.node[5].appl 	ArrivedAtDest 	1
scalar IntersectionExampleScenario.node[5].appl 	IntersectionEnterTime 	17.75
scalar IntersectionExampleScenario.node[5].appl 	IntersectionExitTime 	49.26453412784
scalar IntersectionExampleScenario.node[5].appl 	NumberOfCollisions 	0
scalar IntersectionExampleScenario.node[5].nic.phy80211p 	busyTime 	0
scalar IntersectionExampleScenario.node[5].nic.mac1609_4 	ReceivedUnicastPackets 	0
scalar IntersectionExampleScenario.node[5].nic.mac1609_4 	ReceivedBroadcasts 	0
scalar IntersectionExampleScenario.node[5].nic.mac1609_4 	SentPackets 	0
scalar IntersectionExampleScenario.node[5].nic.mac1609_4 	SNIRLostPackets 	0
scalar IntersectionExampleScenario.node[5].nic.mac1609_4 	RXTXLostPackets 	0
scalar IntersectionExampleScenario.node[5].nic.mac1609_4 	TotalLostPackets 	0
scalar IntersectionExampleScenario.node[5].nic.mac1609_4 	DroppedPacketsInMac 	0
scalar IntersectionExampleScenario.node[5].nic.mac1609_4 	TooLittleTime 	0
scalar IntersectionExampleScenario.node[5].nic.mac1609_4 	TimesIntoBackoff 	0
scalar IntersectionExampleScenario.node[5].nic.mac1609_4 	SlotsBackoff 	0
scalar IntersectionExampleScenario.node[5].nic.mac1609_4 	NumInternalContention 	0
scalar IntersectionExampleScenario.node[5].nic.mac1609_4 	totalBusyTime 	0
scalar IntersectionExampleScenario.node[5].veinsmobility 	startTime 	17.75
scalar IntersectionExampleScenario.node[5].veinsmobility 	totalTime 	46.5
scalar IntersectionExampleScenario.node[5].veinsmobility 	stopTime 	64.5
scalar IntersectionExampleScenario.node[5].veinsmobility 	minSpeed 	0
scalar IntersectionExampleScenario.node[5].veinsmobility 	maxSpeed 	16.625
scalar IntersectionExampleScenario.node[5].veinsmobility 	totalDistance 	551.36891174316
scalar IntersectionExampleScenario.node[5].veinsmobility 	totalCO2Emission 	147.60070828151
scalar IntersectionExampleScenario.node[2].appl 	VehicleRemoved 	0
scalar IntersectionExampleScenario.node[2].appl 	ArrivedAtDest 	1
scalar IntersectionExampleScenario.node[2].appl 	IntersectionEnterTime 	11.25
scalar IntersectionExampleScenario.node[2].appl 	IntersectionExitTime 	49.325760397362
scalar IntersectionExampleScenario.node[2].appl 	NumberOfCollisions 	0
scalar IntersectionExampleScenario.node[2].nic.phy80211p 	busyTime 	0
scalar IntersectionExampleScenario.node[2].nic.mac1609_4 	ReceivedUnicastPackets 	0
scalar IntersectionExampleScenario.node[2].nic.mac1609_4 	ReceivedBroadcasts 	0
scalar IntersectionExampleScenario.node[2].nic.mac1609_4 	SentPackets 	0
scalar IntersectionExampleScenario.node[2].nic.mac1609_4 	SNIRLostPackets 	0
scalar IntersectionExampleScenario.node[2].nic.mac1609_4 	RXTXLostPackets 	0
scalar IntersectionExampleScenario.node[2].nic.mac1609_4 	TotalLostPackets 	0
scalar IntersectionExampleScenario.node[2].nic.mac1609_4 	DroppedPacketsInMac 	0
scalar IntersectionExampleScenario.node[2].nic.mac1609_4 	TooLittleTime 	0
scalar IntersectionExampleScenario.node[2].nic.mac1609_4 	TimesIntoBackoff 	0
scalar IntersectionExampleScenario.node[2].nic.mac1609_4 	SlotsBackoff 	0
scalar IntersectionExampleScenario.node[2].nic.mac1609_4 	NumInternalContention 	0
scalar IntersectionExampleScenario.node[2].nic.mac1609_4 	totalBusyTime 	0
scalar IntersectionExampleScenario.node[2].veinsmobility 	startTime 	11.25
scalar IntersectionExampleScenario.node[2].veinsmobility 	totalTime 	54.25
scalar IntersectionExampleScenario.node[2].veinsmobility 	stopTime 	65.75
scalar IntersectionExampleScenario.node[2].veinsmobility 	minSpeed 	0
scalar IntersectionExampleScenario.node[2].veinsmobility 	maxSpeed 	15.375
scalar IntersectionExampleScenario.node[2].veinsmobility 	totalDistance 	552.79929351807
scalar IntersectionExampleScenario.node[2].veinsmobility 	totalCO2Emission 	145.31683802521
scalar IntersectionExampleScenario.node[7].appl 	VehicleRemoved 	0
scalar IntersectionExampleScenario.node[7].appl 	ArrivedAtDest 	1
scalar IntersectionExampleScenario.node[7].appl 	IntersectionEnterTime 	19.75
scalar IntersectionExampleScenario.node[7].appl 	IntersectionExitTime 	50.290946183843
scalar IntersectionExampleScenario.node[7].appl 	NumberOfCollisions 	0
scalar IntersectionExampleScenario.node[7].nic.phy80211p 	busyTime 	0
scalar IntersectionExampleScenario.node[7].nic.mac1609_4 	ReceivedUnicastPackets 	0
scalar IntersectionExampleScenario.node[7].nic.mac1609_4 	ReceivedBroadcasts 	0
scalar IntersectionExampleScenario.node[7].nic.mac1609_4 	SentPackets 	0
scalar IntersectionExampleScenario.node[7].nic.mac1609_4 	SNIRLostPackets 	0
scalar IntersectionExampleScenario.node[7].nic.mac1609_4 	RXTXLostPackets 	0
scalar IntersectionExampleScenario.node[7].nic.mac1609_4 	TotalLostPackets 	0
scalar IntersectionExampleScenario.node[7].nic.mac1609_4 	DroppedPacketsInMac 	0
scalar IntersectionExampleScenario.node[7].nic.mac1609_4 	TooLittleTime 	0
scalar IntersectionExampleScenario.node[7].nic.mac1609_4 	TimesIntoBackoff 	0
scalar IntersectionExampleScenario.node[7].nic.mac1609_4 	SlotsBackoff 	0
scalar IntersectionExampleScenario.node[7].nic.mac1609_4 	NumInternalContention 	0
scalar IntersectionExampleScenario.node[7].nic.mac1609_4 	totalBusyTime 	0
scalar IntersectionExampleScenario.node[7].veinsmobility 	startTime 	19.75
scalar IntersectionExampleScenario.node[7].veinsmobility 	totalTime 	46.5
scalar IntersectionExampleScenario.node[7].veinsmobility 	stopTime 	66.5
scalar IntersectionExampleScenario.node[7].veinsmobility 	minSpeed 	0
scalar IntersectionExampleScenario.node[7].veinsmobility 	maxSpeed 	16
scalar IntersectionExampleScenario.node[7].veinsmobility 	totalDistance 	568.02978430111
scalar IntersectionExampleScenario.node[7].veinsmobility 	totalCO2Emission 	141.87535699713
scalar IntersectionExampleScenario.node[10].appl 	VehicleRemoved 	0
scalar IntersectionExampleScenario.node[10].appl 	ArrivedAtDest 	1
scalar IntersectionExampleScenario.node[10].appl 	IntersectionEnterTime 	38.75
scalar IntersectionExampleScenario.node[10].appl 	IntersectionExitTime 	62.283571971871
scalar IntersectionExampleScenario.node[10].appl 	NumberOfCollisions 	0
scalar IntersectionExampleScenario.node[10].nic.phy80211p 	busyTime 	0
scalar IntersectionExampleScenario.node[10].nic.mac1609_4 	ReceivedUnicastPackets 	0
scalar IntersectionExampleScenario.node[10].nic.mac1609_4 	ReceivedBroadcasts 	0
scalar IntersectionExampleScenario.node[10].nic.mac1609_4 	SentPackets 	0
scalar IntersectionExampleScenario.node[10].nic.mac1609_4 	SNIRLostPackets 	0
scalar IntersectionExampleScenario.node[10].nic.mac1609_4 	RXTXLostPackets 	0
scalar IntersectionExampleScenario.node[10].nic.mac1609_4 	TotalLostPackets 	0
scalar IntersectionExampleScenario.node[10].nic.mac1609_4 	DroppedPacketsInMac 	0
scalar IntersectionExampleScenario.node[10].nic.mac1609_4 	TooLittleTime 	0
scalar IntersectionExampleScenario.node[10].nic.mac1609_4 	TimesIntoBackoff 	0
scalar IntersectionExampleScenario.node[10].nic.mac1609_4 	SlotsBackoff 	0
scalar IntersectionExampleScenario.node[10].nic.mac1609_4 	NumInternalContention 	0
scalar IntersectionExampleScenario.node[10].nic.mac1609_4 	totalBusyTime 	0
scalar IntersectionExampleScenario.node[10].veinsmobility 	startTime 	38.75
scalar IntersectionExampleScenario.node[10].veinsmobility 	totalTime 	40.25
scalar IntersectionExampleScenario.node[10].veinsmobility 	stopTime 	79.25
scalar IntersectionExampleScenario.node[10].veinsmobility 	minSpeed 	5.6500000953674
scalar IntersectionExampleScenario.node[10].veinsmobility 	maxSpeed 	15.375
scalar IntersectionExampleScenario.node[10].veinsmobility 	totalDistance 	551.98641173244
scalar IntersectionExampleScenario.node[10].veinsmobility 	totalCO2Emission 	120.88968681036
scalar IntersectionExampleScenario.node[8].appl 	VehicleRemoved 	0
scalar IntersectionExampleScenario.node[8].appl 	ArrivedAtDest 	1
scalar IntersectionExampleScenario.node[8].appl 	IntersectionEnterTime 	35.75
scalar IntersectionExampleScenario.node[8].appl 	IntersectionExitTime 	64.368789190543
scalar IntersectionExampleScenario.node[8].appl 	NumberOfCollisions 	0
scalar IntersectionExampleScenario.node[8].nic.phy80211p 	busyTime 	0
scalar IntersectionExampleScenario.node[8].nic.mac1609_4 	ReceivedUnicastPackets 	0
scalar IntersectionExampleScenario.node[8].nic.mac1609_4 	ReceivedBroadcasts 	0
scalar IntersectionExampleScenario.node[8].nic.mac1609_4 	SentPackets 	0
scalar IntersectionExampleScenario.node[8].nic.mac1609_4 	SNIRLostPackets 	0
scalar IntersectionExampleScenario.node[8].nic.mac1609_4 	RXTXLostPackets 	0
scalar IntersectionExampleScenario.node[8].nic.mac1609_4 	TotalLostPackets 	0
scalar IntersectionExampleScenario.node[8].nic.mac1609_4 	DroppedPacketsInMac 	0
scalar IntersectionExampleScenario.node[8].nic.mac1609_4 	TooLittleTime 	0
scalar IntersectionExampleScenario.node[8].nic.mac1609_4 	TimesIntoBackoff 	0
scalar IntersectionExampleScenario.node[8].nic.mac1609_4 	SlotsBackoff 	0
scalar IntersectionExampleScenario.node[8].nic.mac1609_4 	NumInternalContention 	0
scalar IntersectionExampleScenario.node[8].nic.mac1609_4 	totalBusyTime 	0
scalar IntersectionExampleScenario.node[8].veinsmobility 	startTime 	35.75
scalar IntersectionExampleScenario.node[8].veinsmobility 	totalTime 	44.25
scalar IntersectionExampleScenario.node[8].veinsmobility 	stopTime 	80.25
scalar IntersectionExampleScenario.node[8].veinsmobility 	minSpeed 	0
scalar IntersectionExampleScenario.node[8].veinsmobility 	maxSpeed 	16
scalar IntersectionExampleScenario.node[8].veinsmobility 	totalDistance 	549.90855516543
scalar IntersectionExampleScenario.node[8].veinsmobility 	totalCO2Emission 	139.28391334589
scalar IntersectionExampleScenario.node[9].appl 	VehicleRemoved 	0
scalar IntersectionExampleScenario.node[9].appl 	ArrivedAtDest 	1
scalar IntersectionExampleScenario.node[9].appl 	IntersectionEnterTime 	37.25
scalar IntersectionExampleScenario.node[9].appl 	IntersectionExitTime 	66.056413551152
scalar IntersectionExampleScenario.node[9].appl 	NumberOfCollisions 	0
scalar IntersectionExampleScenario.node[9].nic.phy80211p 	busyTime 	0
scalar IntersectionExampleScenario.node[9].nic.mac1609_4 	ReceivedUnicastPackets 	0
scalar IntersectionExampleScenario.node[9].nic.mac1609_4 	ReceivedBroadcasts 	0
scalar IntersectionExampleScenario.node[9].nic.mac1609_4 	SentPackets 	0
scalar IntersectionExampleScenario.node[9].nic.mac1609_4 	SNIRLostPackets 	0
scalar IntersectionExampleScenario.node[9].nic.mac1609_4 	RXTXLostPackets 	0
scalar IntersectionExampleScenario.node[9].nic.mac1609_4 	TotalLostPackets 	0
scalar IntersectionExampleScenario.node[9].nic.mac1609_4 	DroppedPacketsInMac 	0
scalar IntersectionExampleScenario.node[9].nic.mac1609_4 	TooLittleTime 	0
scalar IntersectionExampleScenario.node[9].nic.mac1609_4 	TimesIntoBackoff 	0
scalar IntersectionExampleScenario.node[9].nic.mac1609_4 	SlotsBackoff 	0
scalar IntersectionExampleScenario.node[9].nic.mac1609_4 	NumInternalContention 	0
scalar IntersectionExampleScenario.node[9].nic.mac1609_4 	totalBusyTime 	0
scalar IntersectionExampleScenario.node[9].veinsmobility 	startTime 	37.25
scalar IntersectionExampleScenario.node[9].veinsmobility 	totalTime 	44.75
scalar IntersectionExampleScenario.node[9].veinsmobility 	stopTime 	82.25
scalar IntersectionExampleScenario.node[9].veinsmobility 	minSpeed 	1.0974249839783
scalar IntersectionExampleScenario.node[9].veinsmobility 	maxSpeed 	16
scalar IntersectionExampleScenario.node[9].veinsmobility 	totalDistance 	571.54082310598
scalar IntersectionExampleScenario.node[9].veinsmobility 	totalCO2Emission 	141.78425361496
scalar IntersectionExampleScenario.node[12].appl 	VehicleRemoved 	0
scalar IntersectionExampleScenario.node[12].appl 	ArrivedAtDest 	1
scalar IntersectionExampleScenario.node[12].appl 	IntersectionEnterTime 	44.25
scalar IntersectionExampleScenario.node[12].appl 	IntersectionExitTime 	68.532987838233
scalar IntersectionExampleScenario.node[12].appl 	NumberOfCollisions 	0
scalar IntersectionExampleScenario.node[12].nic.phy80211p 	busyTime 	0
scalar IntersectionExampleScenario.node[12].nic.mac1609_4 	ReceivedUnicastPackets 	0
scalar IntersectionExampleScenario.node[12].nic.mac1609_4 	ReceivedBroadcasts 	0
scalar IntersectionExampleScenario.node[12].nic.mac1609_4 	SentPackets 	0
scalar IntersectionExampleScenario.node[12].nic.mac1609_4 	SNIRLostPackets 	0
scalar IntersectionExampleScenario.node[12].nic.mac1609_4 	RXTXLostPackets 	0
scalar IntersectionExampleScenario.node[12].nic.mac1609_4 	TotalLostPackets 	0
scalar IntersectionExampleScenario.node[12].nic.mac1609_4 	DroppedPacketsInMac 	0
scalar IntersectionExampleScenario.node[12].nic.mac1609_4 	TooLittleTime 	0
scalar IntersectionExampleScenario.node[12].nic.mac1609_4 	TimesIntoBackoff 	0
scalar IntersectionExampleScenario.node[12].nic.mac1609_4 	SlotsBackoff 	0
scalar IntersectionExampleScenario.node[12].nic.mac1609_4 	NumInternalContention 	0
scalar IntersectionExampleScenario.node[12].nic.mac1609_4 	totalBusyTime 	0
scalar IntersectionExampleScenario.node[12].veinsmobility 	startTime 	44.25
scalar IntersectionExampleScenario.node[12].veinsmobility 	totalTime 	40.5
scalar IntersectionExampleScenario.node[12].veinsmobility 	stopTime 	85
scalar IntersectionExampleScenario.node[12].veinsmobility 	minSpeed 	5.6500000953674
scalar IntersectionExampleScenario.node[12].veinsmobility 	maxSpeed 	15.304925918579
scalar IntersectionExampleScenario.node[12].veinsmobility 	totalDistance 	551.90769195557
scalar IntersectionExampleScenario.node[12].veinsmobility 	totalCO2Emission 	127.93612793636
scalar IntersectionExampleScenario.node[13].appl 	VehicleRemoved 	0
scalar IntersectionExampleScenario.node[13].appl 	ArrivedAtDest 	1
scalar IntersectionExampleScenario.node[13].appl 	IntersectionEnterTime 	44.5
scalar IntersectionExampleScenario.node[13].appl 	IntersectionExitTime 	71.055399946577
scalar IntersectionExampleScenario.node[13].appl 	NumberOfCollisions 	0
scalar IntersectionExampleScenario.node[13].nic.phy80211p 	busyTime 	0
scalar IntersectionExampleScenario.node[13].nic.mac1609_4 	ReceivedUnicastPackets 	0
scalar IntersectionExampleScenario.node[13].nic.mac1609_4 	ReceivedBroadcasts 	0
scalar IntersectionExampleScenario.node[13].nic.mac1609_4 	SentPackets 	0
scalar IntersectionExampleScenario.node[13].nic.mac1609_4 	SNIRLostPackets 	0
scalar IntersectionExampleScenario.node[13].nic.mac1609_4 	RXTXLostPackets 	0
scalar IntersectionExampleScenario.node[13].nic.mac1609_4 	TotalLostPackets 	0
scalar IntersectionExampleScenario.node[13].nic.mac1609_4 	DroppedPacketsInMac 	0
scalar IntersectionExampleScenario.node[13].nic.mac1609_4 	TooLittleTime 	0
scalar IntersectionExampleScenario.node[13].nic.mac1609_4 	TimesIntoBackoff 	0
scalar IntersectionExampleScenario.node[13].nic.mac1609_4 	SlotsBackoff 	0
scalar IntersectionExampleScenario.node[13].nic.mac1609_4 	NumInternalContention 	0
scalar IntersectionExampleScenario.node[13].nic.mac1609_4 	totalBusyTime 	0
scalar IntersectionExampleScenario.node[13].veinsmobility 	startTime 	44.5
scalar IntersectionExampleScenario.node[13].veinsmobility 	totalTime 	43
scalar IntersectionExampleScenario.node[13].veinsmobility 	stopTime 	87.75
scalar IntersectionExampleScenario.node[13].veinsmobility 	minSpeed 	5.6500000953674
scalar IntersectionExampleScenario.node[13].veinsmobility 	maxSpeed 	15.375
scalar IntersectionExampleScenario.node[13].veinsmobility 	totalDistance 	575.11797631208
scalar IntersectionExampleScenario.node[13].veinsmobility 	totalCO2Emission 	140.03265588366
scalar IntersectionExampleScenario.node[14].appl 	VehicleRemoved 	0
scalar IntersectionExampleScenario.node[14].appl 	ArrivedAtDest 	1
scalar IntersectionExampleScenario.node[14].appl 	IntersectionEnterTime 	48
scalar IntersectionExampleScenario.node[14].appl 	IntersectionExitTime 	71.551277651626
scalar IntersectionExampleScenario.node[14].appl 	NumberOfCollisions 	0
scalar IntersectionExampleScenario.node[14].nic.phy80211p 	busyTime 	0
scalar IntersectionExampleScenario.node[14].nic.mac1609_4 	ReceivedUnicastPackets 	0
scalar IntersectionExampleScenario.node[14].nic.mac1609_4 	ReceivedBroadcasts 	0
scalar IntersectionExampleScenario.node[14].nic.mac1609_4 	SentPackets 	0
scalar IntersectionExampleScenario.node[14].nic.mac1609_4 	SNIRLostPackets 	0
scalar IntersectionExampleScenario.node[14].nic.mac1609_4 	RXTXLostPackets 	0
scalar IntersectionExampleScenario.node[14].nic.mac1609_4 	TotalLostPackets 	0
scalar IntersectionExampleScenario.node[14].nic.mac1609_4 	DroppedPacketsInMac 	0
scalar IntersectionExampleScenario.node[14].nic.mac1609_4 	TooLittleTime 	0
scalar IntersectionExampleScenario.node[14].nic.mac1609_4 	TimesIntoBackoff 	0
scalar IntersectionExampleScenario.node[14].nic.mac1609_4 	SlotsBackoff 	0
scalar IntersectionExampleScenario.node[14].nic.mac1609_4 	NumInternalContention 	0
scalar IntersectionExampleScenario.node[14].nic.mac1609_4 	totalBusyTime 	0
scalar IntersectionExampleScenario.node[14].veinsmobility 	startTime 	48
scalar IntersectionExampleScenario.node[14].veinsmobility 	totalTime 	40
scalar IntersectionExampleScenario.node[14].veinsmobility 	stopTime 	88.25
scalar IntersectionExampleScenario.node[14].veinsmobility 	minSpeed 	5.6500000953674
scalar IntersectionExampleScenario.node[14].veinsmobility 	maxSpeed 	15.375
scalar IntersectionExampleScenario.node[14].veinsmobility 	totalDistance 	550.34830487497
scalar IntersectionExampleScenario.node[14].veinsmobility 	totalCO2Emission 	121.11181003779
scalar IntersectionExampleScenario.node[11].appl 	VehicleRemoved 	0
scalar IntersectionExampleScenario.node[11].appl 	ArrivedAtDest 	1
scalar IntersectionExampleScenario.node[11].appl 	IntersectionEnterTime 	39.75
scalar IntersectionExampleScenario.node[11].appl 	IntersectionExitTime 	78.502571544261
scalar IntersectionExampleScenario.node[11].appl 	NumberOfCollisions 	0
scalar IntersectionExampleScenario.node[11].nic.phy80211p 	busyTime 	0
scalar IntersectionExampleScenario.node[11].nic.mac1609_4 	ReceivedUnicastPackets 	0
scalar IntersectionExampleScenario.node[11].nic.mac1609_4 	ReceivedBroadcasts 	0
scalar IntersectionExampleScenario.node[11].nic.mac1609_4 	SentPackets 	0
scalar IntersectionExampleScenario.node[11].nic.mac1609_4 	SNIRLostPackets 	0
scalar IntersectionExampleScenario.node[11].nic.mac1609_4 	RXTXLostPackets 	0
scalar IntersectionExampleScenario.node[11].nic.mac1609_4 	TotalLostPackets 	0
scalar IntersectionExampleScenario.node[11].nic.mac1609_4 	DroppedPacketsInMac 	0
scalar IntersectionExampleScenario.node[11].nic.mac1609_4 	TooLittleTime 	0
scalar IntersectionExampleScenario.node[11].nic.mac1609_4 	TimesIntoBackoff 	0
scalar IntersectionExampleScenario.node[11].nic.mac1609_4 	SlotsBackoff 	0
scalar IntersectionExampleScenario.node[11].nic.mac1609_4 	NumInternalContention 	0
scalar IntersectionExampleScenario.node[11].nic.mac1609_4 	totalBusyTime 	0
scalar IntersectionExampleScenario.node[11].veinsmobility 	startTime 	39.75
scalar IntersectionExampleScenario.node[11].veinsmobility 	totalTime 	55.75
scalar IntersectionExampleScenario.node[11].veinsmobility 	stopTime 	95.75
scalar IntersectionExampleScenario.node[11].veinsmobility 	minSpeed 	0
scalar IntersectionExampleScenario.node[11].veinsmobility 	maxSpeed 	15.25
scalar IntersectionExampleScenario.node[11].veinsmobility 	totalDistance 	567.17767239959
scalar IntersectionExampleScenario.node[11].veinsmobility 	totalCO2Emission 	151.41093253268
scalar IntersectionExampleScenario.node[15].appl 	VehicleRemoved 	0
scalar IntersectionExampleScenario.node[15].appl 	ArrivedAtDest 	1
scalar IntersectionExampleScenario.node[15].appl 	IntersectionEnterTime 	58.75
scalar IntersectionExampleScenario.node[15].appl 	IntersectionExitTime 	82.836690932483
scalar IntersectionExampleScenario.node[15].appl 	NumberOfCollisions 	0
scalar IntersectionExampleScenario.node[15].nic.phy80211p 	busyTime 	0
scalar IntersectionExampleScenario.node[15].nic.mac1609_4 	ReceivedUnicastPackets 	0
scalar IntersectionExampleScenario.node[15].nic.mac1609_4 	ReceivedBroadcasts 	0
scalar IntersectionExampleScenario.node[15].nic.mac1609_4 	SentPackets 	0
scalar IntersectionExampleScenario.node[15].nic.mac1609_4 	SNIRLostPackets 	0
scalar IntersectionExampleScenario.node[15].nic.mac1609_4 	RXTXLostPackets 	0
scalar IntersectionExampleScenario.node[15].nic.mac1609_4 	TotalLostPackets 	0
scalar IntersectionExampleScenario.node[15].nic.mac1609_4 	DroppedPacketsInMac 	0
scalar IntersectionExampleScenario.node[15].nic.mac1609_4 	TooLittleTime 	0
scalar IntersectionExampleScenario.node[15].nic.mac1609_4 	TimesIntoBackoff 	0
scalar IntersectionExampleScenario.node[15].nic.mac1609_4 	SlotsBackoff 	0
scalar IntersectionExampleScenario.node[15].nic.mac1609_4 	NumInternalContention 	0
scalar IntersectionExampleScenario.node[15].nic.mac1609_4 	totalBusyTime 	0
scalar IntersectionExampleScenario.node[15].veinsmobility 	startTime 	58.75
scalar IntersectionExampleScenario.node[15].veinsmobility 	totalTime 	40.5
scalar IntersectionExampleScenario.node[15].veinsmobility 	stopTime 	99.5
scalar IntersectionExampleScenario.node[15].veinsmobility 	minSpeed 	5.6500000953674
scalar IntersectionExampleScenario.node[15].veinsmobility 	maxSpeed 	15.523971557617
scalar IntersectionExampleScenario.node[15].veinsmobility 	totalDistance 	549.94099425297
scalar IntersectionExampleScenario.node[15].veinsmobility 	totalCO2Emission 	133.56085286755
scalar IntersectionExampleScenario.node[17].appl 	VehicleRemoved 	0
scalar IntersectionExampleScenario.node[17].appl 	ArrivedAtDest 	1
scalar IntersectionExampleScenario.node[17].appl 	IntersectionEnterTime 	68.25
scalar IntersectionExampleScenario.node[17].appl 	IntersectionExitTime 	91.779152333096
scalar IntersectionExampleScenario.node[17].appl 	NumberOfCollisions 	0
scalar IntersectionExampleScenario.node[17].nic.phy80211p 	busyTime 	0
scalar IntersectionExampleScenario.node[17].nic.mac1609_4 	ReceivedUnicastPackets 	0
scalar IntersectionExampleScenario.node[17].nic.mac1609_4 	ReceivedBroadcasts 	0
scalar IntersectionExampleScenario.node[17].nic.mac1609_4 	SentPackets 	0
scalar IntersectionExampleScenario.node[17].nic.mac1609_4 	SNIRLostPackets 	0
scalar IntersectionExampleScenario.node[17].nic.mac1609_4 	RXTXLostPackets 	0
scalar IntersectionExampleScenario.node[17].nic.mac1609_4 	TotalLostPackets 	0
scalar IntersectionExampleScenario.node[17].nic.mac1609_4 	DroppedPacketsInMac 	0
scalar IntersectionExampleScenario.node[17].nic.mac1609_4 	TooLittleTime 	0
scalar IntersectionExampleScenario.node[17].nic.mac1609_4 	TimesIntoBackoff 	0
scalar IntersectionExampleScenario.node[17].nic.mac1609_4 	SlotsBackoff 	0
scalar IntersectionExampleScenario.node[17].nic.mac1609_4 	NumInternalContention 	0
scalar IntersectionExampleScenario.node[17].nic.mac1609_4 	totalBusyTime 	0
scalar IntersectionExampleScenario.node[17].veinsmobility 	startTime 	68.25
scalar IntersectionExampleScenario.node[17].veinsmobility 	totalTime 	40
scalar IntersectionExampleScenario.node[17].veinsmobility 	stopTime 	108.5
scalar IntersectionExampleScenario.node[17].veinsmobility 	minSpeed 	5.6500000953674
scalar IntersectionExampleScenario.node[17].veinsmobility 	maxSpeed 	15.375
scalar IntersectionExampleScenario.node[17].veinsmobility 	totalDistance 	550.87935907131
scalar IntersectionExampleScenario.node[17].veinsmobility 	totalCO2Emission 	121.213193859
scalar IntersectionExampleScenario.node[16].appl 	VehicleRemoved 	0
scalar IntersectionExampleScenario.node[16].appl 	ArrivedAtDest 	1
scalar IntersectionExampleScenario.node[16].appl 	IntersectionEnterTime 	63.75
scalar IntersectionExampleScenario.node[16].appl 	IntersectionExitTime 	94.322595971811
scalar IntersectionExampleScenario.node[16].appl 	NumberOfCollisions 	0
scalar IntersectionExampleScenario.node[16].nic.phy80211p 	busyTime 	0
scalar IntersectionExampleScenario.node[16].nic.mac1609_4 	ReceivedUnicastPackets 	0
scalar IntersectionExampleScenario.node[16].nic.mac1609_4 	ReceivedBroadcasts 	0
scalar IntersectionExampleScenario.node[16].nic.mac1609_4 	SentPackets 	0
scalar IntersectionExampleScenario.node[16].nic.mac1609_4 	SNIRLostPackets 	0
scalar IntersectionExampleScenario.node[16].nic.mac1609_4 	RXTXLostPackets 	0
scalar IntersectionExampleScenario.node[16].nic.mac1609_4 	TotalLostPackets 	0
scalar IntersectionExampleScenario.node[16].nic.mac1609_4 	DroppedPacketsInMac 	0
scalar IntersectionExampleScenario.node[16].nic.mac1609_4 	TooLittleTime 	0
scalar IntersectionExampleScenario.node[16].nic.mac1609_4 	TimesIntoBackoff 	0
scalar IntersectionExampleScenario.node[16].nic.mac1609_4 	SlotsBackoff 	0
scalar IntersectionExampleScenario.node[16].nic.mac1609_4 	NumInternalContention 	0
scalar IntersectionExampleScenario.node[16].nic.mac1609_4 	totalBusyTime 	0
scalar IntersectionExampleScenario.node[16].veinsmobility 	startTime 	63.75
scalar IntersectionExampleScenario.node[16].veinsmobility 	totalTime 	46.25
scalar IntersectionExampleScenario.node[16].veinsmobility 	stopTime 	110.25
scalar IntersectionExampleScenario.node[16].veinsmobility 	minSpeed 	0
scalar IntersectionExampleScenario.node[16].veinsmobility 	maxSpeed 	16.27499961853
scalar IntersectionExampleScenario.node[16].veinsmobility 	totalDistance 	551.4950953876
scalar IntersectionExampleScenario.node[16].veinsmobility 	totalCO2Emission 	142.88348038682
scalar IntersectionExampleScenario.node[19].appl 	VehicleRemoved 	0
scalar IntersectionExampleScenario.node[19].appl 	ArrivedAtDest 	1
scalar IntersectionExampleScenario.node[19].appl 	IntersectionEnterTime 	72.25
scalar IntersectionExampleScenario.node[19].appl 	IntersectionExitTime 	96.869311389455
scalar IntersectionExampleScenario.node[19].appl 	NumberOfCollisions 	0
scalar IntersectionExampleScenario.node[19].nic.phy80211p 	busyTime 	0
scalar IntersectionExampleScenario.node[19].nic.mac1609_4 	ReceivedUnicastPackets 	0
scalar IntersectionExampleScenario.node[19].nic.mac1609_4 	ReceivedBroadcasts 	0
scalar IntersectionExampleScenario.node[19].nic.mac1609_4 	SentPackets 	0
scalar IntersectionExampleScenario.node[19].nic.mac1609_4 	SNIRLostPackets 	0
scalar IntersectionExampleScenario.node[19].nic.mac1609_4 	RXTXLostPackets 	0
scalar IntersectionExampleScenario.node[19].nic.mac1609_4 	TotalLostPackets 	0
scalar IntersectionExampleScenario.node[19].nic.mac1609_4 	DroppedPacketsInMac 	0
scalar IntersectionExampleScenario.node[19].nic.mac1609_4 	TooLittleTime 	0
scalar IntersectionExampleScenario.node[19].nic.mac1609_4 	TimesIntoBackoff 	0
scalar IntersectionExampleScenario.node[19].nic.mac1609_4 	SlotsBackoff 	0
scalar IntersectionExampleScenario.node[19].nic.mac1609_4 	NumInternalContention 	0
scalar IntersectionExampleScenario.node[19].nic.mac1609_4 	totalBusyTime 	0
scalar IntersectionExampleScenario.node[19].veinsmobility 	startTime 	72.25
scalar IntersectionExampleScenario.node[19].veinsmobility 	totalTime 	40.75
scalar IntersectionExampleScenario.node[19].veinsmobility 	stopTime 	113.25
scalar IntersectionExampleScenario.node[19].veinsmobility 	minSpeed 	5.6500000953674
scalar IntersectionExampleScenario.node[19].veinsmobility 	maxSpeed 	15.5
scalar IntersectionExampleScenario.node[19].veinsmobility 	totalDistance 	552.51512145996
scalar IntersectionExampleScenario.node[19].veinsmobility 	totalCO2Emission 	133.45243651693
scalar IntersectionExampleScenario.node[21].appl 	VehicleRemoved 	0
scalar IntersectionExampleScenario.node[21].appl 	ArrivedAtDest 	1
scalar IntersectionExampleScenario.node[21].appl 	IntersectionEnterTime 	75.5
scalar IntersectionExampleScenario.node[21].appl 	IntersectionExitTime 	100.07742793372
scalar IntersectionExampleScenario.node[21].appl 	NumberOfCollisions 	0
scalar IntersectionExampleScenario.node[21].nic.phy80211p 	busyTime 	0
scalar IntersectionExampleScenario.node[21].nic.mac1609_4 	ReceivedUnicastPackets 	0
scalar IntersectionExampleScenario.node[21].nic.mac1609_4 	ReceivedBroadcasts 	0
scalar IntersectionExampleScenario.node[21].nic.mac1609_4 	SentPackets 	0
scalar IntersectionExampleScenario.node[21].nic.mac1609_4 	SNIRLostPackets 	0
scalar IntersectionExampleScenario.node[21].nic.mac1609_4 	RXTXLostPackets 	0
scalar IntersectionExampleScenario.node[21].nic.mac1609_4 	TotalLostPackets 	0
scalar IntersectionExampleScenario.node[21].nic.mac1609_4 	DroppedPacketsInMac 	0
scalar IntersectionExampleScenario.node[21].nic.mac1609_4 	TooLittleTime 	0
scalar IntersectionExampleScenario.node[21].nic.mac1609_4 	TimesIntoBackoff 	0
scalar IntersectionExampleScenario.node[21].nic.mac1609_4 	SlotsBackoff 	0
scalar IntersectionExampleScenario.node[21].nic.mac1609_4 	NumInternalContention 	0
scalar IntersectionExampleScenario.node[21].nic.mac1609_4 	totalBusyTime 	0
scalar IntersectionExampleScenario.node[21].veinsmobility 	startTime 	75.5
scalar IntersectionExampleScenario.node[21].veinsmobility 	totalTime 	41
scalar IntersectionExampleScenario.node[21].veinsmobility 	stopTime 	116.75
scalar IntersectionExampleScenario.node[21].veinsmobility 	minSpeed 	5.6500000953674
scalar IntersectionExampleScenario.node[21].veinsmobility 	maxSpeed 	15.875
scalar IntersectionExampleScenario.node[21].veinsmobility 	totalDistance 	557.0735803629
scalar IntersectionExampleScenario.node[21].veinsmobility 	totalCO2Emission 	136.78870053864
scalar IntersectionExampleScenario.node[20].appl 	VehicleRemoved 	0
scalar IntersectionExampleScenario.node[20].appl 	ArrivedAtDest 	1
scalar IntersectionExampleScenario.node[20].appl 	IntersectionEnterTime 	72.5
scalar IntersectionExampleScenario.node[20].appl 	IntersectionExitTime 	108.61770471395
scalar IntersectionExampleScenario.node[20].appl 	NumberOfCollisions 	0
scalar IntersectionExampleScenario.node[20].nic.phy80211p 	busyTime 	0
scalar IntersectionExampleScenario.node[20].nic.mac1609_4 	ReceivedUnicastPackets 	0
scalar IntersectionExampleScenario.node[20].nic.mac1609_4 	ReceivedBroadcasts 	0
scalar IntersectionExampleScenario.node[20].nic.mac1609_4 	SentPackets 	0
scalar IntersectionExampleScenario.node[20].nic.mac1609_4 	SNIRLostPackets 	0
scalar IntersectionExampleScenario.node[20].nic.mac1609_4 	RXTXLostPackets 	0
scalar IntersectionExampleScenario.node[20].nic.mac1609_4 	TotalLostPackets 	0
scalar IntersectionExampleScenario.node[20].nic.mac1609_4 	DroppedPacketsInMac 	0
scalar IntersectionExampleScenario.node[20].nic.mac1609_4 	TooLittleTime 	0
scalar IntersectionExampleScenario.node[20].nic.mac1609_4 	TimesIntoBackoff 	0
scalar IntersectionExampleScenario.node[20].nic.mac1609_4 	SlotsBackoff 	0
scalar IntersectionExampleScenario.node[20].nic.mac1609_4 	NumInternalContention 	0
scalar IntersectionExampleScenario.node[20].nic.mac1609_4 	totalBusyTime 	0
scalar IntersectionExampleScenario.node[20].veinsmobility 	startTime 	72.5
scalar IntersectionExampleScenario.node[20].veinsmobility 	totalTime 	52.75
scalar IntersectionExampleScenario.node[20].veinsmobility 	stopTime 	125.5
scalar IntersectionExampleScenario.node[20].veinsmobility 	minSpeed 	0
scalar IntersectionExampleScenario.node[20].veinsmobility 	maxSpeed 	15.875
scalar IntersectionExampleScenario.node[20].veinsmobility 	totalDistance 	545.64202023894
scalar IntersectionExampleScenario.node[20].veinsmobility 	totalCO2Emission 	145.37814497669
scalar IntersectionExampleScenario.node[22].appl 	VehicleRemoved 	0
scalar IntersectionExampleScenario.node[22].appl 	ArrivedAtDest 	1
scalar IntersectionExampleScenario.node[22].appl 	IntersectionEnterTime 	77
scalar IntersectionExampleScenario.node[22].appl 	IntersectionExitTime 	110.36967717795
scalar IntersectionExampleScenario.node[22].appl 	NumberOfCollisions 	0
scalar IntersectionExampleScenario.node[22].nic.phy80211p 	busyTime 	0
scalar IntersectionExampleScenario.node[22].nic.mac1609_4 	ReceivedUnicastPackets 	0
scalar IntersectionExampleScenario.node[22].nic.mac1609_4 	ReceivedBroadcasts 	0
scalar IntersectionExampleScenario.node[22].nic.mac1609_4 	SentPackets 	0
scalar IntersectionExampleScenario.node[22].nic.mac1609_4 	SNIRLostPackets 	0
scalar IntersectionExampleScenario.node[22].nic.mac1609_4 	RXTXLostPackets 	0
scalar IntersectionExampleScenario.node[22].nic.mac1609_4 	TotalLostPackets 	0
scalar IntersectionExampleScenario.node[22].nic.mac1609_4 	DroppedPacketsInMac 	0
scalar IntersectionExampleScenario.node[22].nic.mac1609_4 	TooLittleTime 	0
scalar IntersectionExampleScenario.node[22].nic.mac1609_4 	TimesIntoBackoff 	0
scalar IntersectionExampleScenario.node[22].nic.mac1609_4 	SlotsBackoff 	0
scalar IntersectionExampleScenario.node[22].nic.mac1609_4 	NumInternalContention 	0
scalar IntersectionExampleScenario.node[22].nic.mac1609_4 	totalBusyTime 	0
scalar IntersectionExampleScenario.node[22].veinsmobility 	startTime 	77
scalar IntersectionExampleScenario.node[22].veinsmobility 	totalTime 	48.75
scalar IntersectionExampleScenario.node[22].veinsmobility 	stopTime 	126
scalar IntersectionExampleScenario.node[22].veinsmobility 	minSpeed 	0
scalar IntersectionExampleScenario.node[22].veinsmobility 	maxSpeed 	16.125
scalar IntersectionExampleScenario.node[22].veinsmobility 	totalDistance 	554.43296051025
scalar IntersectionExampleScenario.node[22].veinsmobility 	totalCO2Emission 	146.03004827523
scalar IntersectionExampleScenario.node[18].appl 	VehicleRemoved 	0
scalar IntersectionExampleScenario.node[18].appl 	ArrivedAtDest 	1
scalar IntersectionExampleScenario.node[18].appl 	IntersectionEnterTime 	71
scalar IntersectionExampleScenario.node[18].appl 	IntersectionExitTime 	108.60600195057
scalar IntersectionExampleScenario.node[18].appl 	NumberOfCollisions 	0
scalar IntersectionExampleScenario.node[18].nic.phy80211p 	busyTime 	0
scalar IntersectionExampleScenario.node[18].nic.mac1609_4 	ReceivedUnicastPackets 	0
scalar IntersectionExampleScenario.node[18].nic.mac1609_4 	ReceivedBroadcasts 	0
scalar IntersectionExampleScenario.node[18].nic.mac1609_4 	SentPackets 	0
scalar IntersectionExampleScenario.node[18].nic.mac1609_4 	SNIRLostPackets 	0
scalar IntersectionExampleScenario.node[18].nic.mac1609_4 	RXTXLostPackets 	0
scalar IntersectionExampleScenario.node[18].nic.mac1609_4 	TotalLostPackets 	0
scalar IntersectionExampleScenario.node[18].nic.mac1609_4 	DroppedPacketsInMac 	0
scalar IntersectionExampleScenario.node[18].nic.mac1609_4 	TooLittleTime 	0
scalar IntersectionExampleScenario.node[18].nic.mac1609_4 	TimesIntoBackoff 	0
scalar IntersectionExampleScenario.node[18].nic.mac1609_4 	SlotsBackoff 	0
scalar IntersectionExampleScenario.node[18].nic.mac1609_4 	NumInternalContention 	0
scalar IntersectionExampleScenario.node[18].nic.mac1609_4 	totalBusyTime 	0
scalar IntersectionExampleScenario.node[18].veinsmobility 	startTime 	71
scalar IntersectionExampleScenario.node[18].veinsmobility 	totalTime 	55
scalar IntersectionExampleScenario.node[18].veinsmobility 	stopTime 	126.25
scalar IntersectionExampleScenario.node[18].veinsmobility 	minSpeed 	0
scalar IntersectionExampleScenario.node[18].veinsmobility 	maxSpeed 	15.02499961853
scalar IntersectionExampleScenario.node[18].veinsmobility 	totalDistance 	561.0113592282
scalar IntersectionExampleScenario.node[18].veinsmobility 	totalCO2Emission 	143.36917534138
scalar IntersectionExampleScenario.node[23].appl 	VehicleRemoved 	0
scalar IntersectionExampleScenario.node[23].appl 	ArrivedAtDest 	1
scalar IntersectionExampleScenario.node[23].appl 	IntersectionEnterTime 	83.25
scalar IntersectionExampleScenario.node[23].appl 	IntersectionExitTime 	111.08611595901
scalar IntersectionExampleScenario.node[23].appl 	NumberOfCollisions 	0
scalar IntersectionExampleScenario.node[23].nic.phy80211p 	busyTime 	0
scalar IntersectionExampleScenario.node[23].nic.mac1609_4 	ReceivedUnicastPackets 	0
scalar IntersectionExampleScenario.node[23].nic.mac1609_4 	ReceivedBroadcasts 	0
scalar IntersectionExampleScenario.node[23].nic.mac1609_4 	SentPackets 	0
scalar IntersectionExampleScenario.node[23].nic.mac1609_4 	SNIRLostPackets 	0
scalar IntersectionExampleScenario.node[23].nic.mac1609_4 	RXTXLostPackets 	0
scalar IntersectionExampleScenario.node[23].nic.mac1609_4 	TotalLostPackets 	0
scalar IntersectionExampleScenario.node[23].nic.mac1609_4 	DroppedPacketsInMac 	0
scalar IntersectionExampleScenario.node[23].nic.mac1609_4 	TooLittleTime 	0
scalar IntersectionExampleScenario.node[23].nic.mac1609_4 	TimesIntoBackoff 	0
scalar IntersectionExampleScenario.node[23].nic.mac1609_4 	SlotsBackoff 	0
scalar IntersectionExampleScenario.node[23].nic.mac1609_4 	NumInternalContention 	0
scalar IntersectionExampleScenario.node[23].nic.mac1609_4 	totalBusyTime 	0
scalar IntersectionExampleScenario.node[23].veinsmobility 	startTime 	83.25
scalar IntersectionExampleScenario.node[23].veinsmobility 	totalTime 	43.75
scalar IntersectionExampleScenario.node[23].veinsmobility 	stopTime 	127.25
scalar IntersectionExampleScenario.node[23].veinsmobility 	minSpeed 	4.4396924972534
scalar IntersectionExampleScenario.node[23].veinsmobility 	maxSpeed 	15.5
scalar IntersectionExampleScenario.node[23].veinsmobility 	totalDistance 	551.74754333496
scalar IntersectionExampleScenario.node[23].veinsmobility 	totalCO2Emission 	131.23944362157
scalar IntersectionExampleScenario.node[24].appl 	VehicleRemoved 	0
scalar IntersectionExampleScenario.node[24].appl 	ArrivedAtDest 	1
scalar IntersectionExampleScenario.node[24].appl 	IntersectionEnterTime 	83.75
scalar IntersectionExampleScenario.node[24].appl 	IntersectionExitTime 	112.25073866977
scalar IntersectionExampleScenario.node[24].appl 	NumberOfCollisions 	0
scalar IntersectionExampleScenario.node[24].nic.phy80211p 	busyTime 	0
scalar IntersectionExampleScenario.node[24].nic.mac1609_4 	ReceivedUnicastPackets 	0
scalar IntersectionExampleScenario.node[24].nic.mac1609_4 	ReceivedBroadcasts 	0
scalar IntersectionExampleScenario.node[24].nic.mac1609_4 	SentPackets 	0
scalar IntersectionExampleScenario.node[24].nic.mac1609_4 	SNIRLostPackets 	0
scalar IntersectionExampleScenario.node[24].nic.mac1609_4 	RXTXLostPackets 	0
scalar IntersectionExampleScenario.node[24].nic.mac1609_4 	TotalLostPackets 	0
scalar IntersectionExampleScenario.node[24].nic.mac1609_4 	DroppedPacketsInMac 	0
scalar IntersectionExampleScenario.node[24].nic.mac1609_4 	TooLittleTime 	0
scalar IntersectionExampleScenario.node[24].nic.mac1609_4 	TimesIntoBackoff 	0
scalar IntersectionExampleScenario.node[24].nic.mac1609_4 	SlotsBackoff 	0
scalar IntersectionExampleScenario.node[24].nic.mac1609_4 	NumInternalContention 	0
scalar IntersectionExampleScenario.node[24].nic.mac1609_4 	totalBusyTime 	0
scalar IntersectionExampleScenario.node[24].veinsmobility 	startTime 	83.75
scalar IntersectionExampleScenario.node[24].veinsmobility 	totalTime 	45.25
scalar IntersectionExampleScenario.node[24].veinsmobility 	stopTime 	129.25
scalar IntersectionExampleScenario.node[24].veinsmobility 	minSpeed 	4.2784652709961
scalar IntersectionExampleScenario.node[24].veinsmobility 	maxSpeed 	15.64999961853
scalar IntersectionExampleScenario.node[24].veinsmobility 	totalDistance 	544.23914714741
scalar IntersectionExampleScenario.node[24].veinsmobility 	totalCO2Emission 	138.51929405204
scalar IntersectionExampleScenario.node[25].appl 	VehicleRemoved 	0
scalar IntersectionExampleScenario.node[25].appl 	ArrivedAtDest 	1
scalar IntersectionExampleScenario.node[25].appl 	IntersectionEnterTime 	85.75
scalar IntersectionExampleScenario.node[25].appl 	IntersectionExitTime 	114.82635088233
scalar IntersectionExampleScenario.node[25].appl 	NumberOfCollisions 	0
scalar IntersectionExampleScenario.node[25].nic.phy80211p 	busyTime 	0
scalar IntersectionExampleScenario.node[25].nic.mac1609_4 	ReceivedUnicastPackets 	0
scalar IntersectionExampleScenario.node[25].nic.mac1609_4 	ReceivedBroadcasts 	0
scalar IntersectionExampleScenario.node[25].nic.mac1609_4 	SentPackets 	0
scalar IntersectionExampleScenario.node[25].nic.mac1609_4 	SNIRLostPackets 	0
scalar IntersectionExampleScenario.node[25].nic.mac1609_4 	RXTXLostPackets 	0
scalar IntersectionExampleScenario.node[25].nic.mac1609_4 	TotalLostPackets 	0
scalar IntersectionExampleScenario.node[25].nic.mac1609_4 	DroppedPacketsInMac 	0
scalar IntersectionExampleScenario.node[25].nic.mac1609_4 	TooLittleTime 	0
scalar IntersectionExampleScenario.node[25].nic.mac1609_4 	TimesIntoBackoff 	0
scalar IntersectionExampleScenario.node[25].nic.mac1609_4 	SlotsBackoff 	0
scalar IntersectionExampleScenario.node[25].nic.mac1609_4 	NumInternalContention 	0
scalar IntersectionExampleScenario.node[25].nic.mac1609_4 	totalBusyTime 	0
scalar IntersectionExampleScenario.node[25].veinsmobility 	startTime 	85.75
scalar IntersectionExampleScenario.node[25].veinsmobility 	totalTime 	46.5
scalar IntersectionExampleScenario.node[25].veinsmobility 	stopTime 	132.5
scalar IntersectionExampleScenario.node[25].veinsmobility 	minSpeed 	5.6500000953674
scalar IntersectionExampleScenario.node[25].veinsmobility 	maxSpeed 	15.02499961853
scalar IntersectionExampleScenario.node[25].veinsmobility 	totalDistance 	564.87938709211
scalar IntersectionExampleScenario.node[25].veinsmobility 	totalCO2Emission 	133.12956095365
scalar IntersectionExampleScenario.node[27].appl 	VehicleRemoved 	0
scalar IntersectionExampleScenario.node[27].appl 	ArrivedAtDest 	1
scalar IntersectionExampleScenario.node[27].appl 	IntersectionEnterTime 	98.5
scalar IntersectionExampleScenario.node[27].appl 	IntersectionExitTime 	120.54718009755
scalar IntersectionExampleScenario.node[27].appl 	NumberOfCollisions 	0
scalar IntersectionExampleScenario.node[27].nic.phy80211p 	busyTime 	0
scalar IntersectionExampleScenario.node[27].nic.mac1609_4 	ReceivedUnicastPackets 	0
scalar IntersectionExampleScenario.node[27].nic.mac1609_4 	ReceivedBroadcasts 	0
scalar IntersectionExampleScenario.node[27].nic.mac1609_4 	SentPackets 	0
scalar IntersectionExampleScenario.node[27].nic.mac1609_4 	SNIRLostPackets 	0
scalar IntersectionExampleScenario.node[27].nic.mac1609_4 	RXTXLostPackets 	0
scalar IntersectionExampleScenario.node[27].nic.mac1609_4 	TotalLostPackets 	0
scalar IntersectionExampleScenario.node[27].nic.mac1609_4 	DroppedPacketsInMac 	0
scalar IntersectionExampleScenario.node[27].nic.mac1609_4 	TooLittleTime 	0
scalar IntersectionExampleScenario.node[27].nic.mac1609_4 	TimesIntoBackoff 	0
scalar IntersectionExampleScenario.node[27].nic.mac1609_4 	SlotsBackoff 	0
scalar IntersectionExampleScenario.node[27].nic.mac1609_4 	NumInternalContention 	0
scalar IntersectionExampleScenario.node[27].nic.mac1609_4 	totalBusyTime 	0
scalar IntersectionExampleScenario.node[27].veinsmobility 	startTime 	98.5
scalar IntersectionExampleScenario.node[27].veinsmobility 	totalTime 	37.25
scalar IntersectionExampleScenario.node[27].veinsmobility 	stopTime 	136
scalar IntersectionExampleScenario.node[27].veinsmobility 	minSpeed 	5.6500000953674
scalar IntersectionExampleScenario.node[27].veinsmobility 	maxSpeed 	16.27499961853
scalar IntersectionExampleScenario.node[27].veinsmobility 	totalDistance 	551.74661254883
scalar IntersectionExampleScenario.node[27].veinsmobility 	totalCO2Emission 	122.72925242157
scalar IntersectionExampleScenario.node[26].appl 	VehicleRemoved 	0
scalar IntersectionExampleScenario.node[26].appl 	ArrivedAtDest 	1
scalar IntersectionExampleScenario.node[26].appl 	IntersectionEnterTime 	95.75
scalar IntersectionExampleScenario.node[26].appl 	IntersectionExitTime 	124.35009177888
scalar IntersectionExampleScenario.node[26].appl 	NumberOfCollisions 	0
scalar IntersectionExampleScenario.node[26].nic.phy80211p 	busyTime 	0
scalar IntersectionExampleScenario.node[26].nic.mac1609_4 	ReceivedUnicastPackets 	0
scalar IntersectionExampleScenario.node[26].nic.mac1609_4 	ReceivedBroadcasts 	0
scalar IntersectionExampleScenario.node[26].nic.mac1609_4 	SentPackets 	0
scalar IntersectionExampleScenario.node[26].nic.mac1609_4 	SNIRLostPackets 	0
scalar IntersectionExampleScenario.node[26].nic.mac1609_4 	RXTXLostPackets 	0
scalar IntersectionExampleScenario.node[26].nic.mac1609_4 	TotalLostPackets 	0
scalar IntersectionExampleScenario.node[26].nic.mac1609_4 	DroppedPacketsInMac 	0
scalar IntersectionExampleScenario.node[26].nic.mac1609_4 	TooLittleTime 	0
scalar IntersectionExampleScenario.node[26].nic.mac1609_4 	TimesIntoBackoff 	0
scalar IntersectionExampleScenario.node[26].nic.mac1609_4 	SlotsBackoff 	0
scalar IntersectionExampleScenario.node[26].nic.mac1609_4 	NumInternalContention 	0
scalar IntersectionExampleScenario.node[26].nic.mac1609_4 	totalBusyTime 	0
scalar IntersectionExampleScenario.node[26].veinsmobility 	startTime 	95.75
scalar IntersectionExampleScenario.node[26].veinsmobility 	totalTime 	44.25
scalar IntersectionExampleScenario.node[26].veinsmobility 	stopTime 	140.25
scalar IntersectionExampleScenario.node[26].veinsmobility 	minSpeed 	0
scalar IntersectionExampleScenario.node[26].veinsmobility 	maxSpeed 	16
scalar IntersectionExampleScenario.node[26].veinsmobility 	totalDistance 	550.9662257587
scalar IntersectionExampleScenario.node[26].veinsmobility 	totalCO2Emission 	140.06299890447
scalar IntersectionExampleScenario.node[31].appl 	VehicleRemoved 	0
scalar IntersectionExampleScenario.node[31].appl 	ArrivedAtDest 	1
scalar IntersectionExampleScenario.node[31].appl 	IntersectionEnterTime 	102.75
scalar IntersectionExampleScenario.node[31].appl 	IntersectionExitTime 	127.26930401361
scalar IntersectionExampleScenario.node[31].appl 	NumberOfCollisions 	0
scalar IntersectionExampleScenario.node[31].nic.phy80211p 	busyTime 	0
scalar IntersectionExampleScenario.node[31].nic.mac1609_4 	ReceivedUnicastPackets 	0
scalar IntersectionExampleScenario.node[31].nic.mac1609_4 	ReceivedBroadcasts 	0
scalar IntersectionExampleScenario.node[31].nic.mac1609_4 	SentPackets 	0
scalar IntersectionExampleScenario.node[31].nic.mac1609_4 	SNIRLostPackets 	0
scalar IntersectionExampleScenario.node[31].nic.mac1609_4 	RXTXLostPackets 	0
scalar IntersectionExampleScenario.node[31].nic.mac1609_4 	TotalLostPackets 	0
scalar IntersectionExampleScenario.node[31].nic.mac1609_4 	DroppedPacketsInMac 	0
scalar IntersectionExampleScenario.node[31].nic.mac1609_4 	TooLittleTime 	0
scalar IntersectionExampleScenario.node[31].nic.mac1609_4 	TimesIntoBackoff 	0
scalar IntersectionExampleScenario.node[31].nic.mac1609_4 	SlotsBackoff 	0
scalar IntersectionExampleScenario.node[31].nic.mac1609_4 	NumInternalContention 	0
scalar IntersectionExampleScenario.node[31].nic.mac1609_4 	totalBusyTime 	0
scalar IntersectionExampleScenario.node[31].veinsmobility 	startTime 	102.75
scalar IntersectionExampleScenario.node[31].veinsmobility 	totalTime 	40.75
scalar IntersectionExampleScenario.node[31].veinsmobility 	stopTime 	143.75
scalar IntersectionExampleScenario.node[31].veinsmobility 	minSpeed 	5.6500000953674
scalar IntersectionExampleScenario.node[31].veinsmobility 	maxSpeed 	15.875
scalar IntersectionExampleScenario.node[31].veinsmobility 	totalDistance 	544.01658191677
scalar IntersectionExampleScenario.node[31].veinsmobility 	totalCO2Emission 	141.10094973811
scalar IntersectionExampleScenario.node[29].appl 	VehicleRemoved 	0
scalar IntersectionExampleScenario.node[29].appl 	ArrivedAtDest 	1
scalar IntersectionExampleScenario.node[29].appl 	IntersectionEnterTime 	101.75
scalar IntersectionExampleScenario.node[29].appl 	IntersectionExitTime 	139.34730917894
scalar IntersectionExampleScenario.node[29].appl 	NumberOfCollisions 	0
scalar IntersectionExampleScenario.node[29].nic.phy80211p 	busyTime 	0
scalar IntersectionExampleScenario.node[29].nic.mac1609_4 	ReceivedUnicastPackets 	0
scalar IntersectionExampleScenario.node[29].nic.mac1609_4 	ReceivedBroadcasts 	0
scalar IntersectionExampleScenario.node[29].nic.mac1609_4 	SentPackets 	0
scalar IntersectionExampleScenario.node[29].nic.mac1609_4 	SNIRLostPackets 	0
scalar IntersectionExampleScenario.node[29].nic.mac1609_4 	RXTXLostPackets 	0
scalar IntersectionExampleScenario.node[29].nic.mac1609_4 	TotalLostPackets 	0
scalar IntersectionExampleScenario.node[29].nic.mac1609_4 	DroppedPacketsInMac 	0
scalar IntersectionExampleScenario.node[29].nic.mac1609_4 	TooLittleTime 	0
scalar IntersectionExampleScenario.node[29].nic.mac1609_4 	TimesIntoBackoff 	0
scalar IntersectionExampleScenario.node[29].nic.mac1609_4 	SlotsBackoff 	0
scalar IntersectionExampleScenario.node[29].nic.mac1609_4 	NumInternalContention 	0
scalar IntersectionExampleScenario.node[29].nic.mac1609_4 	totalBusyTime 	0
scalar IntersectionExampleScenario.node[29].veinsmobility 	startTime 	101.75
scalar IntersectionExampleScenario.node[29].veinsmobility 	totalTime 	53.5
scalar IntersectionExampleScenario.node[29].veinsmobility 	stopTime 	155.5
scalar IntersectionExampleScenario.node[29].veinsmobility 	minSpeed 	0
scalar IntersectionExampleScenario.node[29].veinsmobility 	maxSpeed 	15.64999961853
scalar IntersectionExampleScenario.node[29].veinsmobility 	totalDistance 	546.23405456543
scalar IntersectionExampleScenario.node[29].veinsmobility 	totalCO2Emission 	146.58297660268
scalar IntersectionExampleScenario.node[32].appl 	VehicleRemoved 	0
scalar IntersectionExampleScenario.node[32].appl 	ArrivedAtDest 	1
scalar IntersectionExampleScenario.node[32].appl 	IntersectionEnterTime 	107.25
scalar IntersectionExampleScenario.node[32].appl 	IntersectionExitTime 	139.31363361873
scalar IntersectionExampleScenario.node[32].appl 	NumberOfCollisions 	0
scalar IntersectionExampleScenario.node[32].nic.phy80211p 	busyTime 	0
scalar IntersectionExampleScenario.node[32].nic.mac1609_4 	ReceivedUnicastPackets 	0
scalar IntersectionExampleScenario.node[32].nic.mac1609_4 	ReceivedBroadcasts 	0
scalar IntersectionExampleScenario.node[32].nic.mac1609_4 	SentPackets 	0
scalar IntersectionExampleScenario.node[32].nic.mac1609_4 	SNIRLostPackets 	0
scalar IntersectionExampleScenario.node[32].nic.mac1609_4 	RXTXLostPackets 	0
scalar IntersectionExampleScenario.node[32].nic.mac1609_4 	TotalLostPackets 	0
scalar IntersectionExampleScenario.node[32].nic.mac1609_4 	DroppedPacketsInMac 	0
scalar IntersectionExampleScenario.node[32].nic.mac1609_4 	TooLittleTime 	0
scalar IntersectionExampleScenario.node[32].nic.mac1609_4 	TimesIntoBackoff 	0
scalar IntersectionExampleScenario.node[32].nic.mac1609_4 	SlotsBackoff 	0
scalar IntersectionExampleScenario.node[32].nic.mac1609_4 	NumInternalContention 	0
scalar IntersectionExampleScenario.node[32].nic.mac1609_4 	totalBusyTime 	0
scalar IntersectionExampleScenario.node[32].veinsmobility 	startTime 	107.25
scalar IntersectionExampleScenario.node[32].veinsmobility 	totalTime 	48
scalar IntersectionExampleScenario.node[32].veinsmobility 	stopTime 	155.5
scalar IntersectionExampleScenario.node[32].veinsmobility 	minSpeed 	0
scalar IntersectionExampleScenario.node[32].veinsmobility 	maxSpeed 	15.64999961853
scalar IntersectionExampleScenario.node[32].veinsmobility 	totalDistance 	549.41291917911
scalar IntersectionExampleScenario.node[32].veinsmobility 	totalCO2Emission 	140.60029036771
scalar IntersectionExampleScenario.node[28].appl 	VehicleRemoved 	0
scalar IntersectionExampleScenario.node[28].appl 	ArrivedAtDest 	1
scalar IntersectionExampleScenario.node[28].appl 	IntersectionEnterTime 	101.5
scalar IntersectionExampleScenario.node[28].appl 	IntersectionExitTime 	140.30237685354
scalar IntersectionExampleScenario.node[28].appl 	NumberOfCollisions 	0
scalar IntersectionExampleScenario.node[28].nic.phy80211p 	busyTime 	0
scalar IntersectionExampleScenario.node[28].nic.mac1609_4 	ReceivedUnicastPackets 	0
scalar IntersectionExampleScenario.node[28].nic.mac1609_4 	ReceivedBroadcasts 	0
scalar IntersectionExampleScenario.node[28].nic.mac1609_4 	SentPackets 	0
scalar IntersectionExampleScenario.node[28].nic.mac1609_4 	SNIRLostPackets 	0
scalar IntersectionExampleScenario.node[28].nic.mac1609_4 	RXTXLostPackets 	0
scalar IntersectionExampleScenario.node[28].nic.mac1609_4 	TotalLostPackets 	0
scalar IntersectionExampleScenario.node[28].nic.mac1609_4 	DroppedPacketsInMac 	0
scalar IntersectionExampleScenario.node[28].nic.mac1609_4 	TooLittleTime 	0
scalar IntersectionExampleScenario.node[28].nic.mac1609_4 	TimesIntoBackoff 	0
scalar IntersectionExampleScenario.node[28].nic.mac1609_4 	SlotsBackoff 	0
scalar IntersectionExampleScenario.node[28].nic.mac1609_4 	NumInternalContention 	0
scalar IntersectionExampleScenario.node[28].nic.mac1609_4 	totalBusyTime 	0
scalar IntersectionExampleScenario.node[28].veinsmobility 	startTime 	101.5
scalar IntersectionExampleScenario.node[28].veinsmobility 	totalTime 	55.75
scalar IntersectionExampleScenario.node[28].veinsmobility 	stopTime 	157.5
scalar IntersectionExampleScenario.node[28].veinsmobility 	minSpeed 	0
scalar IntersectionExampleScenario.node[28].veinsmobility 	maxSpeed 	15.051362991333
scalar IntersectionExampleScenario.node[28].veinsmobility 	totalDistance 	563.39415452016
scalar IntersectionExampleScenario.node[28].veinsmobility 	totalCO2Emission 	147.13890578069
scalar IntersectionExampleScenario.node[30].appl 	VehicleRemoved 	0
scalar IntersectionExampleScenario.node[30].appl 	ArrivedAtDest 	1
scalar IntersectionExampleScenario.node[30].appl 	IntersectionEnterTime 	102.25
scalar IntersectionExampleScenario.node[30].appl 	IntersectionExitTime 	143.09350654672
scalar IntersectionExampleScenario.node[30].appl 	NumberOfCollisions 	0
scalar IntersectionExampleScenario.node[30].nic.phy80211p 	busyTime 	0
scalar IntersectionExampleScenario.node[30].nic.mac1609_4 	ReceivedUnicastPackets 	0
scalar IntersectionExampleScenario.node[30].nic.mac1609_4 	ReceivedBroadcasts 	0
scalar IntersectionExampleScenario.node[30].nic.mac1609_4 	SentPackets 	0
scalar IntersectionExampleScenario.node[30].nic.mac1609_4 	SNIRLostPackets 	0
scalar IntersectionExampleScenario.node[30].nic.mac1609_4 	RXTXLostPackets 	0
scalar IntersectionExampleScenario.node[30].nic.mac1609_4 	TotalLostPackets 	0
scalar IntersectionExampleScenario.node[30].nic.mac1609_4 	DroppedPacketsInMac 	0
scalar IntersectionExampleScenario.node[30].nic.mac1609_4 	TooLittleTime 	0
scalar IntersectionExampleScenario.node[30].nic.mac1609_4 	TimesIntoBackoff 	0
scalar IntersectionExampleScenario.node[30].nic.mac1609_4 	SlotsBackoff 	0
scalar IntersectionExampleScenario.node[30].nic.mac1609_4 	NumInternalContention 	0
scalar IntersectionExampleScenario.node[30].nic.mac1609_4 	totalBusyTime 	0
scalar IntersectionExampleScenario.node[30].veinsmobility 	startTime 	102.25
scalar IntersectionExampleScenario.node[30].veinsmobility 	totalTime 	57.25
scalar IntersectionExampleScenario.node[30].veinsmobility 	stopTime 	159.75
scalar IntersectionExampleScenario.node[30].veinsmobility 	minSpeed 	0
scalar IntersectionExampleScenario.node[30].veinsmobility 	maxSpeed 	14.960201263428
scalar IntersectionExampleScenario.node[30].veinsmobility 	totalDistance 	579.17963865985
scalar IntersectionExampleScenario.node[30].veinsmobility 	totalCO2Emission 	151.18221209094
scalar IntersectionExampleScenario.node[33].appl 	VehicleRemoved 	0
scalar IntersectionExampleScenario.node[33].appl 	ArrivedAtDest 	1
scalar IntersectionExampleScenario.node[33].appl 	IntersectionEnterTime 	116
scalar IntersectionExampleScenario.node[33].appl 	IntersectionExitTime 	144.77322854952
scalar IntersectionExampleScenario.node[33].appl 	NumberOfCollisions 	0
scalar IntersectionExampleScenario.node[33].nic.phy80211p 	busyTime 	0
scalar IntersectionExampleScenario.node[33].nic.mac1609_4 	ReceivedUnicastPackets 	0
scalar IntersectionExampleScenario.node[33].nic.mac1609_4 	ReceivedBroadcasts 	0
scalar IntersectionExampleScenario.node[33].nic.mac1609_4 	SentPackets 	0
scalar IntersectionExampleScenario.node[33].nic.mac1609_4 	SNIRLostPackets 	0
scalar IntersectionExampleScenario.node[33].nic.mac1609_4 	RXTXLostPackets 	0
scalar IntersectionExampleScenario.node[33].nic.mac1609_4 	TotalLostPackets 	0
scalar IntersectionExampleScenario.node[33].nic.mac1609_4 	DroppedPacketsInMac 	0
scalar IntersectionExampleScenario.node[33].nic.mac1609_4 	TooLittleTime 	0
scalar IntersectionExampleScenario.node[33].nic.mac1609_4 	TimesIntoBackoff 	0
scalar IntersectionExampleScenario.node[33].nic.mac1609_4 	SlotsBackoff 	0
scalar IntersectionExampleScenario.node[33].nic.mac1609_4 	NumInternalContention 	0
scalar IntersectionExampleScenario.node[33].nic.mac1609_4 	totalBusyTime 	0
scalar IntersectionExampleScenario.node[33].veinsmobility 	startTime 	116
scalar IntersectionExampleScenario.node[33].veinsmobility 	totalTime 	44.5
scalar IntersectionExampleScenario.node[33].veinsmobility 	stopTime 	160.75
scalar IntersectionExampleScenario.node[33].veinsmobility 	minSpeed 	4.2893142700195
scalar IntersectionExampleScenario.node[33].veinsmobility 	maxSpeed 	16.89999961853
scalar IntersectionExampleScenario.node[33].veinsmobility 	totalDistance 	543.1992724893
scalar IntersectionExampleScenario.node[33].veinsmobility 	totalCO2Emission 	146.32613836878
scalar IntersectionExampleScenario.node[37].appl 	VehicleRemoved 	0
scalar IntersectionExampleScenario.node[37].appl 	ArrivedAtDest 	1
scalar IntersectionExampleScenario.node[37].appl 	IntersectionEnterTime 	127.5
scalar IntersectionExampleScenario.node[37].appl 	IntersectionExitTime 	150.5597947136
scalar IntersectionExampleScenario.node[37].appl 	NumberOfCollisions 	0
scalar IntersectionExampleScenario.node[37].nic.phy80211p 	busyTime 	0
scalar IntersectionExampleScenario.node[37].nic.mac1609_4 	ReceivedUnicastPackets 	0
scalar IntersectionExampleScenario.node[37].nic.mac1609_4 	ReceivedBroadcasts 	0
scalar IntersectionExampleScenario.node[37].nic.mac1609_4 	SentPackets 	0
scalar IntersectionExampleScenario.node[37].nic.mac1609_4 	SNIRLostPackets 	0
scalar IntersectionExampleScenario.node[37].nic.mac1609_4 	RXTXLostPackets 	0
scalar IntersectionExampleScenario.node[37].nic.mac1609_4 	TotalLostPackets 	0
scalar IntersectionExampleScenario.node[37].nic.mac1609_4 	DroppedPacketsInMac 	0
scalar IntersectionExampleScenario.node[37].nic.mac1609_4 	TooLittleTime 	0
scalar IntersectionExampleScenario.node[37].nic.mac1609_4 	TimesIntoBackoff 	0
scalar IntersectionExampleScenario.node[37].nic.mac1609_4 	SlotsBackoff 	0
scalar IntersectionExampleScenario.node[37].nic.mac1609_4 	NumInternalContention 	0
scalar IntersectionExampleScenario.node[37].nic.mac1609_4 	totalBusyTime 	0
scalar IntersectionExampleScenario.node[37].veinsmobility 	startTime 	127.5
scalar IntersectionExampleScenario.node[37].veinsmobility 	totalTime 	39
scalar IntersectionExampleScenario.node[37].veinsmobility 	stopTime 	166.75
scalar IntersectionExampleScenario.node[37].veinsmobility 	minSpeed 	5.6500000953674
scalar IntersectionExampleScenario.node[37].veinsmobility 	maxSpeed 	16
scalar IntersectionExampleScenario.node[37].veinsmobility 	totalDistance 	551.5597805675
scalar IntersectionExampleScenario.node[37].veinsmobility 	totalCO2Emission 	125.93719274757
scalar IntersectionExampleScenario.node[34].appl 	VehicleRemoved 	0
scalar IntersectionExampleScenario.node[34].appl 	ArrivedAtDest 	1
scalar IntersectionExampleScenario.node[34].appl 	IntersectionEnterTime 	118.25
scalar IntersectionExampleScenario.node[34].appl 	IntersectionExitTime 	154.29153237355
scalar IntersectionExampleScenario.node[34].appl 	NumberOfCollisions 	0
scalar IntersectionExampleScenario.node[34].nic.phy80211p 	busyTime 	0
scalar IntersectionExampleScenario.node[34].nic.mac1609_4 	ReceivedUnicastPackets 	0
scalar IntersectionExampleScenario.node[34].nic.mac1609_4 	ReceivedBroadcasts 	0
scalar IntersectionExampleScenario.node[34].nic.mac1609_4 	SentPackets 	0
scalar IntersectionExampleScenario.node[34].nic.mac1609_4 	SNIRLostPackets 	0
scalar IntersectionExampleScenario.node[34].nic.mac1609_4 	RXTXLostPackets 	0
scalar IntersectionExampleScenario.node[34].nic.mac1609_4 	TotalLostPackets 	0
scalar IntersectionExampleScenario.node[34].nic.mac1609_4 	DroppedPacketsInMac 	0
scalar IntersectionExampleScenario.node[34].nic.mac1609_4 	TooLittleTime 	0
scalar IntersectionExampleScenario.node[34].nic.mac1609_4 	TimesIntoBackoff 	0
scalar IntersectionExampleScenario.node[34].nic.mac1609_4 	SlotsBackoff 	0
scalar IntersectionExampleScenario.node[34].nic.mac1609_4 	NumInternalContention 	0
scalar IntersectionExampleScenario.node[34].nic.mac1609_4 	totalBusyTime 	0
scalar IntersectionExampleScenario.node[34].veinsmobility 	startTime 	118.25
scalar IntersectionExampleScenario.node[34].veinsmobility 	totalTime 	53
scalar IntersectionExampleScenario.node[34].veinsmobility 	stopTime 	171.5
scalar IntersectionExampleScenario.node[34].veinsmobility 	minSpeed 	0
scalar IntersectionExampleScenario.node[34].veinsmobility 	maxSpeed 	14.75
scalar IntersectionExampleScenario.node[34].veinsmobility 	totalDistance 	550.34266771426
scalar IntersectionExampleScenario.node[34].veinsmobility 	totalCO2Emission 	137.98380610606
scalar IntersectionExampleScenario.node[35].appl 	VehicleRemoved 	0
scalar IntersectionExampleScenario.node[35].appl 	ArrivedAtDest 	1
scalar IntersectionExampleScenario.node[35].appl 	IntersectionEnterTime 	121.75
scalar IntersectionExampleScenario.node[35].appl 	IntersectionExitTime 	155.0309344334
scalar IntersectionExampleScenario.node[35].appl 	NumberOfCollisions 	0
scalar IntersectionExampleScenario.node[35].nic.phy80211p 	busyTime 	0
scalar IntersectionExampleScenario.node[35].nic.mac1609_4 	ReceivedUnicastPackets 	0
scalar IntersectionExampleScenario.node[35].nic.mac1609_4 	ReceivedBroadcasts 	0
scalar IntersectionExampleScenario.node[35].nic.mac1609_4 	SentPackets 	0
scalar IntersectionExampleScenario.node[35].nic.mac1609_4 	SNIRLostPackets 	0
scalar IntersectionExampleScenario.node[35].nic.mac1609_4 	RXTXLostPackets 	0
scalar IntersectionExampleScenario.node[35].nic.mac1609_4 	TotalLostPackets 	0
scalar IntersectionExampleScenario.node[35].nic.mac1609_4 	DroppedPacketsInMac 	0
scalar IntersectionExampleScenario.node[35].nic.mac1609_4 	TooLittleTime 	0
scalar IntersectionExampleScenario.node[35].nic.mac1609_4 	TimesIntoBackoff 	0
scalar IntersectionExampleScenario.node[35].nic.mac1609_4 	SlotsBackoff 	0
scalar IntersectionExampleScenario.node[35].nic.mac1609_4 	NumInternalContention 	0
scalar IntersectionExampleScenario.node[35].nic.mac1609_4 	totalBusyTime 	0
scalar IntersectionExampleScenario.node[35].veinsmobility 	startTime 	121.75
scalar IntersectionExampleScenario.node[35].veinsmobility 	totalTime 	50
scalar IntersectionExampleScenario.node[35].veinsmobility 	stopTime 	172
scalar IntersectionExampleScenario.node[35].veinsmobility 	minSpeed 	0
scalar IntersectionExampleScenario.node[35].veinsmobility 	maxSpeed 	15.25
scalar IntersectionExampleScenario.node[35].veinsmobility 	totalDistance 	553.84182292614
scalar IntersectionExampleScenario.node[35].veinsmobility 	totalCO2Emission 	141.73137312954
scalar IntersectionExampleScenario.node[39].appl 	VehicleRemoved 	0
scalar IntersectionExampleScenario.node[39].appl 	ArrivedAtDest 	1
scalar IntersectionExampleScenario.node[39].appl 	IntersectionEnterTime 	132.75
scalar IntersectionExampleScenario.node[39].appl 	IntersectionExitTime 	157.86266232628
scalar IntersectionExampleScenario.node[39].appl 	NumberOfCollisions 	0
scalar IntersectionExampleScenario.node[39].nic.phy80211p 	busyTime 	0
scalar IntersectionExampleScenario.node[39].nic.mac1609_4 	ReceivedUnicastPackets 	0
scalar IntersectionExampleScenario.node[39].nic.mac1609_4 	ReceivedBroadcasts 	0
scalar IntersectionExampleScenario.node[39].nic.mac1609_4 	SentPackets 	0
scalar IntersectionExampleScenario.node[39].nic.mac1609_4 	SNIRLostPackets 	0
scalar IntersectionExampleScenario.node[39].nic.mac1609_4 	RXTXLostPackets 	0
scalar IntersectionExampleScenario.node[39].nic.mac1609_4 	TotalLostPackets 	0
scalar IntersectionExampleScenario.node[39].nic.mac1609_4 	DroppedPacketsInMac 	0
scalar IntersectionExampleScenario.node[39].nic.mac1609_4 	TooLittleTime 	0
scalar IntersectionExampleScenario.node[39].nic.mac1609_4 	TimesIntoBackoff 	0
scalar IntersectionExampleScenario.node[39].nic.mac1609_4 	SlotsBackoff 	0
scalar IntersectionExampleScenario.node[39].nic.mac1609_4 	NumInternalContention 	0
scalar IntersectionExampleScenario.node[39].nic.mac1609_4 	totalBusyTime 	0
scalar IntersectionExampleScenario.node[39].veinsmobility 	startTime 	132.75
scalar IntersectionExampleScenario.node[39].veinsmobility 	totalTime 	40.75
scalar IntersectionExampleScenario.node[39].veinsmobility 	stopTime 	173.75
scalar IntersectionExampleScenario.node[39].veinsmobility 	minSpeed 	5.6500000953674
scalar IntersectionExampleScenario.node[39].veinsmobility 	maxSpeed 	16.142705917358
scalar IntersectionExampleScenario.node[39].veinsmobility 	totalDistance 	551.32393883458
scalar IntersectionExampleScenario.node[39].veinsmobility 	totalCO2Emission 	136.14779843083
scalar IntersectionExampleScenario.node[36].appl 	VehicleRemoved 	0
scalar IntersectionExampleScenario.node[36].appl 	ArrivedAtDest 	1
scalar IntersectionExampleScenario.node[36].appl 	IntersectionEnterTime 	126.25
scalar IntersectionExampleScenario.node[36].appl 	IntersectionExitTime 	156.61410574612
scalar IntersectionExampleScenario.node[36].appl 	NumberOfCollisions 	0
scalar IntersectionExampleScenario.node[36].nic.phy80211p 	busyTime 	0
scalar IntersectionExampleScenario.node[36].nic.mac1609_4 	ReceivedUnicastPackets 	0
scalar IntersectionExampleScenario.node[36].nic.mac1609_4 	ReceivedBroadcasts 	0
scalar IntersectionExampleScenario.node[36].nic.mac1609_4 	SentPackets 	0
scalar IntersectionExampleScenario.node[36].nic.mac1609_4 	SNIRLostPackets 	0
scalar IntersectionExampleScenario.node[36].nic.mac1609_4 	RXTXLostPackets 	0
scalar IntersectionExampleScenario.node[36].nic.mac1609_4 	TotalLostPackets 	0
scalar IntersectionExampleScenario.node[36].nic.mac1609_4 	DroppedPacketsInMac 	0
scalar IntersectionExampleScenario.node[36].nic.mac1609_4 	TooLittleTime 	0
scalar IntersectionExampleScenario.node[36].nic.mac1609_4 	TimesIntoBackoff 	0
scalar IntersectionExampleScenario.node[36].nic.mac1609_4 	SlotsBackoff 	0
scalar IntersectionExampleScenario.node[36].nic.mac1609_4 	NumInternalContention 	0
scalar IntersectionExampleScenario.node[36].nic.mac1609_4 	totalBusyTime 	0
scalar IntersectionExampleScenario.node[36].veinsmobility 	startTime 	126.25
scalar IntersectionExampleScenario.node[36].veinsmobility 	totalTime 	47.5
scalar IntersectionExampleScenario.node[36].veinsmobility 	stopTime 	174
scalar IntersectionExampleScenario.node[36].veinsmobility 	minSpeed 	0
scalar IntersectionExampleScenario.node[36].veinsmobility 	maxSpeed 	15.02499961853
scalar IntersectionExampleScenario.node[36].veinsmobility 	totalDistance 	544.39225916223
scalar IntersectionExampleScenario.node[36].veinsmobility 	totalCO2Emission 	134.23184216779
scalar IntersectionExampleScenario.node[41].appl 	VehicleRemoved 	0
scalar IntersectionExampleScenario.node[41].appl 	ArrivedAtDest 	1
scalar IntersectionExampleScenario.node[41].appl 	IntersectionEnterTime 	137.5
scalar IntersectionExampleScenario.node[41].appl 	IntersectionExitTime 	161.86873526018
scalar IntersectionExampleScenario.node[41].appl 	NumberOfCollisions 	0
scalar IntersectionExampleScenario.node[41].nic.phy80211p 	busyTime 	0
scalar IntersectionExampleScenario.node[41].nic.mac1609_4 	ReceivedUnicastPackets 	0
scalar IntersectionExampleScenario.node[41].nic.mac1609_4 	ReceivedBroadcasts 	0
scalar IntersectionExampleScenario.node[41].nic.mac1609_4 	SentPackets 	0
scalar IntersectionExampleScenario.node[41].nic.mac1609_4 	SNIRLostPackets 	0
scalar IntersectionExampleScenario.node[41].nic.mac1609_4 	RXTXLostPackets 	0
scalar IntersectionExampleScenario.node[41].nic.mac1609_4 	TotalLostPackets 	0
scalar IntersectionExampleScenario.node[41].nic.mac1609_4 	DroppedPacketsInMac 	0
scalar IntersectionExampleScenario.node[41].nic.mac1609_4 	TooLittleTime 	0
scalar IntersectionExampleScenario.node[41].nic.mac1609_4 	TimesIntoBackoff 	0
[...]
scalar IntersectionExampleScenario.node[493].veinsmobility 	totalCO2Emission 	131.90552316301
scalar IntersectionExampleScenario.node[494].appl 	VehicleRemoved 	0
scalar IntersectionExampleScenario.node[494].appl 	ArrivedAtDest 	0
scalar IntersectionExampleScenario.node[494].appl 	IntersectionEnterTime 	1763.75
scalar IntersectionExampleScenario.node[494].appl 	IntersectionExitTime 	1791.3086498823
scalar IntersectionExampleScenario.node[494].appl 	NumberOfCollisions 	0
scalar IntersectionExampleScenario.node[494].nic.phy80211p 	busyTime 	0
scalar IntersectionExampleScenario.node[494].nic.mac1609_4 	ReceivedUnicastPackets 	0
scalar IntersectionExampleScenario.node[494].nic.mac1609_4 	ReceivedBroadcasts 	0
scalar IntersectionExampleScenario.node[494].nic.mac1609_4 	SentPackets 	0
scalar IntersectionExampleScenario.node[494].nic.mac1609_4 	SNIRLostPackets 	0
scalar IntersectionExampleScenario.node[494].nic.mac1609_4 	RXTXLostPackets 	0
scalar IntersectionExampleScenario.node[494].nic.mac1609_4 	TotalLostPackets 	0
scalar IntersectionExampleScenario.node[494].nic.mac1609_4 	DroppedPacketsInMac 	0
scalar IntersectionExampleScenario.node[494].nic.mac1609_4 	TooLittleTime 	0
scalar IntersectionExampleScenario.node[494].nic.mac1609_4 	TimesIntoBackoff 	0
scalar IntersectionExampleScenario.node[494].nic.mac1609_4 	SlotsBackoff 	0
scalar IntersectionExampleScenario.node[494].nic.mac1609_4 	NumInternalContention 	0
scalar IntersectionExampleScenario.node[494].nic.mac1609_4 	totalBusyTime 	0
scalar IntersectionExampleScenario.node[494].veinsmobility 	startTime 	1763.75
scalar IntersectionExampleScenario.node[494].veinsmobility 	totalTime 	36.25
scalar IntersectionExampleScenario.node[494].veinsmobility 	stopTime 	1800
scalar IntersectionExampleScenario.node[494].veinsmobility 	minSpeed 	4.7264833450317
scalar IntersectionExampleScenario.node[494].veinsmobility 	maxSpeed 	15.64999961853
scalar IntersectionExampleScenario.node[494].veinsmobility 	totalDistance 	422.59953694995
scalar IntersectionExampleScenario.node[494].veinsmobility 	totalCO2Emission 	118.92286414751
scalar IntersectionExampleScenario.node[495].appl 	VehicleRemoved 	0
scalar IntersectionExampleScenario.node[495].appl 	ArrivedAtDest 	0
scalar IntersectionExampleScenario.node[495].appl 	IntersectionEnterTime 	1765
scalar IntersectionExampleScenario.node[495].appl 	IntersectionExitTime 	1791.3536841976
scalar IntersectionExampleScenario.node[495].appl 	NumberOfCollisions 	0
scalar IntersectionExampleScenario.node[495].nic.phy80211p 	busyTime 	0
scalar IntersectionExampleScenario.node[495].nic.mac1609_4 	ReceivedUnicastPackets 	0
scalar IntersectionExampleScenario.node[495].nic.mac1609_4 	ReceivedBroadcasts 	0
scalar IntersectionExampleScenario.node[495].nic.mac1609_4 	SentPackets 	0
scalar IntersectionExampleScenario.node[495].nic.mac1609_4 	SNIRLostPackets 	0
scalar IntersectionExampleScenario.node[495].nic.mac1609_4 	RXTXLostPackets 	0
scalar IntersectionExampleScenario.node[495].nic.mac1609_4 	TotalLostPackets 	0
scalar IntersectionExampleScenario.node[495].nic.mac1609_4 	DroppedPacketsInMac 	0
scalar IntersectionExampleScenario.node[495].nic.mac1609_4 	TooLittleTime 	0
scalar IntersectionExampleScenario.node[495].nic.mac1609_4 	TimesIntoBackoff 	0
scalar IntersectionExampleScenario.node[495].nic.mac1609_4 	SlotsBackoff 	0
scalar IntersectionExampleScenario.node[495].nic.mac1609_4 	NumInternalContention 	0
scalar IntersectionExampleScenario.node[495].nic.mac1609_4 	totalBusyTime 	0
scalar IntersectionExampleScenario.node[495].veinsmobility 	startTime 	1765
scalar IntersectionExampleScenario.node[495].veinsmobility 	totalTime 	35
scalar IntersectionExampleScenario.node[495].veinsmobility 	stopTime 	1800
scalar IntersectionExampleScenario.node[495].veinsmobility 	minSpeed 	5.6500000953674
scalar IntersectionExampleScenario.node[495].veinsmobility 	maxSpeed 	15.64999961853
scalar IntersectionExampleScenario.node[495].veinsmobility 	totalDistance 	443.66660308838
scalar IntersectionExampleScenario.node[495].veinsmobility 	totalCO2Emission 	117.86723895402
scalar IntersectionExampleScenario.node[496].appl 	VehicleRemoved 	0
scalar IntersectionExampleScenario.node[496].appl 	ArrivedAtDest 	0
scalar IntersectionExampleScenario.node[496].appl 	IntersectionEnterTime 	1774.5
scalar IntersectionExampleScenario.node[496].appl 	IntersectionExitTime 	-1
scalar IntersectionExampleScenario.node[496].appl 	NumberOfCollisions 	0
scalar IntersectionExampleScenario.node[496].nic.phy80211p 	busyTime 	0
scalar IntersectionExampleScenario.node[496].nic.mac1609_4 	ReceivedUnicastPackets 	0
scalar IntersectionExampleScenario.node[496].nic.mac1609_4 	ReceivedBroadcasts 	0
scalar IntersectionExampleScenario.node[496].nic.mac1609_4 	SentPackets 	0
scalar IntersectionExampleScenario.node[496].nic.mac1609_4 	SNIRLostPackets 	0
scalar IntersectionExampleScenario.node[496].nic.mac1609_4 	RXTXLostPackets 	0
scalar IntersectionExampleScenario.node[496].nic.mac1609_4 	TotalLostPackets 	0
scalar IntersectionExampleScenario.node[496].nic.mac1609_4 	DroppedPacketsInMac 	0
scalar IntersectionExampleScenario.node[496].nic.mac1609_4 	TooLittleTime 	0
scalar IntersectionExampleScenario.node[496].nic.mac1609_4 	TimesIntoBackoff 	0
scalar IntersectionExampleScenario.node[496].nic.mac1609_4 	SlotsBackoff 	0
scalar IntersectionExampleScenario.node[496].nic.mac1609_4 	NumInternalContention 	0
scalar IntersectionExampleScenario.node[496].nic.mac1609_4 	totalBusyTime 	0
scalar IntersectionExampleScenario.node[496].veinsmobility 	startTime 	1774.5
scalar IntersectionExampleScenario.node[496].veinsmobility 	totalTime 	25.5
scalar IntersectionExampleScenario.node[496].veinsmobility 	stopTime 	1800
scalar IntersectionExampleScenario.node[496].veinsmobility 	minSpeed 	0
scalar IntersectionExampleScenario.node[496].veinsmobility 	maxSpeed 	15.02499961853
scalar IntersectionExampleScenario.node[496].veinsmobility 	totalDistance 	287.42188262939
scalar IntersectionExampleScenario.node[496].veinsmobility 	totalCO2Emission 	66.607418795764
scalar IntersectionExampleScenario.node[497].appl 	VehicleRemoved 	0
scalar IntersectionExampleScenario.node[497].appl 	ArrivedAtDest 	0
scalar IntersectionExampleScenario.node[497].appl 	IntersectionEnterTime 	1775.25
scalar IntersectionExampleScenario.node[497].appl 	IntersectionExitTime 	-1
scalar IntersectionExampleScenario.node[497].appl 	NumberOfCollisions 	0
scalar IntersectionExampleScenario.node[497].nic.phy80211p 	busyTime 	0
scalar IntersectionExampleScenario.node[497].nic.mac1609_4 	ReceivedUnicastPackets 	0
scalar IntersectionExampleScenario.node[497].nic.mac1609_4 	ReceivedBroadcasts 	0
scalar IntersectionExampleScenario.node[497].nic.mac1609_4 	SentPackets 	0
scalar IntersectionExampleScenario.node[497].nic.mac1609_4 	SNIRLostPackets 	0
scalar IntersectionExampleScenario.node[497].nic.mac1609_4 	RXTXLostPackets 	0
scalar IntersectionExampleScenario.node[497].nic.mac1609_4 	TotalLostPackets 	0
scalar IntersectionExampleScenario.node[497].nic.mac1609_4 	DroppedPacketsInMac 	0
scalar IntersectionExampleScenario.node[497].nic.mac1609_4 	TooLittleTime 	0
scalar IntersectionExampleScenario.node[497].nic.mac1609_4 	TimesIntoBackoff 	0
scalar IntersectionExampleScenario.node[497].nic.mac1609_4 	SlotsBackoff 	0
scalar IntersectionExampleScenario.node[497].nic.mac1609_4 	NumInternalContention 	0
scalar IntersectionExampleScenario.node[497].nic.mac1609_4 	totalBusyTime 	0
scalar IntersectionExampleScenario.node[497].veinsmobility 	startTime 	1775.25
scalar IntersectionExampleScenario.node[497].veinsmobility 	totalTime 	24.75
scalar IntersectionExampleScenario.node[497].veinsmobility 	stopTime 	1800
scalar IntersectionExampleScenario.node[497].veinsmobility 	minSpeed 	0
scalar IntersectionExampleScenario.node[497].veinsmobility 	maxSpeed 	16.89999961853
scalar IntersectionExampleScenario.node[497].veinsmobility 	totalDistance 	287.42190551758
scalar IntersectionExampleScenario.node[497].veinsmobility 	totalCO2Emission 	72.697671914151
scalar IntersectionExampleScenario.node[498].appl 	VehicleRemoved 	0
scalar IntersectionExampleScenario.node[498].appl 	ArrivedAtDest 	0
scalar IntersectionExampleScenario.node[498].appl 	IntersectionEnterTime 	1776.75
scalar IntersectionExampleScenario.node[498].appl 	IntersectionExitTime 	-1
scalar IntersectionExampleScenario.node[498].appl 	NumberOfCollisions 	0
scalar IntersectionExampleScenario.node[498].nic.phy80211p 	busyTime 	0
scalar IntersectionExampleScenario.node[498].nic.mac1609_4 	ReceivedUnicastPackets 	0
scalar IntersectionExampleScenario.node[498].nic.mac1609_4 	ReceivedBroadcasts 	0
scalar IntersectionExampleScenario.node[498].nic.mac1609_4 	SentPackets 	0
scalar IntersectionExampleScenario.node[498].nic.mac1609_4 	SNIRLostPackets 	0
scalar IntersectionExampleScenario.node[498].nic.mac1609_4 	RXTXLostPackets 	0
scalar IntersectionExampleScenario.node[498].nic.mac1609_4 	TotalLostPackets 	0
scalar IntersectionExampleScenario.node[498].nic.mac1609_4 	DroppedPacketsInMac 	0
scalar IntersectionExampleScenario.node[498].nic.mac1609_4 	TooLittleTime 	0
scalar IntersectionExampleScenario.node[498].nic.mac1609_4 	TimesIntoBackoff 	0
scalar IntersectionExampleScenario.node[498].nic.mac1609_4 	SlotsBackoff 	0
scalar IntersectionExampleScenario.node[498].nic.mac1609_4 	NumInternalContention 	0
scalar IntersectionExampleScenario.node[498].nic.mac1609_4 	totalBusyTime 	0
scalar IntersectionExampleScenario.node[498].veinsmobility 	startTime 	1776.75
scalar IntersectionExampleScenario.node[498].veinsmobility 	totalTime 	23.25
scalar IntersectionExampleScenario.node[498].veinsmobility 	stopTime 	1800
scalar IntersectionExampleScenario.node[498].veinsmobility 	minSpeed 	1.4172303676605
scalar IntersectionExampleScenario.node[498].veinsmobility 	maxSpeed 	15.376738548279
scalar IntersectionExampleScenario.node[498].veinsmobility 	totalDistance 	296.49883270264
scalar IntersectionExampleScenario.node[498].veinsmobility 	totalCO2Emission 	66.887876260863
scalar IntersectionExampleScenario.node[499].appl 	VehicleRemoved 	0
scalar IntersectionExampleScenario.node[499].appl 	ArrivedAtDest 	0
scalar IntersectionExampleScenario.node[499].appl 	IntersectionEnterTime 	1783.5
scalar IntersectionExampleScenario.node[499].appl 	IntersectionExitTime 	-1
scalar IntersectionExampleScenario.node[499].appl 	NumberOfCollisions 	0
scalar IntersectionExampleScenario.node[499].nic.phy80211p 	busyTime 	0
scalar IntersectionExampleScenario.node[499].nic.mac1609_4 	ReceivedUnicastPackets 	0
scalar IntersectionExampleScenario.node[499].nic.mac1609_4 	ReceivedBroadcasts 	0
scalar IntersectionExampleScenario.node[499].nic.mac1609_4 	SentPackets 	0
scalar IntersectionExampleScenario.node[499].nic.mac1609_4 	SNIRLostPackets 	0
scalar IntersectionExampleScenario.node[499].nic.mac1609_4 	RXTXLostPackets 	0
scalar IntersectionExampleScenario.node[499].nic.mac1609_4 	TotalLostPackets 	0
scalar IntersectionExampleScenario.node[499].nic.mac1609_4 	DroppedPacketsInMac 	0
scalar IntersectionExampleScenario.node[499].nic.mac1609_4 	TooLittleTime 	0
scalar IntersectionExampleScenario.node[499].nic.mac1609_4 	TimesIntoBackoff 	0
scalar IntersectionExampleScenario.node[499].nic.mac1609_4 	SlotsBackoff 	0
scalar IntersectionExampleScenario.node[499].nic.mac1609_4 	NumInternalContention 	0
scalar IntersectionExampleScenario.node[499].nic.mac1609_4 	totalBusyTime 	0
scalar IntersectionExampleScenario.node[499].veinsmobility 	startTime 	1783.5
scalar IntersectionExampleScenario.node[499].veinsmobility 	totalTime 	16.5
scalar IntersectionExampleScenario.node[499].veinsmobility 	stopTime 	1800
scalar IntersectionExampleScenario.node[499].veinsmobility 	minSpeed 	5.6500000953674
scalar IntersectionExampleScenario.node[499].veinsmobility 	maxSpeed 	15.64999961853
scalar IntersectionExampleScenario.node[499].veinsmobility 	totalDistance 	221.75373077393
scalar IntersectionExampleScenario.node[499].veinsmobility 	totalCO2Emission 	54.511166303858
scalar IntersectionExampleScenario.node[500].appl 	VehicleRemoved 	0
scalar IntersectionExampleScenario.node[500].appl 	ArrivedAtDest 	0
scalar IntersectionExampleScenario.node[500].appl 	IntersectionEnterTime 	1786.25
scalar IntersectionExampleScenario.node[500].appl 	IntersectionExitTime 	-1
scalar IntersectionExampleScenario.node[500].appl 	NumberOfCollisions 	0
scalar IntersectionExampleScenario.node[500].nic.phy80211p 	busyTime 	0
scalar IntersectionExampleScenario.node[500].nic.mac1609_4 	ReceivedUnicastPackets 	0
scalar IntersectionExampleScenario.node[500].nic.mac1609_4 	ReceivedBroadcasts 	0
scalar IntersectionExampleScenario.node[500].nic.mac1609_4 	SentPackets 	0
scalar IntersectionExampleScenario.node[500].nic.mac1609_4 	SNIRLostPackets 	0
scalar IntersectionExampleScenario.node[500].nic.mac1609_4 	RXTXLostPackets 	0
scalar IntersectionExampleScenario.node[500].nic.mac1609_4 	TotalLostPackets 	0
scalar IntersectionExampleScenario.node[500].nic.mac1609_4 	DroppedPacketsInMac 	0
scalar IntersectionExampleScenario.node[500].nic.mac1609_4 	TooLittleTime 	0
scalar IntersectionExampleScenario.node[500].nic.mac1609_4 	TimesIntoBackoff 	0
scalar IntersectionExampleScenario.node[500].nic.mac1609_4 	SlotsBackoff 	0
scalar IntersectionExampleScenario.node[500].nic.mac1609_4 	NumInternalContention 	0
scalar IntersectionExampleScenario.node[500].nic.mac1609_4 	totalBusyTime 	0
scalar IntersectionExampleScenario.node[500].veinsmobility 	startTime 	1786.25
scalar IntersectionExampleScenario.node[500].veinsmobility 	totalTime 	13.75
scalar IntersectionExampleScenario.node[500].veinsmobility 	stopTime 	1800
scalar IntersectionExampleScenario.node[500].veinsmobility 	minSpeed 	5.6500000953674
scalar IntersectionExampleScenario.node[500].veinsmobility 	maxSpeed 	15.64999961853
scalar IntersectionExampleScenario.node[500].veinsmobility 	totalDistance 	189.31860351562
scalar IntersectionExampleScenario.node[500].veinsmobility 	totalCO2Emission 	52.400669892721
scalar IntersectionExampleScenario.node[501].appl 	VehicleRemoved 	0
scalar IntersectionExampleScenario.node[501].appl 	ArrivedAtDest 	0
scalar IntersectionExampleScenario.node[501].appl 	IntersectionEnterTime 	1790.75
scalar IntersectionExampleScenario.node[501].appl 	IntersectionExitTime 	-1
scalar IntersectionExampleScenario.node[501].appl 	NumberOfCollisions 	0
scalar IntersectionExampleScenario.node[501].nic.phy80211p 	busyTime 	0
scalar IntersectionExampleScenario.node[501].nic.mac1609_4 	ReceivedUnicastPackets 	0
scalar IntersectionExampleScenario.node[501].nic.mac1609_4 	ReceivedBroadcasts 	0
scalar IntersectionExampleScenario.node[501].nic.mac1609_4 	SentPackets 	0
scalar IntersectionExampleScenario.node[501].nic.mac1609_4 	SNIRLostPackets 	0
scalar IntersectionExampleScenario.node[501].nic.mac1609_4 	RXTXLostPackets 	0
scalar IntersectionExampleScenario.node[501].nic.mac1609_4 	TotalLostPackets 	0
scalar IntersectionExampleScenario.node[501].nic.mac1609_4 	DroppedPacketsInMac 	0
scalar IntersectionExampleScenario.node[501].nic.mac1609_4 	TooLittleTime 	0
scalar IntersectionExampleScenario.node[501].nic.mac1609_4 	TimesIntoBackoff 	0
scalar IntersectionExampleScenario.node[501].nic.mac1609_4 	SlotsBackoff 	0
scalar IntersectionExampleScenario.node[501].nic.mac1609_4 	NumInternalContention 	0
scalar IntersectionExampleScenario.node[501].nic.mac1609_4 	totalBusyTime 	0
scalar IntersectionExampleScenario.node[501].veinsmobility 	startTime 	1790.75
scalar IntersectionExampleScenario.node[501].veinsmobility 	totalTime 	9.25
scalar IntersectionExampleScenario.node[501].veinsmobility 	stopTime 	1800
scalar IntersectionExampleScenario.node[501].veinsmobility 	minSpeed 	5.6500000953674
scalar IntersectionExampleScenario.node[501].veinsmobility 	maxSpeed 	15.64999961853
scalar IntersectionExampleScenario.node[501].veinsmobility 	totalDistance 	120.62100982666
scalar IntersectionExampleScenario.node[501].veinsmobility 	totalCO2Emission 	43.135968775869
scalar IntersectionExampleScenario.node[502].appl 	VehicleRemoved 	0
scalar IntersectionExampleScenario.node[502].appl 	ArrivedAtDest 	0
scalar IntersectionExampleScenario.node[502].appl 	IntersectionEnterTime 	1795
scalar IntersectionExampleScenario.node[502].appl 	IntersectionExitTime 	-1
scalar IntersectionExampleScenario.node[502].appl 	NumberOfCollisions 	0
scalar IntersectionExampleScenario.node[502].nic.phy80211p 	busyTime 	0
scalar IntersectionExampleScenario.node[502].nic.mac1609_4 	ReceivedUnicastPackets 	0
scalar IntersectionExampleScenario.node[502].nic.mac1609_4 	ReceivedBroadcasts 	0
scalar IntersectionExampleScenario.node[502].nic.mac1609_4 	SentPackets 	0
scalar IntersectionExampleScenario.node[502].nic.mac1609_4 	SNIRLostPackets 	0
scalar IntersectionExampleScenario.node[502].nic.mac1609_4 	RXTXLostPackets 	0
scalar IntersectionExampleScenario.node[502].nic.mac1609_4 	TotalLostPackets 	0
scalar IntersectionExampleScenario.node[502].nic.mac1609_4 	DroppedPacketsInMac 	0
scalar IntersectionExampleScenario.node[502].nic.mac1609_4 	TooLittleTime 	0
scalar IntersectionExampleScenario.node[502].nic.mac1609_4 	TimesIntoBackoff 	0
scalar IntersectionExampleScenario.node[502].nic.mac1609_4 	SlotsBackoff 	0
scalar IntersectionExampleScenario.node[502].nic.mac1609_4 	NumInternalContention 	0
scalar IntersectionExampleScenario.node[502].nic.mac1609_4 	totalBusyTime 	0
scalar IntersectionExampleScenario.node[502].veinsmobility 	startTime 	1795
scalar IntersectionExampleScenario.node[502].veinsmobility 	totalTime 	5
scalar IntersectionExampleScenario.node[502].veinsmobility 	stopTime 	1800
scalar IntersectionExampleScenario.node[502].veinsmobility 	minSpeed 	5.6500000953674
scalar IntersectionExampleScenario.node[502].veinsmobility 	maxSpeed 	15.64999961853
scalar IntersectionExampleScenario.node[502].veinsmobility 	totalDistance 	55.554084777832
scalar IntersectionExampleScenario.node[502].veinsmobility 	totalCO2Emission 	34.449315121866
scalar IntersectionExampleScenario.node[503].appl 	VehicleRemoved 	0
scalar IntersectionExampleScenario.node[503].appl 	ArrivedAtDest 	0
scalar IntersectionExampleScenario.node[503].appl 	IntersectionEnterTime 	1799
scalar IntersectionExampleScenario.node[503].appl 	IntersectionExitTime 	-1
scalar IntersectionExampleScenario.node[503].appl 	NumberOfCollisions 	0
scalar IntersectionExampleScenario.node[503].nic.phy80211p 	busyTime 	0
scalar IntersectionExampleScenario.node[503].nic.mac1609_4 	ReceivedUnicastPackets 	0
scalar IntersectionExampleScenario.node[503].nic.mac1609_4 	ReceivedBroadcasts 	0
scalar IntersectionExampleScenario.node[503].nic.mac1609_4 	SentPackets 	0
scalar IntersectionExampleScenario.node[503].nic.mac1609_4 	SNIRLostPackets 	0
scalar IntersectionExampleScenario.node[503].nic.mac1609_4 	RXTXLostPackets 	0
scalar IntersectionExampleScenario.node[503].nic.mac1609_4 	TotalLostPackets 	0
scalar IntersectionExampleScenario.node[503].nic.mac1609_4 	DroppedPacketsInMac 	0
scalar IntersectionExampleScenario.node[503].nic.mac1609_4 	TooLittleTime 	0
scalar IntersectionExampleScenario.node[503].nic.mac1609_4 	TimesIntoBackoff 	0
scalar IntersectionExampleScenario.node[503].nic.mac1609_4 	SlotsBackoff 	0
scalar IntersectionExampleScenario.node[503].nic.mac1609_4 	NumInternalContention 	0
scalar IntersectionExampleScenario.node[503].nic.mac1609_4 	totalBusyTime 	0
scalar IntersectionExampleScenario.node[503].veinsmobility 	startTime 	1799
scalar IntersectionExampleScenario.node[503].veinsmobility 	totalTime 	1
scalar IntersectionExampleScenario.node[503].veinsmobility 	stopTime 	1800
scalar IntersectionExampleScenario.node[503].veinsmobility 	minSpeed 	5.6500000953674
scalar IntersectionExampleScenario.node[503].veinsmobility 	maxSpeed 	7.5250000953674
scalar IntersectionExampleScenario.node[503].veinsmobility 	totalDistance 	6.2750244140625
scalar IntersectionExampleScenario.node[503].veinsmobility 	totalCO2Emission 	4.2232135025359
