version 2
run nodebug-23-20200606-15:50:41-20656
attr configname nodebug
attr datetime 20200606-15:50:41
attr experiment nodebug
attr inifile omnetpp.ini
attr iterationvars ""
attr iterationvars2 $repetition=23
attr measurement ""
attr network "\"org.car2x.veins.modules.application.ExtTraCIScenarioManagerLaunchd.IntersectionExampleScenario\""
attr processid 20656
attr repetition 23
attr replication #23
attr resultdir results
attr runnumber 23
attr seedset 23
param **.coreDebug false
param **.debug false
param *.**.nic.mac1609_4.bitrate 18Mbps
param *.**.nic.mac1609_4.txPower 20mW
param *.**.nic.mac1609_4.useServiceChannel false
param *.**.nic.phy80211p.analogueModels "xmldoc(\"config.xml\")"
param *.**.nic.phy80211p.decider "xmldoc(\"config.xml\")"
param *.**.nic.phy80211p.sensitivity -89dBm
param *.**.nic.phy80211p.thermalNoise -110dBm
param *.**.nic.phy80211p.usePropagationDelay true
param *.**.nic.phy80211p.useThermalNoise true
param *.annotations.draw false
param *.connectionManager.alpha 2.0
param *.connectionManager.carrierFrequency "5.890e9 Hz"
param *.connectionManager.pMax 20mW
param *.connectionManager.sat -89dBm
param *.connectionManager.sendDirect true
param *.manager.autoShutdown true
param *.manager.host "\"localhost\""
param *.manager.launchConfig "xmldoc(\"paramics.launchd.xml\")"
param *.manager.margin 25
param *.manager.moduleDisplayString "\"\""
param *.manager.moduleName "\"node\""
param *.manager.moduleType "\"org.car2x.veins.nodes.Car\""
param *.manager.port 9999
param *.manager.updateInterval 250ms
param *.node[*0].veinsmobility.accidentCount 0
param *.node[*0].veinsmobility.accidentDuration 30s
param *.node[*0].veinsmobility.accidentStart 75s
param *.node[*].appl.LiderSelectZoneRadio 55.0
param *.node[*].appl.ShareDataZoneRadio 110.0
param *.node[*].appl.TiempoSemaforo 30.0
param *.node[*].appl.beaconInterval 1s
param *.node[*].appl.beaconPriority 3
param *.node[*].appl.dataOnSch false
param *.node[*].appl.dataPriority 2
param *.node[*].appl.debug false
param *.node[*].appl.headerLength "256 bit"
param *.node[*].appl.maxOffset 0.005s
param *.node[*].appl.sendBeacons false
param *.node[*].appl.sendData true
param *.node[*].applType "\"Dummy\""
param *.node[*].mobilityType "\"TraCIMobility\""
param *.node[*].mobilityType.debug true
param *.node[*].veinsmobility.x 0
param *.node[*].veinsmobility.y 0
param *.node[*].veinsmobility.z 1.895
param *.node[*].veinsmobilityType "\"org.car2x.veins.modules.mobility.traci.TraCIMobility\""
param *.node[*].veinsmobilityType.debug true
param *.playgroundSizeX 8500m
param *.playgroundSizeY 8500m
param *.playgroundSizeZ 50m
param *.world.use2D false
param *.world.useTorus false

scalar IntersectionExampleScenario.node[0].appl 	VehicleRemoved 	0
scalar IntersectionExampleScenario.node[0].appl 	ArrivedAtDest 	1
scalar IntersectionExampleScenario.node[0].appl 	IntersectionEnterTime 	4.5
scalar IntersectionExampleScenario.node[0].appl 	IntersectionExitTime 	28.535299480864
scalar IntersectionExampleScenario.node[0].appl 	NumberOfCollisions 	0
scalar IntersectionExampleScenario.node[0].nic.phy80211p 	busyTime 	0
scalar IntersectionExampleScenario.node[0].nic.mac1609_4 	ReceivedUnicastPackets 	0
scalar IntersectionExampleScenario.node[0].nic.mac1609_4 	ReceivedBroadcasts 	0
scalar IntersectionExampleScenario.node[0].nic.mac1609_4 	SentPackets 	0
scalar IntersectionExampleScenario.node[0].nic.mac1609_4 	SNIRLostPackets 	0
scalar IntersectionExampleScenario.node[0].nic.mac1609_4 	RXTXLostPackets 	0
scalar IntersectionExampleScenario.node[0].nic.mac1609_4 	TotalLostPackets 	0
scalar IntersectionExampleScenario.node[0].nic.mac1609_4 	DroppedPacketsInMac 	0
scalar IntersectionExampleScenario.node[0].nic.mac1609_4 	TooLittleTime 	0
scalar IntersectionExampleScenario.node[0].nic.mac1609_4 	TimesIntoBackoff 	0
scalar IntersectionExampleScenario.node[0].nic.mac1609_4 	SlotsBackoff 	0
scalar IntersectionExampleScenario.node[0].nic.mac1609_4 	NumInternalContention 	0
scalar IntersectionExampleScenario.node[0].nic.mac1609_4 	totalBusyTime 	0
scalar IntersectionExampleScenario.node[0].veinsmobility 	startTime 	4.5
scalar IntersectionExampleScenario.node[0].veinsmobility 	totalTime 	41
scalar IntersectionExampleScenario.node[0].veinsmobility 	stopTime 	45.75
scalar IntersectionExampleScenario.node[0].veinsmobility 	minSpeed 	5.6500000953674
scalar IntersectionExampleScenario.node[0].veinsmobility 	maxSpeed 	15.02499961853
scalar IntersectionExampleScenario.node[0].veinsmobility 	totalDistance 	551.09261731788
scalar IntersectionExampleScenario.node[0].veinsmobility 	totalCO2Emission 	118.53866248007
scalar IntersectionExampleScenario.node[1].appl 	VehicleRemoved 	0
scalar IntersectionExampleScenario.node[1].appl 	ArrivedAtDest 	1
scalar IntersectionExampleScenario.node[1].appl 	IntersectionEnterTime 	12.25
scalar IntersectionExampleScenario.node[1].appl 	IntersectionExitTime 	36.049055308278
scalar IntersectionExampleScenario.node[1].appl 	NumberOfCollisions 	0
scalar IntersectionExampleScenario.node[1].nic.phy80211p 	busyTime 	0
scalar IntersectionExampleScenario.node[1].nic.mac1609_4 	ReceivedUnicastPackets 	0
scalar IntersectionExampleScenario.node[1].nic.mac1609_4 	ReceivedBroadcasts 	0
scalar IntersectionExampleScenario.node[1].nic.mac1609_4 	SentPackets 	0
scalar IntersectionExampleScenario.node[1].nic.mac1609_4 	SNIRLostPackets 	0
scalar IntersectionExampleScenario.node[1].nic.mac1609_4 	RXTXLostPackets 	0
scalar IntersectionExampleScenario.node[1].nic.mac1609_4 	TotalLostPackets 	0
scalar IntersectionExampleScenario.node[1].nic.mac1609_4 	DroppedPacketsInMac 	0
scalar IntersectionExampleScenario.node[1].nic.mac1609_4 	TooLittleTime 	0
scalar IntersectionExampleScenario.node[1].nic.mac1609_4 	TimesIntoBackoff 	0
scalar IntersectionExampleScenario.node[1].nic.mac1609_4 	SlotsBackoff 	0
scalar IntersectionExampleScenario.node[1].nic.mac1609_4 	NumInternalContention 	0
scalar IntersectionExampleScenario.node[1].nic.mac1609_4 	totalBusyTime 	0
scalar IntersectionExampleScenario.node[1].veinsmobility 	startTime 	12.25
scalar IntersectionExampleScenario.node[1].veinsmobility 	totalTime 	40.5
scalar IntersectionExampleScenario.node[1].veinsmobility 	stopTime 	53
scalar IntersectionExampleScenario.node[1].veinsmobility 	minSpeed 	5.6500000953674
scalar IntersectionExampleScenario.node[1].veinsmobility 	maxSpeed 	15.25
scalar IntersectionExampleScenario.node[1].veinsmobility 	totalDistance 	543.14953633273
scalar IntersectionExampleScenario.node[1].veinsmobility 	totalCO2Emission 	124.83509642737
scalar IntersectionExampleScenario.node[4].appl 	VehicleRemoved 	0
scalar IntersectionExampleScenario.node[4].appl 	ArrivedAtDest 	1
scalar IntersectionExampleScenario.node[4].appl 	IntersectionEnterTime 	22.5
scalar IntersectionExampleScenario.node[4].appl 	IntersectionExitTime 	46.035991804703
scalar IntersectionExampleScenario.node[4].appl 	NumberOfCollisions 	0
scalar IntersectionExampleScenario.node[4].nic.phy80211p 	busyTime 	0
scalar IntersectionExampleScenario.node[4].nic.mac1609_4 	ReceivedUnicastPackets 	0
scalar IntersectionExampleScenario.node[4].nic.mac1609_4 	ReceivedBroadcasts 	0
scalar IntersectionExampleScenario.node[4].nic.mac1609_4 	SentPackets 	0
scalar IntersectionExampleScenario.node[4].nic.mac1609_4 	SNIRLostPackets 	0
scalar IntersectionExampleScenario.node[4].nic.mac1609_4 	RXTXLostPackets 	0
scalar IntersectionExampleScenario.node[4].nic.mac1609_4 	TotalLostPackets 	0
scalar IntersectionExampleScenario.node[4].nic.mac1609_4 	DroppedPacketsInMac 	0
scalar IntersectionExampleScenario.node[4].nic.mac1609_4 	TooLittleTime 	0
scalar IntersectionExampleScenario.node[4].nic.mac1609_4 	TimesIntoBackoff 	0
scalar IntersectionExampleScenario.node[4].nic.mac1609_4 	SlotsBackoff 	0
scalar IntersectionExampleScenario.node[4].nic.mac1609_4 	NumInternalContention 	0
scalar IntersectionExampleScenario.node[4].nic.mac1609_4 	totalBusyTime 	0
scalar IntersectionExampleScenario.node[4].veinsmobility 	startTime 	22.5
scalar IntersectionExampleScenario.node[4].veinsmobility 	totalTime 	40
scalar IntersectionExampleScenario.node[4].veinsmobility 	stopTime 	62.75
scalar IntersectionExampleScenario.node[4].veinsmobility 	minSpeed 	5.6500000953674
scalar IntersectionExampleScenario.node[4].veinsmobility 	maxSpeed 	15.375
scalar IntersectionExampleScenario.node[4].veinsmobility 	totalDistance 	549.31681621147
scalar IntersectionExampleScenario.node[4].veinsmobility 	totalCO2Emission 	120.7194466891
scalar IntersectionExampleScenario.node[5].appl 	VehicleRemoved 	0
scalar IntersectionExampleScenario.node[5].appl 	ArrivedAtDest 	1
scalar IntersectionExampleScenario.node[5].appl 	IntersectionEnterTime 	24
scalar IntersectionExampleScenario.node[5].appl 	IntersectionExitTime 	47.000066101435
scalar IntersectionExampleScenario.node[5].appl 	NumberOfCollisions 	0
scalar IntersectionExampleScenario.node[5].nic.phy80211p 	busyTime 	0
scalar IntersectionExampleScenario.node[5].nic.mac1609_4 	ReceivedUnicastPackets 	0
scalar IntersectionExampleScenario.node[5].nic.mac1609_4 	ReceivedBroadcasts 	0
scalar IntersectionExampleScenario.node[5].nic.mac1609_4 	SentPackets 	0
scalar IntersectionExampleScenario.node[5].nic.mac1609_4 	SNIRLostPackets 	0
scalar IntersectionExampleScenario.node[5].nic.mac1609_4 	RXTXLostPackets 	0
scalar IntersectionExampleScenario.node[5].nic.mac1609_4 	TotalLostPackets 	0
scalar IntersectionExampleScenario.node[5].nic.mac1609_4 	DroppedPacketsInMac 	0
scalar IntersectionExampleScenario.node[5].nic.mac1609_4 	TooLittleTime 	0
scalar IntersectionExampleScenario.node[5].nic.mac1609_4 	TimesIntoBackoff 	0
scalar IntersectionExampleScenario.node[5].nic.mac1609_4 	SlotsBackoff 	0
scalar IntersectionExampleScenario.node[5].nic.mac1609_4 	NumInternalContention 	0
scalar IntersectionExampleScenario.node[5].nic.mac1609_4 	totalBusyTime 	0
scalar IntersectionExampleScenario.node[5].veinsmobility 	startTime 	24
scalar IntersectionExampleScenario.node[5].veinsmobility 	totalTime 	39.25
scalar IntersectionExampleScenario.node[5].veinsmobility 	stopTime 	63.5
scalar IntersectionExampleScenario.node[5].veinsmobility 	minSpeed 	5.6500000953674
scalar IntersectionExampleScenario.node[5].veinsmobility 	maxSpeed 	15.5
scalar IntersectionExampleScenario.node[5].veinsmobility 	totalDistance 	552.7950592041
scalar IntersectionExampleScenario.node[5].veinsmobility 	totalCO2Emission 	116.15807789636
scalar IntersectionExampleScenario.node[2].appl 	VehicleRemoved 	0
scalar IntersectionExampleScenario.node[2].appl 	ArrivedAtDest 	1
scalar IntersectionExampleScenario.node[2].appl 	IntersectionEnterTime 	18.5
scalar IntersectionExampleScenario.node[2].appl 	IntersectionExitTime 	49.360504022014
scalar IntersectionExampleScenario.node[2].appl 	NumberOfCollisions 	0
scalar IntersectionExampleScenario.node[2].nic.phy80211p 	busyTime 	0
scalar IntersectionExampleScenario.node[2].nic.mac1609_4 	ReceivedUnicastPackets 	0
scalar IntersectionExampleScenario.node[2].nic.mac1609_4 	ReceivedBroadcasts 	0
scalar IntersectionExampleScenario.node[2].nic.mac1609_4 	SentPackets 	0
scalar IntersectionExampleScenario.node[2].nic.mac1609_4 	SNIRLostPackets 	0
scalar IntersectionExampleScenario.node[2].nic.mac1609_4 	RXTXLostPackets 	0
scalar IntersectionExampleScenario.node[2].nic.mac1609_4 	TotalLostPackets 	0
scalar IntersectionExampleScenario.node[2].nic.mac1609_4 	DroppedPacketsInMac 	0
scalar IntersectionExampleScenario.node[2].nic.mac1609_4 	TooLittleTime 	0
scalar IntersectionExampleScenario.node[2].nic.mac1609_4 	TimesIntoBackoff 	0
scalar IntersectionExampleScenario.node[2].nic.mac1609_4 	SlotsBackoff 	0
scalar IntersectionExampleScenario.node[2].nic.mac1609_4 	NumInternalContention 	0
scalar IntersectionExampleScenario.node[2].nic.mac1609_4 	totalBusyTime 	0
scalar IntersectionExampleScenario.node[2].veinsmobility 	startTime 	18.5
scalar IntersectionExampleScenario.node[2].veinsmobility 	totalTime 	46.75
scalar IntersectionExampleScenario.node[2].veinsmobility 	stopTime 	65.5
scalar IntersectionExampleScenario.node[2].veinsmobility 	minSpeed 	0
scalar IntersectionExampleScenario.node[2].veinsmobility 	maxSpeed 	15.64999961853
scalar IntersectionExampleScenario.node[2].veinsmobility 	totalDistance 	553.04892730713
scalar IntersectionExampleScenario.node[2].veinsmobility 	totalCO2Emission 	139.75449943389
scalar IntersectionExampleScenario.node[6].appl 	VehicleRemoved 	0
scalar IntersectionExampleScenario.node[6].appl 	ArrivedAtDest 	1
scalar IntersectionExampleScenario.node[6].appl 	IntersectionEnterTime 	26
scalar IntersectionExampleScenario.node[6].appl 	IntersectionExitTime 	49.543311179703
scalar IntersectionExampleScenario.node[6].appl 	NumberOfCollisions 	0
scalar IntersectionExampleScenario.node[6].nic.phy80211p 	busyTime 	0
scalar IntersectionExampleScenario.node[6].nic.mac1609_4 	ReceivedUnicastPackets 	0
scalar IntersectionExampleScenario.node[6].nic.mac1609_4 	ReceivedBroadcasts 	0
scalar IntersectionExampleScenario.node[6].nic.mac1609_4 	SentPackets 	0
scalar IntersectionExampleScenario.node[6].nic.mac1609_4 	SNIRLostPackets 	0
scalar IntersectionExampleScenario.node[6].nic.mac1609_4 	RXTXLostPackets 	0
scalar IntersectionExampleScenario.node[6].nic.mac1609_4 	TotalLostPackets 	0
scalar IntersectionExampleScenario.node[6].nic.mac1609_4 	DroppedPacketsInMac 	0
scalar IntersectionExampleScenario.node[6].nic.mac1609_4 	TooLittleTime 	0
scalar IntersectionExampleScenario.node[6].nic.mac1609_4 	TimesIntoBackoff 	0
scalar IntersectionExampleScenario.node[6].nic.mac1609_4 	SlotsBackoff 	0
scalar IntersectionExampleScenario.node[6].nic.mac1609_4 	NumInternalContention 	0
scalar IntersectionExampleScenario.node[6].nic.mac1609_4 	totalBusyTime 	0
scalar IntersectionExampleScenario.node[6].veinsmobility 	startTime 	26
scalar IntersectionExampleScenario.node[6].veinsmobility 	totalTime 	40.25
scalar IntersectionExampleScenario.node[6].veinsmobility 	stopTime 	66.5
scalar IntersectionExampleScenario.node[6].veinsmobility 	minSpeed 	5.6500000953674
scalar IntersectionExampleScenario.node[6].veinsmobility 	maxSpeed 	15.875
scalar IntersectionExampleScenario.node[6].veinsmobility 	totalDistance 	546.20352885814
scalar IntersectionExampleScenario.node[6].veinsmobility 	totalCO2Emission 	127.89088388245
scalar IntersectionExampleScenario.node[3].appl 	VehicleRemoved 	0
scalar IntersectionExampleScenario.node[3].appl 	ArrivedAtDest 	1
scalar IntersectionExampleScenario.node[3].appl 	IntersectionEnterTime 	19.75
scalar IntersectionExampleScenario.node[3].appl 	IntersectionExitTime 	51.87230336474
scalar IntersectionExampleScenario.node[3].appl 	NumberOfCollisions 	0
scalar IntersectionExampleScenario.node[3].nic.phy80211p 	busyTime 	0
scalar IntersectionExampleScenario.node[3].nic.mac1609_4 	ReceivedUnicastPackets 	0
scalar IntersectionExampleScenario.node[3].nic.mac1609_4 	ReceivedBroadcasts 	0
scalar IntersectionExampleScenario.node[3].nic.mac1609_4 	SentPackets 	0
scalar IntersectionExampleScenario.node[3].nic.mac1609_4 	SNIRLostPackets 	0
scalar IntersectionExampleScenario.node[3].nic.mac1609_4 	RXTXLostPackets 	0
scalar IntersectionExampleScenario.node[3].nic.mac1609_4 	TotalLostPackets 	0
scalar IntersectionExampleScenario.node[3].nic.mac1609_4 	DroppedPacketsInMac 	0
scalar IntersectionExampleScenario.node[3].nic.mac1609_4 	TooLittleTime 	0
scalar IntersectionExampleScenario.node[3].nic.mac1609_4 	TimesIntoBackoff 	0
scalar IntersectionExampleScenario.node[3].nic.mac1609_4 	SlotsBackoff 	0
scalar IntersectionExampleScenario.node[3].nic.mac1609_4 	NumInternalContention 	0
scalar IntersectionExampleScenario.node[3].nic.mac1609_4 	totalBusyTime 	0
scalar IntersectionExampleScenario.node[3].veinsmobility 	startTime 	19.75
scalar IntersectionExampleScenario.node[3].veinsmobility 	totalTime 	48
scalar IntersectionExampleScenario.node[3].veinsmobility 	stopTime 	68
scalar IntersectionExampleScenario.node[3].veinsmobility 	minSpeed 	0
scalar IntersectionExampleScenario.node[3].veinsmobility 	maxSpeed 	15.64999961853
scalar IntersectionExampleScenario.node[3].veinsmobility 	totalDistance 	574.46360015869
scalar IntersectionExampleScenario.node[3].veinsmobility 	totalCO2Emission 	141.74621019641
scalar IntersectionExampleScenario.node[7].appl 	VehicleRemoved 	0
scalar IntersectionExampleScenario.node[7].appl 	ArrivedAtDest 	1
scalar IntersectionExampleScenario.node[7].appl 	IntersectionEnterTime 	32
scalar IntersectionExampleScenario.node[7].appl 	IntersectionExitTime 	64.339731479937
scalar IntersectionExampleScenario.node[7].appl 	NumberOfCollisions 	0
scalar IntersectionExampleScenario.node[7].nic.phy80211p 	busyTime 	0
scalar IntersectionExampleScenario.node[7].nic.mac1609_4 	ReceivedUnicastPackets 	0
scalar IntersectionExampleScenario.node[7].nic.mac1609_4 	ReceivedBroadcasts 	0
scalar IntersectionExampleScenario.node[7].nic.mac1609_4 	SentPackets 	0
scalar IntersectionExampleScenario.node[7].nic.mac1609_4 	SNIRLostPackets 	0
scalar IntersectionExampleScenario.node[7].nic.mac1609_4 	RXTXLostPackets 	0
scalar IntersectionExampleScenario.node[7].nic.mac1609_4 	TotalLostPackets 	0
scalar IntersectionExampleScenario.node[7].nic.mac1609_4 	DroppedPacketsInMac 	0
scalar IntersectionExampleScenario.node[7].nic.mac1609_4 	TooLittleTime 	0
scalar IntersectionExampleScenario.node[7].nic.mac1609_4 	TimesIntoBackoff 	0
scalar IntersectionExampleScenario.node[7].nic.mac1609_4 	SlotsBackoff 	0
scalar IntersectionExampleScenario.node[7].nic.mac1609_4 	NumInternalContention 	0
scalar IntersectionExampleScenario.node[7].nic.mac1609_4 	totalBusyTime 	0
scalar IntersectionExampleScenario.node[7].veinsmobility 	startTime 	32
scalar IntersectionExampleScenario.node[7].veinsmobility 	totalTime 	48.25
scalar IntersectionExampleScenario.node[7].veinsmobility 	stopTime 	80.5
scalar IntersectionExampleScenario.node[7].veinsmobility 	minSpeed 	0
scalar IntersectionExampleScenario.node[7].veinsmobility 	maxSpeed 	15.64999961853
scalar IntersectionExampleScenario.node[7].veinsmobility 	totalDistance 	553.04892730713
scalar IntersectionExampleScenario.node[7].veinsmobility 	totalCO2Emission 	141.19922788386
scalar IntersectionExampleScenario.node[8].appl 	VehicleRemoved 	0
scalar IntersectionExampleScenario.node[8].appl 	ArrivedAtDest 	1
scalar IntersectionExampleScenario.node[8].appl 	IntersectionEnterTime 	33
scalar IntersectionExampleScenario.node[8].appl 	IntersectionExitTime 	65.009691760875
scalar IntersectionExampleScenario.node[8].appl 	NumberOfCollisions 	0
scalar IntersectionExampleScenario.node[8].nic.phy80211p 	busyTime 	0
scalar IntersectionExampleScenario.node[8].nic.mac1609_4 	ReceivedUnicastPackets 	0
scalar IntersectionExampleScenario.node[8].nic.mac1609_4 	ReceivedBroadcasts 	0
scalar IntersectionExampleScenario.node[8].nic.mac1609_4 	SentPackets 	0
scalar IntersectionExampleScenario.node[8].nic.mac1609_4 	SNIRLostPackets 	0
scalar IntersectionExampleScenario.node[8].nic.mac1609_4 	RXTXLostPackets 	0
scalar IntersectionExampleScenario.node[8].nic.mac1609_4 	TotalLostPackets 	0
scalar IntersectionExampleScenario.node[8].nic.mac1609_4 	DroppedPacketsInMac 	0
scalar IntersectionExampleScenario.node[8].nic.mac1609_4 	TooLittleTime 	0
scalar IntersectionExampleScenario.node[8].nic.mac1609_4 	TimesIntoBackoff 	0
scalar IntersectionExampleScenario.node[8].nic.mac1609_4 	SlotsBackoff 	0
scalar IntersectionExampleScenario.node[8].nic.mac1609_4 	NumInternalContention 	0
scalar IntersectionExampleScenario.node[8].nic.mac1609_4 	totalBusyTime 	0
scalar IntersectionExampleScenario.node[8].veinsmobility 	startTime 	33
scalar IntersectionExampleScenario.node[8].veinsmobility 	totalTime 	47.5
scalar IntersectionExampleScenario.node[8].veinsmobility 	stopTime 	80.75
scalar IntersectionExampleScenario.node[8].veinsmobility 	minSpeed 	-0.1715133190155
scalar IntersectionExampleScenario.node[8].veinsmobility 	maxSpeed 	16.625
scalar IntersectionExampleScenario.node[8].veinsmobility 	totalDistance 	573.04827206086
scalar IntersectionExampleScenario.node[8].veinsmobility 	totalCO2Emission 	150.49117417849
scalar IntersectionExampleScenario.node[9].appl 	VehicleRemoved 	0
scalar IntersectionExampleScenario.node[9].appl 	ArrivedAtDest 	1
scalar IntersectionExampleScenario.node[9].appl 	IntersectionEnterTime 	36.75
scalar IntersectionExampleScenario.node[9].appl 	IntersectionExitTime 	66.818496911379
scalar IntersectionExampleScenario.node[9].appl 	NumberOfCollisions 	0
scalar IntersectionExampleScenario.node[9].nic.phy80211p 	busyTime 	0
scalar IntersectionExampleScenario.node[9].nic.mac1609_4 	ReceivedUnicastPackets 	0
scalar IntersectionExampleScenario.node[9].nic.mac1609_4 	ReceivedBroadcasts 	0
scalar IntersectionExampleScenario.node[9].nic.mac1609_4 	SentPackets 	0
scalar IntersectionExampleScenario.node[9].nic.mac1609_4 	SNIRLostPackets 	0
scalar IntersectionExampleScenario.node[9].nic.mac1609_4 	RXTXLostPackets 	0
scalar IntersectionExampleScenario.node[9].nic.mac1609_4 	TotalLostPackets 	0
scalar IntersectionExampleScenario.node[9].nic.mac1609_4 	DroppedPacketsInMac 	0
scalar IntersectionExampleScenario.node[9].nic.mac1609_4 	TooLittleTime 	0
scalar IntersectionExampleScenario.node[9].nic.mac1609_4 	TimesIntoBackoff 	0
scalar IntersectionExampleScenario.node[9].nic.mac1609_4 	SlotsBackoff 	0
scalar IntersectionExampleScenario.node[9].nic.mac1609_4 	NumInternalContention 	0
scalar IntersectionExampleScenario.node[9].nic.mac1609_4 	totalBusyTime 	0
scalar IntersectionExampleScenario.node[9].veinsmobility 	startTime 	36.75
scalar IntersectionExampleScenario.node[9].veinsmobility 	totalTime 	46.25
scalar IntersectionExampleScenario.node[9].veinsmobility 	stopTime 	83.25
scalar IntersectionExampleScenario.node[9].veinsmobility 	minSpeed 	2.6312437057495
scalar IntersectionExampleScenario.node[9].veinsmobility 	maxSpeed 	15.875
scalar IntersectionExampleScenario.node[9].veinsmobility 	totalDistance 	561.70554342254
scalar IntersectionExampleScenario.node[9].veinsmobility 	totalCO2Emission 	140.50922866798
scalar IntersectionExampleScenario.node[12].appl 	VehicleRemoved 	0
scalar IntersectionExampleScenario.node[12].appl 	ArrivedAtDest 	1
scalar IntersectionExampleScenario.node[12].appl 	IntersectionEnterTime 	45.5
scalar IntersectionExampleScenario.node[12].appl 	IntersectionExitTime 	69.359803074854
scalar IntersectionExampleScenario.node[12].appl 	NumberOfCollisions 	0
scalar IntersectionExampleScenario.node[12].nic.phy80211p 	busyTime 	0
scalar IntersectionExampleScenario.node[12].nic.mac1609_4 	ReceivedUnicastPackets 	0
scalar IntersectionExampleScenario.node[12].nic.mac1609_4 	ReceivedBroadcasts 	0
scalar IntersectionExampleScenario.node[12].nic.mac1609_4 	SentPackets 	0
scalar IntersectionExampleScenario.node[12].nic.mac1609_4 	SNIRLostPackets 	0
scalar IntersectionExampleScenario.node[12].nic.mac1609_4 	RXTXLostPackets 	0
scalar IntersectionExampleScenario.node[12].nic.mac1609_4 	TotalLostPackets 	0
scalar IntersectionExampleScenario.node[12].nic.mac1609_4 	DroppedPacketsInMac 	0
scalar IntersectionExampleScenario.node[12].nic.mac1609_4 	TooLittleTime 	0
scalar IntersectionExampleScenario.node[12].nic.mac1609_4 	TimesIntoBackoff 	0
scalar IntersectionExampleScenario.node[12].nic.mac1609_4 	SlotsBackoff 	0
scalar IntersectionExampleScenario.node[12].nic.mac1609_4 	NumInternalContention 	0
scalar IntersectionExampleScenario.node[12].nic.mac1609_4 	totalBusyTime 	0
scalar IntersectionExampleScenario.node[12].veinsmobility 	startTime 	45.5
scalar IntersectionExampleScenario.node[12].veinsmobility 	totalTime 	40.75
scalar IntersectionExampleScenario.node[12].veinsmobility 	stopTime 	86.5
scalar IntersectionExampleScenario.node[12].veinsmobility 	minSpeed 	5.6500000953674
scalar IntersectionExampleScenario.node[12].veinsmobility 	maxSpeed 	15.25
scalar IntersectionExampleScenario.node[12].veinsmobility 	totalDistance 	544.36217005002
scalar IntersectionExampleScenario.node[12].veinsmobility 	totalCO2Emission 	124.10942652318
scalar IntersectionExampleScenario.node[13].appl 	VehicleRemoved 	0
scalar IntersectionExampleScenario.node[13].appl 	ArrivedAtDest 	1
scalar IntersectionExampleScenario.node[13].appl 	IntersectionEnterTime 	47.5
scalar IntersectionExampleScenario.node[13].appl 	IntersectionExitTime 	71.773722750397
scalar IntersectionExampleScenario.node[13].appl 	NumberOfCollisions 	0
scalar IntersectionExampleScenario.node[13].nic.phy80211p 	busyTime 	0
scalar IntersectionExampleScenario.node[13].nic.mac1609_4 	ReceivedUnicastPackets 	0
scalar IntersectionExampleScenario.node[13].nic.mac1609_4 	ReceivedBroadcasts 	0
scalar IntersectionExampleScenario.node[13].nic.mac1609_4 	SentPackets 	0
scalar IntersectionExampleScenario.node[13].nic.mac1609_4 	SNIRLostPackets 	0
scalar IntersectionExampleScenario.node[13].nic.mac1609_4 	RXTXLostPackets 	0
scalar IntersectionExampleScenario.node[13].nic.mac1609_4 	TotalLostPackets 	0
scalar IntersectionExampleScenario.node[13].nic.mac1609_4 	DroppedPacketsInMac 	0
scalar IntersectionExampleScenario.node[13].nic.mac1609_4 	TooLittleTime 	0
scalar IntersectionExampleScenario.node[13].nic.mac1609_4 	TimesIntoBackoff 	0
scalar IntersectionExampleScenario.node[13].nic.mac1609_4 	SlotsBackoff 	0
scalar IntersectionExampleScenario.node[13].nic.mac1609_4 	NumInternalContention 	0
scalar IntersectionExampleScenario.node[13].nic.mac1609_4 	totalBusyTime 	0
scalar IntersectionExampleScenario.node[13].veinsmobility 	startTime 	47.5
scalar IntersectionExampleScenario.node[13].veinsmobility 	totalTime 	40
scalar IntersectionExampleScenario.node[13].veinsmobility 	stopTime 	87.75
scalar IntersectionExampleScenario.node[13].veinsmobility 	minSpeed 	5.6500000953674
scalar IntersectionExampleScenario.node[13].veinsmobility 	maxSpeed 	15.5
scalar IntersectionExampleScenario.node[13].veinsmobility 	totalDistance 	570.37422180176
scalar IntersectionExampleScenario.node[13].veinsmobility 	totalCO2Emission 	129.20923691547
scalar IntersectionExampleScenario.node[14].appl 	VehicleRemoved 	0
scalar IntersectionExampleScenario.node[14].appl 	ArrivedAtDest 	1
scalar IntersectionExampleScenario.node[14].appl 	IntersectionEnterTime 	47.75
scalar IntersectionExampleScenario.node[14].appl 	IntersectionExitTime 	71.551568784838
scalar IntersectionExampleScenario.node[14].appl 	NumberOfCollisions 	0
scalar IntersectionExampleScenario.node[14].nic.phy80211p 	busyTime 	0
scalar IntersectionExampleScenario.node[14].nic.mac1609_4 	ReceivedUnicastPackets 	0
scalar IntersectionExampleScenario.node[14].nic.mac1609_4 	ReceivedBroadcasts 	0
scalar IntersectionExampleScenario.node[14].nic.mac1609_4 	SentPackets 	0
scalar IntersectionExampleScenario.node[14].nic.mac1609_4 	SNIRLostPackets 	0
scalar IntersectionExampleScenario.node[14].nic.mac1609_4 	RXTXLostPackets 	0
scalar IntersectionExampleScenario.node[14].nic.mac1609_4 	TotalLostPackets 	0
scalar IntersectionExampleScenario.node[14].nic.mac1609_4 	DroppedPacketsInMac 	0
scalar IntersectionExampleScenario.node[14].nic.mac1609_4 	TooLittleTime 	0
scalar IntersectionExampleScenario.node[14].nic.mac1609_4 	TimesIntoBackoff 	0
scalar IntersectionExampleScenario.node[14].nic.mac1609_4 	SlotsBackoff 	0
scalar IntersectionExampleScenario.node[14].nic.mac1609_4 	NumInternalContention 	0
scalar IntersectionExampleScenario.node[14].nic.mac1609_4 	totalBusyTime 	0
scalar IntersectionExampleScenario.node[14].veinsmobility 	startTime 	47.75
scalar IntersectionExampleScenario.node[14].veinsmobility 	totalTime 	40.5
scalar IntersectionExampleScenario.node[14].veinsmobility 	stopTime 	88.5
scalar IntersectionExampleScenario.node[14].veinsmobility 	minSpeed 	5.6500000953674
scalar IntersectionExampleScenario.node[14].veinsmobility 	maxSpeed 	15.825786590576
scalar IntersectionExampleScenario.node[14].veinsmobility 	totalDistance 	545.89721106273
scalar IntersectionExampleScenario.node[14].veinsmobility 	totalCO2Emission 	133.68766527984
scalar IntersectionExampleScenario.node[15].appl 	VehicleRemoved 	0
scalar IntersectionExampleScenario.node[15].appl 	ArrivedAtDest 	1
scalar IntersectionExampleScenario.node[15].appl 	IntersectionEnterTime 	51
scalar IntersectionExampleScenario.node[15].appl 	IntersectionExitTime 	74.797166557051
scalar IntersectionExampleScenario.node[15].appl 	NumberOfCollisions 	0
scalar IntersectionExampleScenario.node[15].nic.phy80211p 	busyTime 	0
scalar IntersectionExampleScenario.node[15].nic.mac1609_4 	ReceivedUnicastPackets 	0
scalar IntersectionExampleScenario.node[15].nic.mac1609_4 	ReceivedBroadcasts 	0
scalar IntersectionExampleScenario.node[15].nic.mac1609_4 	SentPackets 	0
scalar IntersectionExampleScenario.node[15].nic.mac1609_4 	SNIRLostPackets 	0
scalar IntersectionExampleScenario.node[15].nic.mac1609_4 	RXTXLostPackets 	0
scalar IntersectionExampleScenario.node[15].nic.mac1609_4 	TotalLostPackets 	0
scalar IntersectionExampleScenario.node[15].nic.mac1609_4 	DroppedPacketsInMac 	0
scalar IntersectionExampleScenario.node[15].nic.mac1609_4 	TooLittleTime 	0
scalar IntersectionExampleScenario.node[15].nic.mac1609_4 	TimesIntoBackoff 	0
scalar IntersectionExampleScenario.node[15].nic.mac1609_4 	SlotsBackoff 	0
scalar IntersectionExampleScenario.node[15].nic.mac1609_4 	NumInternalContention 	0
scalar IntersectionExampleScenario.node[15].nic.mac1609_4 	totalBusyTime 	0
scalar IntersectionExampleScenario.node[15].veinsmobility 	startTime 	51
scalar IntersectionExampleScenario.node[15].veinsmobility 	totalTime 	39.5
scalar IntersectionExampleScenario.node[15].veinsmobility 	stopTime 	90.75
scalar IntersectionExampleScenario.node[15].veinsmobility 	minSpeed 	5.6500000953674
scalar IntersectionExampleScenario.node[15].veinsmobility 	maxSpeed 	15.675559997559
scalar IntersectionExampleScenario.node[15].veinsmobility 	totalDistance 	571.36352539062
scalar IntersectionExampleScenario.node[15].veinsmobility 	totalCO2Emission 	121.16157614266
scalar IntersectionExampleScenario.node[10].appl 	VehicleRemoved 	0
scalar IntersectionExampleScenario.node[10].appl 	ArrivedAtDest 	1
scalar IntersectionExampleScenario.node[10].appl 	IntersectionEnterTime 	42.5
scalar IntersectionExampleScenario.node[10].appl 	IntersectionExitTime 	78.786600747466
scalar IntersectionExampleScenario.node[10].appl 	NumberOfCollisions 	0
scalar IntersectionExampleScenario.node[10].nic.phy80211p 	busyTime 	0
scalar IntersectionExampleScenario.node[10].nic.mac1609_4 	ReceivedUnicastPackets 	0
scalar IntersectionExampleScenario.node[10].nic.mac1609_4 	ReceivedBroadcasts 	0
scalar IntersectionExampleScenario.node[10].nic.mac1609_4 	SentPackets 	0
scalar IntersectionExampleScenario.node[10].nic.mac1609_4 	SNIRLostPackets 	0
scalar IntersectionExampleScenario.node[10].nic.mac1609_4 	RXTXLostPackets 	0
scalar IntersectionExampleScenario.node[10].nic.mac1609_4 	TotalLostPackets 	0
scalar IntersectionExampleScenario.node[10].nic.mac1609_4 	DroppedPacketsInMac 	0
scalar IntersectionExampleScenario.node[10].nic.mac1609_4 	TooLittleTime 	0
scalar IntersectionExampleScenario.node[10].nic.mac1609_4 	TimesIntoBackoff 	0
scalar IntersectionExampleScenario.node[10].nic.mac1609_4 	SlotsBackoff 	0
scalar IntersectionExampleScenario.node[10].nic.mac1609_4 	NumInternalContention 	0
scalar IntersectionExampleScenario.node[10].nic.mac1609_4 	totalBusyTime 	0
scalar IntersectionExampleScenario.node[10].veinsmobility 	startTime 	42.5
scalar IntersectionExampleScenario.node[10].veinsmobility 	totalTime 	53.5
scalar IntersectionExampleScenario.node[10].veinsmobility 	stopTime 	96.25
scalar IntersectionExampleScenario.node[10].veinsmobility 	minSpeed 	0
scalar IntersectionExampleScenario.node[10].veinsmobility 	maxSpeed 	14.75
scalar IntersectionExampleScenario.node[10].veinsmobility 	totalDistance 	550.35758333635
scalar IntersectionExampleScenario.node[10].veinsmobility 	totalCO2Emission 	137.4635002796
scalar IntersectionExampleScenario.node[11].appl 	VehicleRemoved 	0
scalar IntersectionExampleScenario.node[11].appl 	ArrivedAtDest 	1
scalar IntersectionExampleScenario.node[11].appl 	IntersectionEnterTime 	43.5
scalar IntersectionExampleScenario.node[11].appl 	IntersectionExitTime 	80.000052944
scalar IntersectionExampleScenario.node[11].appl 	NumberOfCollisions 	0
scalar IntersectionExampleScenario.node[11].nic.phy80211p 	busyTime 	0
scalar IntersectionExampleScenario.node[11].nic.mac1609_4 	ReceivedUnicastPackets 	0
scalar IntersectionExampleScenario.node[11].nic.mac1609_4 	ReceivedBroadcasts 	0
scalar IntersectionExampleScenario.node[11].nic.mac1609_4 	SentPackets 	0
scalar IntersectionExampleScenario.node[11].nic.mac1609_4 	SNIRLostPackets 	0
scalar IntersectionExampleScenario.node[11].nic.mac1609_4 	RXTXLostPackets 	0
scalar IntersectionExampleScenario.node[11].nic.mac1609_4 	TotalLostPackets 	0
scalar IntersectionExampleScenario.node[11].nic.mac1609_4 	DroppedPacketsInMac 	0
scalar IntersectionExampleScenario.node[11].nic.mac1609_4 	TooLittleTime 	0
scalar IntersectionExampleScenario.node[11].nic.mac1609_4 	TimesIntoBackoff 	0
scalar IntersectionExampleScenario.node[11].nic.mac1609_4 	SlotsBackoff 	0
scalar IntersectionExampleScenario.node[11].nic.mac1609_4 	NumInternalContention 	0
scalar IntersectionExampleScenario.node[11].nic.mac1609_4 	totalBusyTime 	0
scalar IntersectionExampleScenario.node[11].veinsmobility 	startTime 	43.5
scalar IntersectionExampleScenario.node[11].veinsmobility 	totalTime 	54.25
scalar IntersectionExampleScenario.node[11].veinsmobility 	stopTime 	98
scalar IntersectionExampleScenario.node[11].veinsmobility 	minSpeed 	0
scalar IntersectionExampleScenario.node[11].veinsmobility 	maxSpeed 	14.625
scalar IntersectionExampleScenario.node[11].veinsmobility 	totalDistance 	566.99825246453
scalar IntersectionExampleScenario.node[11].veinsmobility 	totalCO2Emission 	139.59479792481
scalar IntersectionExampleScenario.node[16].appl 	VehicleRemoved 	0
scalar IntersectionExampleScenario.node[16].appl 	ArrivedAtDest 	1
scalar IntersectionExampleScenario.node[16].appl 	IntersectionEnterTime 	57
scalar IntersectionExampleScenario.node[16].appl 	IntersectionExitTime 	82.870738689846
scalar IntersectionExampleScenario.node[16].appl 	NumberOfCollisions 	0
scalar IntersectionExampleScenario.node[16].nic.phy80211p 	busyTime 	0
scalar IntersectionExampleScenario.node[16].nic.mac1609_4 	ReceivedUnicastPackets 	0
scalar IntersectionExampleScenario.node[16].nic.mac1609_4 	ReceivedBroadcasts 	0
scalar IntersectionExampleScenario.node[16].nic.mac1609_4 	SentPackets 	0
scalar IntersectionExampleScenario.node[16].nic.mac1609_4 	SNIRLostPackets 	0
scalar IntersectionExampleScenario.node[16].nic.mac1609_4 	RXTXLostPackets 	0
scalar IntersectionExampleScenario.node[16].nic.mac1609_4 	TotalLostPackets 	0
scalar IntersectionExampleScenario.node[16].nic.mac1609_4 	DroppedPacketsInMac 	0
scalar IntersectionExampleScenario.node[16].nic.mac1609_4 	TooLittleTime 	0
scalar IntersectionExampleScenario.node[16].nic.mac1609_4 	TimesIntoBackoff 	0
scalar IntersectionExampleScenario.node[16].nic.mac1609_4 	SlotsBackoff 	0
scalar IntersectionExampleScenario.node[16].nic.mac1609_4 	NumInternalContention 	0
scalar IntersectionExampleScenario.node[16].nic.mac1609_4 	totalBusyTime 	0
scalar IntersectionExampleScenario.node[16].veinsmobility 	startTime 	57
scalar IntersectionExampleScenario.node[16].veinsmobility 	totalTime 	42.75
scalar IntersectionExampleScenario.node[16].veinsmobility 	stopTime 	100
scalar IntersectionExampleScenario.node[16].veinsmobility 	minSpeed 	5.6500000953674
scalar IntersectionExampleScenario.node[16].veinsmobility 	maxSpeed 	15.02499961853
scalar IntersectionExampleScenario.node[16].veinsmobility 	totalDistance 	551.81542670603
scalar IntersectionExampleScenario.node[16].veinsmobility 	totalCO2Emission 	132.72886675208
scalar IntersectionExampleScenario.node[17].appl 	VehicleRemoved 	0
scalar IntersectionExampleScenario.node[17].appl 	ArrivedAtDest 	1
scalar IntersectionExampleScenario.node[17].appl 	IntersectionEnterTime 	59.25
scalar IntersectionExampleScenario.node[17].appl 	IntersectionExitTime 	85.255469172844
scalar IntersectionExampleScenario.node[17].appl 	NumberOfCollisions 	0
scalar IntersectionExampleScenario.node[17].nic.phy80211p 	busyTime 	0
scalar IntersectionExampleScenario.node[17].nic.mac1609_4 	ReceivedUnicastPackets 	0
scalar IntersectionExampleScenario.node[17].nic.mac1609_4 	ReceivedBroadcasts 	0
scalar IntersectionExampleScenario.node[17].nic.mac1609_4 	SentPackets 	0
scalar IntersectionExampleScenario.node[17].nic.mac1609_4 	SNIRLostPackets 	0
scalar IntersectionExampleScenario.node[17].nic.mac1609_4 	RXTXLostPackets 	0
scalar IntersectionExampleScenario.node[17].nic.mac1609_4 	TotalLostPackets 	0
scalar IntersectionExampleScenario.node[17].nic.mac1609_4 	DroppedPacketsInMac 	0
scalar IntersectionExampleScenario.node[17].nic.mac1609_4 	TooLittleTime 	0
scalar IntersectionExampleScenario.node[17].nic.mac1609_4 	TimesIntoBackoff 	0
scalar IntersectionExampleScenario.node[17].nic.mac1609_4 	SlotsBackoff 	0
scalar IntersectionExampleScenario.node[17].nic.mac1609_4 	NumInternalContention 	0
scalar IntersectionExampleScenario.node[17].nic.mac1609_4 	totalBusyTime 	0
scalar IntersectionExampleScenario.node[17].veinsmobility 	startTime 	59.25
scalar IntersectionExampleScenario.node[17].veinsmobility 	totalTime 	42.5
scalar IntersectionExampleScenario.node[17].veinsmobility 	stopTime 	102
scalar IntersectionExampleScenario.node[17].veinsmobility 	minSpeed 	5.6500000953674
scalar IntersectionExampleScenario.node[17].veinsmobility 	maxSpeed 	15.300776481628
scalar IntersectionExampleScenario.node[17].veinsmobility 	totalDistance 	569.15646593414
scalar IntersectionExampleScenario.node[17].veinsmobility 	totalCO2Emission 	127.49307623607
scalar IntersectionExampleScenario.node[18].appl 	VehicleRemoved 	0
scalar IntersectionExampleScenario.node[18].appl 	ArrivedAtDest 	1
scalar IntersectionExampleScenario.node[18].appl 	IntersectionEnterTime 	60
scalar IntersectionExampleScenario.node[18].appl 	IntersectionExitTime 	87.597913556994
scalar IntersectionExampleScenario.node[18].appl 	NumberOfCollisions 	0
scalar IntersectionExampleScenario.node[18].nic.phy80211p 	busyTime 	0
scalar IntersectionExampleScenario.node[18].nic.mac1609_4 	ReceivedUnicastPackets 	0
scalar IntersectionExampleScenario.node[18].nic.mac1609_4 	ReceivedBroadcasts 	0
scalar IntersectionExampleScenario.node[18].nic.mac1609_4 	SentPackets 	0
scalar IntersectionExampleScenario.node[18].nic.mac1609_4 	SNIRLostPackets 	0
scalar IntersectionExampleScenario.node[18].nic.mac1609_4 	RXTXLostPackets 	0
scalar IntersectionExampleScenario.node[18].nic.mac1609_4 	TotalLostPackets 	0
scalar IntersectionExampleScenario.node[18].nic.mac1609_4 	DroppedPacketsInMac 	0
scalar IntersectionExampleScenario.node[18].nic.mac1609_4 	TooLittleTime 	0
scalar IntersectionExampleScenario.node[18].nic.mac1609_4 	TimesIntoBackoff 	0
scalar IntersectionExampleScenario.node[18].nic.mac1609_4 	SlotsBackoff 	0
scalar IntersectionExampleScenario.node[18].nic.mac1609_4 	NumInternalContention 	0
scalar IntersectionExampleScenario.node[18].nic.mac1609_4 	totalBusyTime 	0
scalar IntersectionExampleScenario.node[18].veinsmobility 	startTime 	60
scalar IntersectionExampleScenario.node[18].veinsmobility 	totalTime 	44.75
scalar IntersectionExampleScenario.node[18].veinsmobility 	stopTime 	105
scalar IntersectionExampleScenario.node[18].veinsmobility 	minSpeed 	5.6500000953674
scalar IntersectionExampleScenario.node[18].veinsmobility 	maxSpeed 	14.875051498413
scalar IntersectionExampleScenario.node[18].veinsmobility 	totalDistance 	574.27411149996
scalar IntersectionExampleScenario.node[18].veinsmobility 	totalCO2Emission 	127.01249636161
scalar IntersectionExampleScenario.node[20].appl 	VehicleRemoved 	0
scalar IntersectionExampleScenario.node[20].appl 	ArrivedAtDest 	1
scalar IntersectionExampleScenario.node[20].appl 	IntersectionEnterTime 	65.25
scalar IntersectionExampleScenario.node[20].appl 	IntersectionExitTime 	94.26159075083
scalar IntersectionExampleScenario.node[20].appl 	NumberOfCollisions 	0
scalar IntersectionExampleScenario.node[20].nic.phy80211p 	busyTime 	0
scalar IntersectionExampleScenario.node[20].nic.mac1609_4 	ReceivedUnicastPackets 	0
scalar IntersectionExampleScenario.node[20].nic.mac1609_4 	ReceivedBroadcasts 	0
scalar IntersectionExampleScenario.node[20].nic.mac1609_4 	SentPackets 	0
scalar IntersectionExampleScenario.node[20].nic.mac1609_4 	SNIRLostPackets 	0
scalar IntersectionExampleScenario.node[20].nic.mac1609_4 	RXTXLostPackets 	0
scalar IntersectionExampleScenario.node[20].nic.mac1609_4 	TotalLostPackets 	0
scalar IntersectionExampleScenario.node[20].nic.mac1609_4 	DroppedPacketsInMac 	0
scalar IntersectionExampleScenario.node[20].nic.mac1609_4 	TooLittleTime 	0
scalar IntersectionExampleScenario.node[20].nic.mac1609_4 	TimesIntoBackoff 	0
scalar IntersectionExampleScenario.node[20].nic.mac1609_4 	SlotsBackoff 	0
scalar IntersectionExampleScenario.node[20].nic.mac1609_4 	NumInternalContention 	0
scalar IntersectionExampleScenario.node[20].nic.mac1609_4 	totalBusyTime 	0
scalar IntersectionExampleScenario.node[20].veinsmobility 	startTime 	65.25
scalar IntersectionExampleScenario.node[20].veinsmobility 	totalTime 	45.25
scalar IntersectionExampleScenario.node[20].veinsmobility 	stopTime 	110.75
scalar IntersectionExampleScenario.node[20].veinsmobility 	minSpeed 	0
scalar IntersectionExampleScenario.node[20].veinsmobility 	maxSpeed 	15.02499961853
scalar IntersectionExampleScenario.node[20].veinsmobility 	totalDistance 	551.17026519775
scalar IntersectionExampleScenario.node[20].veinsmobility 	totalCO2Emission 	134.90855422827
scalar IntersectionExampleScenario.node[19].appl 	VehicleRemoved 	0
scalar IntersectionExampleScenario.node[19].appl 	ArrivedAtDest 	1
scalar IntersectionExampleScenario.node[19].appl 	IntersectionEnterTime 	60.75
scalar IntersectionExampleScenario.node[19].appl 	IntersectionExitTime 	94.298408207018
scalar IntersectionExampleScenario.node[19].appl 	NumberOfCollisions 	0
scalar IntersectionExampleScenario.node[19].nic.phy80211p 	busyTime 	0
scalar IntersectionExampleScenario.node[19].nic.mac1609_4 	ReceivedUnicastPackets 	0
scalar IntersectionExampleScenario.node[19].nic.mac1609_4 	ReceivedBroadcasts 	0
scalar IntersectionExampleScenario.node[19].nic.mac1609_4 	SentPackets 	0
scalar IntersectionExampleScenario.node[19].nic.mac1609_4 	SNIRLostPackets 	0
scalar IntersectionExampleScenario.node[19].nic.mac1609_4 	RXTXLostPackets 	0
scalar IntersectionExampleScenario.node[19].nic.mac1609_4 	TotalLostPackets 	0
scalar IntersectionExampleScenario.node[19].nic.mac1609_4 	DroppedPacketsInMac 	0
scalar IntersectionExampleScenario.node[19].nic.mac1609_4 	TooLittleTime 	0
scalar IntersectionExampleScenario.node[19].nic.mac1609_4 	TimesIntoBackoff 	0
scalar IntersectionExampleScenario.node[19].nic.mac1609_4 	SlotsBackoff 	0
scalar IntersectionExampleScenario.node[19].nic.mac1609_4 	NumInternalContention 	0
scalar IntersectionExampleScenario.node[19].nic.mac1609_4 	totalBusyTime 	0
scalar IntersectionExampleScenario.node[19].veinsmobility 	startTime 	60.75
scalar IntersectionExampleScenario.node[19].veinsmobility 	totalTime 	49.75
scalar IntersectionExampleScenario.node[19].veinsmobility 	stopTime 	110.75
scalar IntersectionExampleScenario.node[19].veinsmobility 	minSpeed 	0
scalar IntersectionExampleScenario.node[19].veinsmobility 	maxSpeed 	15.375
scalar IntersectionExampleScenario.node[19].veinsmobility 	totalDistance 	548.74363054385
scalar IntersectionExampleScenario.node[19].veinsmobility 	totalCO2Emission 	139.41677183564
scalar IntersectionExampleScenario.node[22].appl 	VehicleRemoved 	0
scalar IntersectionExampleScenario.node[22].appl 	ArrivedAtDest 	1
scalar IntersectionExampleScenario.node[22].appl 	IntersectionEnterTime 	70.5
scalar IntersectionExampleScenario.node[22].appl 	IntersectionExitTime 	96.344721171306
scalar IntersectionExampleScenario.node[22].appl 	NumberOfCollisions 	0
scalar IntersectionExampleScenario.node[22].nic.phy80211p 	busyTime 	0
scalar IntersectionExampleScenario.node[22].nic.mac1609_4 	ReceivedUnicastPackets 	0
scalar IntersectionExampleScenario.node[22].nic.mac1609_4 	ReceivedBroadcasts 	0
scalar IntersectionExampleScenario.node[22].nic.mac1609_4 	SentPackets 	0
scalar IntersectionExampleScenario.node[22].nic.mac1609_4 	SNIRLostPackets 	0
scalar IntersectionExampleScenario.node[22].nic.mac1609_4 	RXTXLostPackets 	0
scalar IntersectionExampleScenario.node[22].nic.mac1609_4 	TotalLostPackets 	0
scalar IntersectionExampleScenario.node[22].nic.mac1609_4 	DroppedPacketsInMac 	0
scalar IntersectionExampleScenario.node[22].nic.mac1609_4 	TooLittleTime 	0
scalar IntersectionExampleScenario.node[22].nic.mac1609_4 	TimesIntoBackoff 	0
scalar IntersectionExampleScenario.node[22].nic.mac1609_4 	SlotsBackoff 	0
scalar IntersectionExampleScenario.node[22].nic.mac1609_4 	NumInternalContention 	0
scalar IntersectionExampleScenario.node[22].nic.mac1609_4 	totalBusyTime 	0
scalar IntersectionExampleScenario.node[22].veinsmobility 	startTime 	70.5
scalar IntersectionExampleScenario.node[22].veinsmobility 	totalTime 	41.75
scalar IntersectionExampleScenario.node[22].veinsmobility 	stopTime 	112.5
scalar IntersectionExampleScenario.node[22].veinsmobility 	minSpeed 	5.6500000953674
scalar IntersectionExampleScenario.node[22].veinsmobility 	maxSpeed 	15.315679550171
scalar IntersectionExampleScenario.node[22].veinsmobility 	totalDistance 	552.49314117432
scalar IntersectionExampleScenario.node[22].veinsmobility 	totalCO2Emission 	129.27549509295
scalar IntersectionExampleScenario.node[21].appl 	VehicleRemoved 	0
scalar IntersectionExampleScenario.node[21].appl 	ArrivedAtDest 	1
scalar IntersectionExampleScenario.node[21].appl 	IntersectionEnterTime 	66.75
scalar IntersectionExampleScenario.node[21].appl 	IntersectionExitTime 	96.312941846903
scalar IntersectionExampleScenario.node[21].appl 	NumberOfCollisions 	0
scalar IntersectionExampleScenario.node[21].nic.phy80211p 	busyTime 	0
scalar IntersectionExampleScenario.node[21].nic.mac1609_4 	ReceivedUnicastPackets 	0
scalar IntersectionExampleScenario.node[21].nic.mac1609_4 	ReceivedBroadcasts 	0
scalar IntersectionExampleScenario.node[21].nic.mac1609_4 	SentPackets 	0
scalar IntersectionExampleScenario.node[21].nic.mac1609_4 	SNIRLostPackets 	0
scalar IntersectionExampleScenario.node[21].nic.mac1609_4 	RXTXLostPackets 	0
scalar IntersectionExampleScenario.node[21].nic.mac1609_4 	TotalLostPackets 	0
scalar IntersectionExampleScenario.node[21].nic.mac1609_4 	DroppedPacketsInMac 	0
scalar IntersectionExampleScenario.node[21].nic.mac1609_4 	TooLittleTime 	0
scalar IntersectionExampleScenario.node[21].nic.mac1609_4 	TimesIntoBackoff 	0
scalar IntersectionExampleScenario.node[21].nic.mac1609_4 	SlotsBackoff 	0
scalar IntersectionExampleScenario.node[21].nic.mac1609_4 	NumInternalContention 	0
scalar IntersectionExampleScenario.node[21].nic.mac1609_4 	totalBusyTime 	0
scalar IntersectionExampleScenario.node[21].veinsmobility 	startTime 	66.75
scalar IntersectionExampleScenario.node[21].veinsmobility 	totalTime 	46
scalar IntersectionExampleScenario.node[21].veinsmobility 	stopTime 	113
scalar IntersectionExampleScenario.node[21].veinsmobility 	minSpeed 	2.7494418621063
scalar IntersectionExampleScenario.node[21].veinsmobility 	maxSpeed 	15.230381011963
scalar IntersectionExampleScenario.node[21].veinsmobility 	totalDistance 	549.84806980994
scalar IntersectionExampleScenario.node[21].veinsmobility 	totalCO2Emission 	132.07726288311
scalar IntersectionExampleScenario.node[25].appl 	VehicleRemoved 	0
scalar IntersectionExampleScenario.node[25].appl 	ArrivedAtDest 	1
scalar IntersectionExampleScenario.node[25].appl 	IntersectionEnterTime 	73.75
scalar IntersectionExampleScenario.node[25].appl 	IntersectionExitTime 	98.780022738385
scalar IntersectionExampleScenario.node[25].appl 	NumberOfCollisions 	0
scalar IntersectionExampleScenario.node[25].nic.phy80211p 	busyTime 	0
scalar IntersectionExampleScenario.node[25].nic.mac1609_4 	ReceivedUnicastPackets 	0
scalar IntersectionExampleScenario.node[25].nic.mac1609_4 	ReceivedBroadcasts 	0
scalar IntersectionExampleScenario.node[25].nic.mac1609_4 	SentPackets 	0
scalar IntersectionExampleScenario.node[25].nic.mac1609_4 	SNIRLostPackets 	0
scalar IntersectionExampleScenario.node[25].nic.mac1609_4 	RXTXLostPackets 	0
scalar IntersectionExampleScenario.node[25].nic.mac1609_4 	TotalLostPackets 	0
scalar IntersectionExampleScenario.node[25].nic.mac1609_4 	DroppedPacketsInMac 	0
scalar IntersectionExampleScenario.node[25].nic.mac1609_4 	TooLittleTime 	0
scalar IntersectionExampleScenario.node[25].nic.mac1609_4 	TimesIntoBackoff 	0
scalar IntersectionExampleScenario.node[25].nic.mac1609_4 	SlotsBackoff 	0
scalar IntersectionExampleScenario.node[25].nic.mac1609_4 	NumInternalContention 	0
scalar IntersectionExampleScenario.node[25].nic.mac1609_4 	totalBusyTime 	0
scalar IntersectionExampleScenario.node[25].veinsmobility 	startTime 	73.75
scalar IntersectionExampleScenario.node[25].veinsmobility 	totalTime 	41.25
scalar IntersectionExampleScenario.node[25].veinsmobility 	stopTime 	115.25
scalar IntersectionExampleScenario.node[25].veinsmobility 	minSpeed 	5.6500000953674
scalar IntersectionExampleScenario.node[25].veinsmobility 	maxSpeed 	15.5
scalar IntersectionExampleScenario.node[25].veinsmobility 	totalDistance 	554.25805664062
scalar IntersectionExampleScenario.node[25].veinsmobility 	totalCO2Emission 	136.42707159352
scalar IntersectionExampleScenario.node[23].appl 	VehicleRemoved 	0
scalar IntersectionExampleScenario.node[23].appl 	ArrivedAtDest 	1
scalar IntersectionExampleScenario.node[23].appl 	IntersectionEnterTime 	73.25
scalar IntersectionExampleScenario.node[23].appl 	IntersectionExitTime 	99.054449895979
scalar IntersectionExampleScenario.node[23].appl 	NumberOfCollisions 	0
scalar IntersectionExampleScenario.node[23].nic.phy80211p 	busyTime 	0
scalar IntersectionExampleScenario.node[23].nic.mac1609_4 	ReceivedUnicastPackets 	0
scalar IntersectionExampleScenario.node[23].nic.mac1609_4 	ReceivedBroadcasts 	0
scalar IntersectionExampleScenario.node[23].nic.mac1609_4 	SentPackets 	0
scalar IntersectionExampleScenario.node[23].nic.mac1609_4 	SNIRLostPackets 	0
scalar IntersectionExampleScenario.node[23].nic.mac1609_4 	RXTXLostPackets 	0
scalar IntersectionExampleScenario.node[23].nic.mac1609_4 	TotalLostPackets 	0
scalar IntersectionExampleScenario.node[23].nic.mac1609_4 	DroppedPacketsInMac 	0
scalar IntersectionExampleScenario.node[23].nic.mac1609_4 	TooLittleTime 	0
scalar IntersectionExampleScenario.node[23].nic.mac1609_4 	TimesIntoBackoff 	0
scalar IntersectionExampleScenario.node[23].nic.mac1609_4 	SlotsBackoff 	0
scalar IntersectionExampleScenario.node[23].nic.mac1609_4 	NumInternalContention 	0
scalar IntersectionExampleScenario.node[23].nic.mac1609_4 	totalBusyTime 	0
scalar IntersectionExampleScenario.node[23].veinsmobility 	startTime 	73.25
scalar IntersectionExampleScenario.node[23].veinsmobility 	totalTime 	41.75
scalar IntersectionExampleScenario.node[23].veinsmobility 	stopTime 	115.25
scalar IntersectionExampleScenario.node[23].veinsmobility 	minSpeed 	5.6500000953674
scalar IntersectionExampleScenario.node[23].veinsmobility 	maxSpeed 	15.64999961853
scalar IntersectionExampleScenario.node[23].veinsmobility 	totalDistance 	567.40182495117
scalar IntersectionExampleScenario.node[23].veinsmobility 	totalCO2Emission 	125.97968955231
scalar IntersectionExampleScenario.node[24].appl 	VehicleRemoved 	0
scalar IntersectionExampleScenario.node[24].appl 	ArrivedAtDest 	1
scalar IntersectionExampleScenario.node[24].appl 	IntersectionEnterTime 	73.25
scalar IntersectionExampleScenario.node[24].appl 	IntersectionExitTime 	108.85978323145
scalar IntersectionExampleScenario.node[24].appl 	NumberOfCollisions 	0
scalar IntersectionExampleScenario.node[24].nic.phy80211p 	busyTime 	0
scalar IntersectionExampleScenario.node[24].nic.mac1609_4 	ReceivedUnicastPackets 	0
scalar IntersectionExampleScenario.node[24].nic.mac1609_4 	ReceivedBroadcasts 	0
scalar IntersectionExampleScenario.node[24].nic.mac1609_4 	SentPackets 	0
scalar IntersectionExampleScenario.node[24].nic.mac1609_4 	SNIRLostPackets 	0
scalar IntersectionExampleScenario.node[24].nic.mac1609_4 	RXTXLostPackets 	0
scalar IntersectionExampleScenario.node[24].nic.mac1609_4 	TotalLostPackets 	0
scalar IntersectionExampleScenario.node[24].nic.mac1609_4 	DroppedPacketsInMac 	0
scalar IntersectionExampleScenario.node[24].nic.mac1609_4 	TooLittleTime 	0
scalar IntersectionExampleScenario.node[24].nic.mac1609_4 	TimesIntoBackoff 	0
scalar IntersectionExampleScenario.node[24].nic.mac1609_4 	SlotsBackoff 	0
scalar IntersectionExampleScenario.node[24].nic.mac1609_4 	NumInternalContention 	0
scalar IntersectionExampleScenario.node[24].nic.mac1609_4 	totalBusyTime 	0
scalar IntersectionExampleScenario.node[24].veinsmobility 	startTime 	73.25
scalar IntersectionExampleScenario.node[24].veinsmobility 	totalTime 	51.25
scalar IntersectionExampleScenario.node[24].veinsmobility 	stopTime 	124.75
scalar IntersectionExampleScenario.node[24].veinsmobility 	minSpeed 	0
scalar IntersectionExampleScenario.node[24].veinsmobility 	maxSpeed 	16.27499961853
scalar IntersectionExampleScenario.node[24].veinsmobility 	totalDistance 	548.50122957658
scalar IntersectionExampleScenario.node[24].veinsmobility 	totalCO2Emission 	147.16206789113
scalar IntersectionExampleScenario.node[26].appl 	VehicleRemoved 	0
scalar IntersectionExampleScenario.node[26].appl 	ArrivedAtDest 	1
scalar IntersectionExampleScenario.node[26].appl 	IntersectionEnterTime 	74.5
scalar IntersectionExampleScenario.node[26].appl 	IntersectionExitTime 	109.31614437726
scalar IntersectionExampleScenario.node[26].appl 	NumberOfCollisions 	0
scalar IntersectionExampleScenario.node[26].nic.phy80211p 	busyTime 	0
scalar IntersectionExampleScenario.node[26].nic.mac1609_4 	ReceivedUnicastPackets 	0
scalar IntersectionExampleScenario.node[26].nic.mac1609_4 	ReceivedBroadcasts 	0
scalar IntersectionExampleScenario.node[26].nic.mac1609_4 	SentPackets 	0
scalar IntersectionExampleScenario.node[26].nic.mac1609_4 	SNIRLostPackets 	0
scalar IntersectionExampleScenario.node[26].nic.mac1609_4 	RXTXLostPackets 	0
scalar IntersectionExampleScenario.node[26].nic.mac1609_4 	TotalLostPackets 	0
scalar IntersectionExampleScenario.node[26].nic.mac1609_4 	DroppedPacketsInMac 	0
scalar IntersectionExampleScenario.node[26].nic.mac1609_4 	TooLittleTime 	0
scalar IntersectionExampleScenario.node[26].nic.mac1609_4 	TimesIntoBackoff 	0
scalar IntersectionExampleScenario.node[26].nic.mac1609_4 	SlotsBackoff 	0
scalar IntersectionExampleScenario.node[26].nic.mac1609_4 	NumInternalContention 	0
scalar IntersectionExampleScenario.node[26].nic.mac1609_4 	totalBusyTime 	0
scalar IntersectionExampleScenario.node[26].veinsmobility 	startTime 	74.5
scalar IntersectionExampleScenario.node[26].veinsmobility 	totalTime 	50.25
scalar IntersectionExampleScenario.node[26].veinsmobility 	stopTime 	125
scalar IntersectionExampleScenario.node[26].veinsmobility 	minSpeed 	0
scalar IntersectionExampleScenario.node[26].veinsmobility 	maxSpeed 	16.27499961853
scalar IntersectionExampleScenario.node[26].veinsmobility 	totalDistance 	550.6897136127
scalar IntersectionExampleScenario.node[26].veinsmobility 	totalCO2Emission 	150.80243880159
scalar IntersectionExampleScenario.node[27].appl 	VehicleRemoved 	0
scalar IntersectionExampleScenario.node[27].appl 	ArrivedAtDest 	1
scalar IntersectionExampleScenario.node[27].appl 	IntersectionEnterTime 	86.75
scalar IntersectionExampleScenario.node[27].appl 	IntersectionExitTime 	112.07569564911
scalar IntersectionExampleScenario.node[27].appl 	NumberOfCollisions 	0
scalar IntersectionExampleScenario.node[27].nic.phy80211p 	busyTime 	0
scalar IntersectionExampleScenario.node[27].nic.mac1609_4 	ReceivedUnicastPackets 	0
scalar IntersectionExampleScenario.node[27].nic.mac1609_4 	ReceivedBroadcasts 	0
scalar IntersectionExampleScenario.node[27].nic.mac1609_4 	SentPackets 	0
scalar IntersectionExampleScenario.node[27].nic.mac1609_4 	SNIRLostPackets 	0
scalar IntersectionExampleScenario.node[27].nic.mac1609_4 	RXTXLostPackets 	0
scalar IntersectionExampleScenario.node[27].nic.mac1609_4 	TotalLostPackets 	0
scalar IntersectionExampleScenario.node[27].nic.mac1609_4 	DroppedPacketsInMac 	0
scalar IntersectionExampleScenario.node[27].nic.mac1609_4 	TooLittleTime 	0
scalar IntersectionExampleScenario.node[27].nic.mac1609_4 	TimesIntoBackoff 	0
scalar IntersectionExampleScenario.node[27].nic.mac1609_4 	SlotsBackoff 	0
scalar IntersectionExampleScenario.node[27].nic.mac1609_4 	NumInternalContention 	0
scalar IntersectionExampleScenario.node[27].nic.mac1609_4 	totalBusyTime 	0
scalar IntersectionExampleScenario.node[27].veinsmobility 	startTime 	86.75
scalar IntersectionExampleScenario.node[27].veinsmobility 	totalTime 	41.5
scalar IntersectionExampleScenario.node[27].veinsmobility 	stopTime 	128.5
scalar IntersectionExampleScenario.node[27].veinsmobility 	minSpeed 	5.6500000953674
scalar IntersectionExampleScenario.node[27].veinsmobility 	maxSpeed 	15.64999961853
scalar IntersectionExampleScenario.node[27].veinsmobility 	totalDistance 	550.46697914074
scalar IntersectionExampleScenario.node[27].veinsmobility 	totalCO2Emission 	133.09041809096
scalar IntersectionExampleScenario.node[30].appl 	VehicleRemoved 	0
scalar IntersectionExampleScenario.node[30].appl 	ArrivedAtDest 	1
scalar IntersectionExampleScenario.node[30].appl 	IntersectionEnterTime 	93.5
scalar IntersectionExampleScenario.node[30].appl 	IntersectionExitTime 	117.25527912035
scalar IntersectionExampleScenario.node[30].appl 	NumberOfCollisions 	0
scalar IntersectionExampleScenario.node[30].nic.phy80211p 	busyTime 	0
scalar IntersectionExampleScenario.node[30].nic.mac1609_4 	ReceivedUnicastPackets 	0
scalar IntersectionExampleScenario.node[30].nic.mac1609_4 	ReceivedBroadcasts 	0
scalar IntersectionExampleScenario.node[30].nic.mac1609_4 	SentPackets 	0
scalar IntersectionExampleScenario.node[30].nic.mac1609_4 	SNIRLostPackets 	0
scalar IntersectionExampleScenario.node[30].nic.mac1609_4 	RXTXLostPackets 	0
scalar IntersectionExampleScenario.node[30].nic.mac1609_4 	TotalLostPackets 	0
scalar IntersectionExampleScenario.node[30].nic.mac1609_4 	DroppedPacketsInMac 	0
scalar IntersectionExampleScenario.node[30].nic.mac1609_4 	TooLittleTime 	0
scalar IntersectionExampleScenario.node[30].nic.mac1609_4 	TimesIntoBackoff 	0
scalar IntersectionExampleScenario.node[30].nic.mac1609_4 	SlotsBackoff 	0
scalar IntersectionExampleScenario.node[30].nic.mac1609_4 	NumInternalContention 	0
scalar IntersectionExampleScenario.node[30].nic.mac1609_4 	totalBusyTime 	0
scalar IntersectionExampleScenario.node[30].veinsmobility 	startTime 	93.5
scalar IntersectionExampleScenario.node[30].veinsmobility 	totalTime 	40.75
scalar IntersectionExampleScenario.node[30].veinsmobility 	stopTime 	134.5
scalar IntersectionExampleScenario.node[30].veinsmobility 	minSpeed 	5.6500000953674
scalar IntersectionExampleScenario.node[30].veinsmobility 	maxSpeed 	15.02499961853
scalar IntersectionExampleScenario.node[30].veinsmobility 	totalDistance 	551.52659636973
scalar IntersectionExampleScenario.node[30].veinsmobility 	totalCO2Emission 	119.13159063582
scalar IntersectionExampleScenario.node[32].appl 	VehicleRemoved 	0
scalar IntersectionExampleScenario.node[32].appl 	ArrivedAtDest 	1
scalar IntersectionExampleScenario.node[32].appl 	IntersectionEnterTime 	94.25
scalar IntersectionExampleScenario.node[32].appl 	IntersectionExitTime 	124.26320158262
scalar IntersectionExampleScenario.node[32].appl 	NumberOfCollisions 	0
scalar IntersectionExampleScenario.node[32].nic.phy80211p 	busyTime 	0
scalar IntersectionExampleScenario.node[32].nic.mac1609_4 	ReceivedUnicastPackets 	0
scalar IntersectionExampleScenario.node[32].nic.mac1609_4 	ReceivedBroadcasts 	0
scalar IntersectionExampleScenario.node[32].nic.mac1609_4 	SentPackets 	0
scalar IntersectionExampleScenario.node[32].nic.mac1609_4 	SNIRLostPackets 	0
scalar IntersectionExampleScenario.node[32].nic.mac1609_4 	RXTXLostPackets 	0
scalar IntersectionExampleScenario.node[32].nic.mac1609_4 	TotalLostPackets 	0
scalar IntersectionExampleScenario.node[32].nic.mac1609_4 	DroppedPacketsInMac 	0
scalar IntersectionExampleScenario.node[32].nic.mac1609_4 	TooLittleTime 	0
scalar IntersectionExampleScenario.node[32].nic.mac1609_4 	TimesIntoBackoff 	0
scalar IntersectionExampleScenario.node[32].nic.mac1609_4 	SlotsBackoff 	0
scalar IntersectionExampleScenario.node[32].nic.mac1609_4 	NumInternalContention 	0
scalar IntersectionExampleScenario.node[32].nic.mac1609_4 	totalBusyTime 	0
scalar IntersectionExampleScenario.node[32].veinsmobility 	startTime 	94.25
scalar IntersectionExampleScenario.node[32].veinsmobility 	totalTime 	45.75
scalar IntersectionExampleScenario.node[32].veinsmobility 	stopTime 	140.25
scalar IntersectionExampleScenario.node[32].veinsmobility 	minSpeed 	0
scalar IntersectionExampleScenario.node[32].veinsmobility 	maxSpeed 	16
scalar IntersectionExampleScenario.node[32].veinsmobility 	totalDistance 	550.96627916446
scalar IntersectionExampleScenario.node[32].veinsmobility 	totalCO2Emission 	141.52249890447
scalar IntersectionExampleScenario.node[28].appl 	VehicleRemoved 	0
scalar IntersectionExampleScenario.node[28].appl 	ArrivedAtDest 	1
scalar IntersectionExampleScenario.node[28].appl 	IntersectionEnterTime 	91.25
scalar IntersectionExampleScenario.node[28].appl 	IntersectionExitTime 	124.3254344009
scalar IntersectionExampleScenario.node[28].appl 	NumberOfCollisions 	0
scalar IntersectionExampleScenario.node[28].nic.phy80211p 	busyTime 	0
scalar IntersectionExampleScenario.node[28].nic.mac1609_4 	ReceivedUnicastPackets 	0
scalar IntersectionExampleScenario.node[28].nic.mac1609_4 	ReceivedBroadcasts 	0
scalar IntersectionExampleScenario.node[28].nic.mac1609_4 	SentPackets 	0
scalar IntersectionExampleScenario.node[28].nic.mac1609_4 	SNIRLostPackets 	0
scalar IntersectionExampleScenario.node[28].nic.mac1609_4 	RXTXLostPackets 	0
scalar IntersectionExampleScenario.node[28].nic.mac1609_4 	TotalLostPackets 	0
scalar IntersectionExampleScenario.node[28].nic.mac1609_4 	DroppedPacketsInMac 	0
scalar IntersectionExampleScenario.node[28].nic.mac1609_4 	TooLittleTime 	0
scalar IntersectionExampleScenario.node[28].nic.mac1609_4 	TimesIntoBackoff 	0
scalar IntersectionExampleScenario.node[28].nic.mac1609_4 	SlotsBackoff 	0
scalar IntersectionExampleScenario.node[28].nic.mac1609_4 	NumInternalContention 	0
scalar IntersectionExampleScenario.node[28].nic.mac1609_4 	totalBusyTime 	0
scalar IntersectionExampleScenario.node[28].veinsmobility 	startTime 	91.25
scalar IntersectionExampleScenario.node[28].veinsmobility 	totalTime 	49.25
scalar IntersectionExampleScenario.node[28].veinsmobility 	stopTime 	140.75
scalar IntersectionExampleScenario.node[28].veinsmobility 	minSpeed 	0
scalar IntersectionExampleScenario.node[28].veinsmobility 	maxSpeed 	15.042960166931
scalar IntersectionExampleScenario.node[28].veinsmobility 	totalDistance 	553.54304504395
scalar IntersectionExampleScenario.node[28].veinsmobility 	totalCO2Emission 	140.24570503371
scalar IntersectionExampleScenario.node[33].appl 	VehicleRemoved 	0
scalar IntersectionExampleScenario.node[33].appl 	ArrivedAtDest 	1
scalar IntersectionExampleScenario.node[33].appl 	IntersectionEnterTime 	94.75
scalar IntersectionExampleScenario.node[33].appl 	IntersectionExitTime 	126.01592565616
scalar IntersectionExampleScenario.node[33].appl 	NumberOfCollisions 	0
scalar IntersectionExampleScenario.node[33].nic.phy80211p 	busyTime 	0
scalar IntersectionExampleScenario.node[33].nic.mac1609_4 	ReceivedUnicastPackets 	0
scalar IntersectionExampleScenario.node[33].nic.mac1609_4 	ReceivedBroadcasts 	0
scalar IntersectionExampleScenario.node[33].nic.mac1609_4 	SentPackets 	0
scalar IntersectionExampleScenario.node[33].nic.mac1609_4 	SNIRLostPackets 	0
scalar IntersectionExampleScenario.node[33].nic.mac1609_4 	RXTXLostPackets 	0
scalar IntersectionExampleScenario.node[33].nic.mac1609_4 	TotalLostPackets 	0
scalar IntersectionExampleScenario.node[33].nic.mac1609_4 	DroppedPacketsInMac 	0
scalar IntersectionExampleScenario.node[33].nic.mac1609_4 	TooLittleTime 	0
scalar IntersectionExampleScenario.node[33].nic.mac1609_4 	TimesIntoBackoff 	0
scalar IntersectionExampleScenario.node[33].nic.mac1609_4 	SlotsBackoff 	0
scalar IntersectionExampleScenario.node[33].nic.mac1609_4 	NumInternalContention 	0
scalar IntersectionExampleScenario.node[33].nic.mac1609_4 	totalBusyTime 	0
scalar IntersectionExampleScenario.node[33].veinsmobility 	startTime 	94.75
scalar IntersectionExampleScenario.node[33].veinsmobility 	totalTime 	46.75
scalar IntersectionExampleScenario.node[33].veinsmobility 	stopTime 	141.75
scalar IntersectionExampleScenario.node[33].veinsmobility 	minSpeed 	-1.2909249067307
scalar IntersectionExampleScenario.node[33].veinsmobility 	maxSpeed 	16.597675323486
scalar IntersectionExampleScenario.node[33].veinsmobility 	totalDistance 	540.75234985352
scalar IntersectionExampleScenario.node[33].veinsmobility 	totalCO2Emission 	152.19524502754
scalar IntersectionExampleScenario.node[34].appl 	VehicleRemoved 	0
scalar IntersectionExampleScenario.node[34].appl 	ArrivedAtDest 	1
scalar IntersectionExampleScenario.node[34].appl 	IntersectionEnterTime 	95
scalar IntersectionExampleScenario.node[34].appl 	IntersectionExitTime 	126.28902979931
scalar IntersectionExampleScenario.node[34].appl 	NumberOfCollisions 	0
scalar IntersectionExampleScenario.node[34].nic.phy80211p 	busyTime 	0
scalar IntersectionExampleScenario.node[34].nic.mac1609_4 	ReceivedUnicastPackets 	0
scalar IntersectionExampleScenario.node[34].nic.mac1609_4 	ReceivedBroadcasts 	0
scalar IntersectionExampleScenario.node[34].nic.mac1609_4 	SentPackets 	0
scalar IntersectionExampleScenario.node[34].nic.mac1609_4 	SNIRLostPackets 	0
scalar IntersectionExampleScenario.node[34].nic.mac1609_4 	RXTXLostPackets 	0
scalar IntersectionExampleScenario.node[34].nic.mac1609_4 	TotalLostPackets 	0
scalar IntersectionExampleScenario.node[34].nic.mac1609_4 	DroppedPacketsInMac 	0
scalar IntersectionExampleScenario.node[34].nic.mac1609_4 	TooLittleTime 	0
scalar IntersectionExampleScenario.node[34].nic.mac1609_4 	TimesIntoBackoff 	0
scalar IntersectionExampleScenario.node[34].nic.mac1609_4 	SlotsBackoff 	0
scalar IntersectionExampleScenario.node[34].nic.mac1609_4 	NumInternalContention 	0
scalar IntersectionExampleScenario.node[34].nic.mac1609_4 	totalBusyTime 	0
scalar IntersectionExampleScenario.node[34].veinsmobility 	startTime 	95
scalar IntersectionExampleScenario.node[34].veinsmobility 	totalTime 	48.25
scalar IntersectionExampleScenario.node[34].veinsmobility 	stopTime 	143.5
scalar IntersectionExampleScenario.node[34].veinsmobility 	minSpeed 	0.67305433750153
scalar IntersectionExampleScenario.node[34].veinsmobility 	maxSpeed 	14.894940376282
scalar IntersectionExampleScenario.node[34].veinsmobility 	totalDistance 	574.67842385943
scalar IntersectionExampleScenario.node[34].veinsmobility 	totalCO2Emission 	136.571405923
scalar IntersectionExampleScenario.node[29].appl 	VehicleRemoved 	0
scalar IntersectionExampleScenario.node[29].appl 	ArrivedAtDest 	1
scalar IntersectionExampleScenario.node[29].appl 	IntersectionEnterTime 	92.5
scalar IntersectionExampleScenario.node[29].appl 	IntersectionExitTime 	128.06979339666
scalar IntersectionExampleScenario.node[29].appl 	NumberOfCollisions 	0
scalar IntersectionExampleScenario.node[29].nic.phy80211p 	busyTime 	0
scalar IntersectionExampleScenario.node[29].nic.mac1609_4 	ReceivedUnicastPackets 	0
scalar IntersectionExampleScenario.node[29].nic.mac1609_4 	ReceivedBroadcasts 	0
scalar IntersectionExampleScenario.node[29].nic.mac1609_4 	SentPackets 	0
scalar IntersectionExampleScenario.node[29].nic.mac1609_4 	SNIRLostPackets 	0
scalar IntersectionExampleScenario.node[29].nic.mac1609_4 	RXTXLostPackets 	0
scalar IntersectionExampleScenario.node[29].nic.mac1609_4 	TotalLostPackets 	0
scalar IntersectionExampleScenario.node[29].nic.mac1609_4 	DroppedPacketsInMac 	0
scalar IntersectionExampleScenario.node[29].nic.mac1609_4 	TooLittleTime 	0
scalar IntersectionExampleScenario.node[29].nic.mac1609_4 	TimesIntoBackoff 	0
scalar IntersectionExampleScenario.node[29].nic.mac1609_4 	SlotsBackoff 	0
scalar IntersectionExampleScenario.node[29].nic.mac1609_4 	NumInternalContention 	0
scalar IntersectionExampleScenario.node[29].nic.mac1609_4 	totalBusyTime 	0
scalar IntersectionExampleScenario.node[29].veinsmobility 	startTime 	92.5
scalar IntersectionExampleScenario.node[29].veinsmobility 	totalTime 	52
scalar IntersectionExampleScenario.node[29].veinsmobility 	stopTime 	144.75
scalar IntersectionExampleScenario.node[29].veinsmobility 	minSpeed 	0
scalar IntersectionExampleScenario.node[29].veinsmobility 	maxSpeed 	14.942029953003
scalar IntersectionExampleScenario.node[29].veinsmobility 	totalDistance 	572.80172729492
scalar IntersectionExampleScenario.node[29].veinsmobility 	totalCO2Emission 	145.44246142376
scalar IntersectionExampleScenario.node[35].appl 	VehicleRemoved 	0
scalar IntersectionExampleScenario.node[35].appl 	ArrivedAtDest 	1
scalar IntersectionExampleScenario.node[35].appl 	IntersectionEnterTime 	106.25
scalar IntersectionExampleScenario.node[35].appl 	IntersectionExitTime 	130.06843268292
scalar IntersectionExampleScenario.node[35].appl 	NumberOfCollisions 	0
scalar IntersectionExampleScenario.node[35].nic.phy80211p 	busyTime 	0
scalar IntersectionExampleScenario.node[35].nic.mac1609_4 	ReceivedUnicastPackets 	0
scalar IntersectionExampleScenario.node[35].nic.mac1609_4 	ReceivedBroadcasts 	0
scalar IntersectionExampleScenario.node[35].nic.mac1609_4 	SentPackets 	0
scalar IntersectionExampleScenario.node[35].nic.mac1609_4 	SNIRLostPackets 	0
scalar IntersectionExampleScenario.node[35].nic.mac1609_4 	RXTXLostPackets 	0
scalar IntersectionExampleScenario.node[35].nic.mac1609_4 	TotalLostPackets 	0
scalar IntersectionExampleScenario.node[35].nic.mac1609_4 	DroppedPacketsInMac 	0
scalar IntersectionExampleScenario.node[35].nic.mac1609_4 	TooLittleTime 	0
scalar IntersectionExampleScenario.node[35].nic.mac1609_4 	TimesIntoBackoff 	0
scalar IntersectionExampleScenario.node[35].nic.mac1609_4 	SlotsBackoff 	0
scalar IntersectionExampleScenario.node[35].nic.mac1609_4 	NumInternalContention 	0
scalar IntersectionExampleScenario.node[35].nic.mac1609_4 	totalBusyTime 	0
scalar IntersectionExampleScenario.node[35].veinsmobility 	startTime 	106.25
scalar IntersectionExampleScenario.node[35].veinsmobility 	totalTime 	39.75
scalar IntersectionExampleScenario.node[35].veinsmobility 	stopTime 	146.25
scalar IntersectionExampleScenario.node[35].veinsmobility 	minSpeed 	5.6500000953674
scalar IntersectionExampleScenario.node[35].veinsmobility 	maxSpeed 	15.896394729614
scalar IntersectionExampleScenario.node[35].veinsmobility 	totalDistance 	549.77628550566
scalar IntersectionExampleScenario.node[35].veinsmobility 	totalCO2Emission 	135.53437480186
scalar IntersectionExampleScenario.node[31].appl 	VehicleRemoved 	0
scalar IntersectionExampleScenario.node[31].appl 	ArrivedAtDest 	1
scalar IntersectionExampleScenario.node[31].appl 	IntersectionEnterTime 	93.75
scalar IntersectionExampleScenario.node[31].appl 	IntersectionExitTime 	130.55169722962
scalar IntersectionExampleScenario.node[31].appl 	NumberOfCollisions 	0
scalar IntersectionExampleScenario.node[31].nic.phy80211p 	busyTime 	0
scalar IntersectionExampleScenario.node[31].nic.mac1609_4 	ReceivedUnicastPackets 	0
scalar IntersectionExampleScenario.node[31].nic.mac1609_4 	ReceivedBroadcasts 	0
scalar IntersectionExampleScenario.node[31].nic.mac1609_4 	SentPackets 	0
scalar IntersectionExampleScenario.node[31].nic.mac1609_4 	SNIRLostPackets 	0
scalar IntersectionExampleScenario.node[31].nic.mac1609_4 	RXTXLostPackets 	0
scalar IntersectionExampleScenario.node[31].nic.mac1609_4 	TotalLostPackets 	0
scalar IntersectionExampleScenario.node[31].nic.mac1609_4 	DroppedPacketsInMac 	0
scalar IntersectionExampleScenario.node[31].nic.mac1609_4 	TooLittleTime 	0
scalar IntersectionExampleScenario.node[31].nic.mac1609_4 	TimesIntoBackoff 	0
scalar IntersectionExampleScenario.node[31].nic.mac1609_4 	SlotsBackoff 	0
scalar IntersectionExampleScenario.node[31].nic.mac1609_4 	NumInternalContention 	0
scalar IntersectionExampleScenario.node[31].nic.mac1609_4 	totalBusyTime 	0
scalar IntersectionExampleScenario.node[31].veinsmobility 	startTime 	93.75
scalar IntersectionExampleScenario.node[31].veinsmobility 	totalTime 	53.25
scalar IntersectionExampleScenario.node[31].veinsmobility 	stopTime 	147.25
scalar IntersectionExampleScenario.node[31].veinsmobility 	minSpeed 	1.7473345994949
scalar IntersectionExampleScenario.node[31].veinsmobility 	maxSpeed 	15.375
scalar IntersectionExampleScenario.node[31].veinsmobility 	totalDistance 	580.82362537246
scalar IntersectionExampleScenario.node[31].veinsmobility 	totalCO2Emission 	145.00430588518
scalar IntersectionExampleScenario.node[36].appl 	VehicleRemoved 	0
scalar IntersectionExampleScenario.node[36].appl 	ArrivedAtDest 	1
scalar IntersectionExampleScenario.node[36].appl 	IntersectionEnterTime 	112.25
scalar IntersectionExampleScenario.node[36].appl 	IntersectionExitTime 	138.60052076599
scalar IntersectionExampleScenario.node[36].appl 	NumberOfCollisions 	0
scalar IntersectionExampleScenario.node[36].nic.phy80211p 	busyTime 	0
scalar IntersectionExampleScenario.node[36].nic.mac1609_4 	ReceivedUnicastPackets 	0
scalar IntersectionExampleScenario.node[36].nic.mac1609_4 	ReceivedBroadcasts 	0
scalar IntersectionExampleScenario.node[36].nic.mac1609_4 	SentPackets 	0
scalar IntersectionExampleScenario.node[36].nic.mac1609_4 	SNIRLostPackets 	0
scalar IntersectionExampleScenario.node[36].nic.mac1609_4 	RXTXLostPackets 	0
scalar IntersectionExampleScenario.node[36].nic.mac1609_4 	TotalLostPackets 	0
scalar IntersectionExampleScenario.node[36].nic.mac1609_4 	DroppedPacketsInMac 	0
scalar IntersectionExampleScenario.node[36].nic.mac1609_4 	TooLittleTime 	0
scalar IntersectionExampleScenario.node[36].nic.mac1609_4 	TimesIntoBackoff 	0
scalar IntersectionExampleScenario.node[36].nic.mac1609_4 	SlotsBackoff 	0
scalar IntersectionExampleScenario.node[36].nic.mac1609_4 	NumInternalContention 	0
scalar IntersectionExampleScenario.node[36].nic.mac1609_4 	totalBusyTime 	0
scalar IntersectionExampleScenario.node[36].veinsmobility 	startTime 	112.25
scalar IntersectionExampleScenario.node[36].veinsmobility 	totalTime 	43.5
scalar IntersectionExampleScenario.node[36].veinsmobility 	stopTime 	156
scalar IntersectionExampleScenario.node[36].veinsmobility 	minSpeed 	0
scalar IntersectionExampleScenario.node[36].veinsmobility 	maxSpeed 	15.02499961853
scalar IntersectionExampleScenario.node[36].veinsmobility 	totalDistance 	543.13829709441
scalar IntersectionExampleScenario.node[36].veinsmobility 	totalCO2Emission 	130.57861469783
scalar IntersectionExampleScenario.node[38].appl 	VehicleRemoved 	0
scalar IntersectionExampleScenario.node[38].appl 	ArrivedAtDest 	1
scalar IntersectionExampleScenario.node[38].appl 	IntersectionEnterTime 	118.5
scalar IntersectionExampleScenario.node[38].appl 	IntersectionExitTime 	141.59586529844
scalar IntersectionExampleScenario.node[38].appl 	NumberOfCollisions 	0
scalar IntersectionExampleScenario.node[38].nic.phy80211p 	busyTime 	0
scalar IntersectionExampleScenario.node[38].nic.mac1609_4 	ReceivedUnicastPackets 	0
scalar IntersectionExampleScenario.node[38].nic.mac1609_4 	ReceivedBroadcasts 	0
scalar IntersectionExampleScenario.node[38].nic.mac1609_4 	SentPackets 	0
scalar IntersectionExampleScenario.node[38].nic.mac1609_4 	SNIRLostPackets 	0
scalar IntersectionExampleScenario.node[38].nic.mac1609_4 	RXTXLostPackets 	0
scalar IntersectionExampleScenario.node[38].nic.mac1609_4 	TotalLostPackets 	0
scalar IntersectionExampleScenario.node[38].nic.mac1609_4 	DroppedPacketsInMac 	0
scalar IntersectionExampleScenario.node[38].nic.mac1609_4 	TooLittleTime 	0
scalar IntersectionExampleScenario.node[38].nic.mac1609_4 	TimesIntoBackoff 	0
scalar IntersectionExampleScenario.node[38].nic.mac1609_4 	SlotsBackoff 	0
scalar IntersectionExampleScenario.node[38].nic.mac1609_4 	NumInternalContention 	0
scalar IntersectionExampleScenario.node[38].nic.mac1609_4 	totalBusyTime 	0
scalar IntersectionExampleScenario.node[38].veinsmobility 	startTime 	118.5
scalar IntersectionExampleScenario.node[38].veinsmobility 	totalTime 	39
scalar IntersectionExampleScenario.node[38].veinsmobility 	stopTime 	157.75
scalar IntersectionExampleScenario.node[38].veinsmobility 	minSpeed 	5.6500000953674
scalar IntersectionExampleScenario.node[38].veinsmobility 	maxSpeed 	15.64999961853
scalar IntersectionExampleScenario.node[38].veinsmobility 	totalDistance 	553.44669342041
scalar IntersectionExampleScenario.node[38].veinsmobility 	totalCO2Emission 	117.39514436387
scalar IntersectionExampleScenario.node[40].appl 	VehicleRemoved 	0
scalar IntersectionExampleScenario.node[40].appl 	ArrivedAtDest 	1
scalar IntersectionExampleScenario.node[40].appl 	IntersectionEnterTime 	121.5
scalar IntersectionExampleScenario.node[40].appl 	IntersectionExitTime 	144.33608186978
scalar IntersectionExampleScenario.node[40].appl 	NumberOfCollisions 	0
scalar IntersectionExampleScenario.node[40].nic.phy80211p 	busyTime 	0
scalar IntersectionExampleScenario.node[40].nic.mac1609_4 	ReceivedUnicastPackets 	0
scalar IntersectionExampleScenario.node[40].nic.mac1609_4 	ReceivedBroadcasts 	0
scalar IntersectionExampleScenario.node[40].nic.mac1609_4 	SentPackets 	0
scalar IntersectionExampleScenario.node[40].nic.mac1609_4 	SNIRLostPackets 	0
scalar IntersectionExampleScenario.node[40].nic.mac1609_4 	RXTXLostPackets 	0
scalar IntersectionExampleScenario.node[40].nic.mac1609_4 	TotalLostPackets 	0
scalar IntersectionExampleScenario.node[40].nic.mac1609_4 	DroppedPacketsInMac 	0
scalar IntersectionExampleScenario.node[40].nic.mac1609_4 	TooLittleTime 	0
scalar IntersectionExampleScenario.node[40].nic.mac1609_4 	TimesIntoBackoff 	0
scalar IntersectionExampleScenario.node[40].nic.mac1609_4 	SlotsBackoff 	0
scalar IntersectionExampleScenario.node[40].nic.mac1609_4 	NumInternalContention 	0
scalar IntersectionExampleScenario.node[40].nic.mac1609_4 	totalBusyTime 	0
scalar IntersectionExampleScenario.node[40].veinsmobility 	startTime 	121.5
scalar IntersectionExampleScenario.node[40].veinsmobility 	totalTime 	38.75
scalar IntersectionExampleScenario.node[40].veinsmobility 	stopTime 	160.5
scalar IntersectionExampleScenario.node[40].veinsmobility 	minSpeed 	5.6500000953674
scalar IntersectionExampleScenario.node[40].veinsmobility 	maxSpeed 	16.27499961853
scalar IntersectionExampleScenario.node[40].veinsmobility 	totalDistance 	551.38307611104
scalar IntersectionExampleScenario.node[40].veinsmobility 	totalCO2Emission 	128.78149384243
scalar IntersectionExampleScenario.node[39].appl 	VehicleRemoved 	0
scalar IntersectionExampleScenario.node[39].appl 	ArrivedAtDest 	1
scalar IntersectionExampleScenario.node[39].appl 	IntersectionEnterTime 	121.5
scalar IntersectionExampleScenario.node[39].appl 	IntersectionExitTime 	145.06431447089
scalar IntersectionExampleScenario.node[39].appl 	NumberOfCollisions 	0
scalar IntersectionExampleScenario.node[39].nic.phy80211p 	busyTime 	0
scalar IntersectionExampleScenario.node[39].nic.mac1609_4 	ReceivedUnicastPackets 	0
scalar IntersectionExampleScenario.node[39].nic.mac1609_4 	ReceivedBroadcasts 	0
scalar IntersectionExampleScenario.node[39].nic.mac1609_4 	SentPackets 	0
scalar IntersectionExampleScenario.node[39].nic.mac1609_4 	SNIRLostPackets 	0
scalar IntersectionExampleScenario.node[39].nic.mac1609_4 	RXTXLostPackets 	0
scalar IntersectionExampleScenario.node[39].nic.mac1609_4 	TotalLostPackets 	0
scalar IntersectionExampleScenario.node[39].nic.mac1609_4 	DroppedPacketsInMac 	0
scalar IntersectionExampleScenario.node[39].nic.mac1609_4 	TooLittleTime 	0
[...]
scalar IntersectionExampleScenario.node[510].veinsmobility 	totalCO2Emission 	128.46204672377
scalar IntersectionExampleScenario.node[511].appl 	VehicleRemoved 	0
scalar IntersectionExampleScenario.node[511].appl 	ArrivedAtDest 	0
scalar IntersectionExampleScenario.node[511].appl 	IntersectionEnterTime 	1763.25
scalar IntersectionExampleScenario.node[511].appl 	IntersectionExitTime 	1791.3708145451
scalar IntersectionExampleScenario.node[511].appl 	NumberOfCollisions 	0
scalar IntersectionExampleScenario.node[511].nic.phy80211p 	busyTime 	0
scalar IntersectionExampleScenario.node[511].nic.mac1609_4 	ReceivedUnicastPackets 	0
scalar IntersectionExampleScenario.node[511].nic.mac1609_4 	ReceivedBroadcasts 	0
scalar IntersectionExampleScenario.node[511].nic.mac1609_4 	SentPackets 	0
scalar IntersectionExampleScenario.node[511].nic.mac1609_4 	SNIRLostPackets 	0
scalar IntersectionExampleScenario.node[511].nic.mac1609_4 	RXTXLostPackets 	0
scalar IntersectionExampleScenario.node[511].nic.mac1609_4 	TotalLostPackets 	0
scalar IntersectionExampleScenario.node[511].nic.mac1609_4 	DroppedPacketsInMac 	0
scalar IntersectionExampleScenario.node[511].nic.mac1609_4 	TooLittleTime 	0
scalar IntersectionExampleScenario.node[511].nic.mac1609_4 	TimesIntoBackoff 	0
scalar IntersectionExampleScenario.node[511].nic.mac1609_4 	SlotsBackoff 	0
scalar IntersectionExampleScenario.node[511].nic.mac1609_4 	NumInternalContention 	0
scalar IntersectionExampleScenario.node[511].nic.mac1609_4 	totalBusyTime 	0
scalar IntersectionExampleScenario.node[511].veinsmobility 	startTime 	1763.25
scalar IntersectionExampleScenario.node[511].veinsmobility 	totalTime 	36.75
scalar IntersectionExampleScenario.node[511].veinsmobility 	stopTime 	1800
scalar IntersectionExampleScenario.node[511].veinsmobility 	minSpeed 	4.5185561180115
scalar IntersectionExampleScenario.node[511].veinsmobility 	maxSpeed 	15.25
scalar IntersectionExampleScenario.node[511].veinsmobility 	totalDistance 	420.86642650503
scalar IntersectionExampleScenario.node[511].veinsmobility 	totalCO2Emission 	116.29345507179
scalar IntersectionExampleScenario.node[512].appl 	VehicleRemoved 	0
scalar IntersectionExampleScenario.node[512].appl 	ArrivedAtDest 	0
scalar IntersectionExampleScenario.node[512].appl 	IntersectionEnterTime 	1763.5
scalar IntersectionExampleScenario.node[512].appl 	IntersectionExitTime 	-1
scalar IntersectionExampleScenario.node[512].appl 	NumberOfCollisions 	0
scalar IntersectionExampleScenario.node[512].nic.phy80211p 	busyTime 	0
scalar IntersectionExampleScenario.node[512].nic.mac1609_4 	ReceivedUnicastPackets 	0
scalar IntersectionExampleScenario.node[512].nic.mac1609_4 	ReceivedBroadcasts 	0
scalar IntersectionExampleScenario.node[512].nic.mac1609_4 	SentPackets 	0
scalar IntersectionExampleScenario.node[512].nic.mac1609_4 	SNIRLostPackets 	0
scalar IntersectionExampleScenario.node[512].nic.mac1609_4 	RXTXLostPackets 	0
scalar IntersectionExampleScenario.node[512].nic.mac1609_4 	TotalLostPackets 	0
scalar IntersectionExampleScenario.node[512].nic.mac1609_4 	DroppedPacketsInMac 	0
scalar IntersectionExampleScenario.node[512].nic.mac1609_4 	TooLittleTime 	0
scalar IntersectionExampleScenario.node[512].nic.mac1609_4 	TimesIntoBackoff 	0
scalar IntersectionExampleScenario.node[512].nic.mac1609_4 	SlotsBackoff 	0
scalar IntersectionExampleScenario.node[512].nic.mac1609_4 	NumInternalContention 	0
scalar IntersectionExampleScenario.node[512].nic.mac1609_4 	totalBusyTime 	0
scalar IntersectionExampleScenario.node[512].veinsmobility 	startTime 	1763.5
scalar IntersectionExampleScenario.node[512].veinsmobility 	totalTime 	36.5
scalar IntersectionExampleScenario.node[512].veinsmobility 	stopTime 	1800
scalar IntersectionExampleScenario.node[512].veinsmobility 	minSpeed 	0
scalar IntersectionExampleScenario.node[512].veinsmobility 	maxSpeed 	15.65456867218
scalar IntersectionExampleScenario.node[512].veinsmobility 	totalDistance 	318.52969360352
scalar IntersectionExampleScenario.node[512].veinsmobility 	totalCO2Emission 	82.666873616755
scalar IntersectionExampleScenario.node[513].appl 	VehicleRemoved 	0
scalar IntersectionExampleScenario.node[513].appl 	ArrivedAtDest 	0
scalar IntersectionExampleScenario.node[513].appl 	IntersectionEnterTime 	1768.25
scalar IntersectionExampleScenario.node[513].appl 	IntersectionExitTime 	-1
scalar IntersectionExampleScenario.node[513].appl 	NumberOfCollisions 	0
scalar IntersectionExampleScenario.node[513].nic.phy80211p 	busyTime 	0
scalar IntersectionExampleScenario.node[513].nic.mac1609_4 	ReceivedUnicastPackets 	0
scalar IntersectionExampleScenario.node[513].nic.mac1609_4 	ReceivedBroadcasts 	0
scalar IntersectionExampleScenario.node[513].nic.mac1609_4 	SentPackets 	0
scalar IntersectionExampleScenario.node[513].nic.mac1609_4 	SNIRLostPackets 	0
scalar IntersectionExampleScenario.node[513].nic.mac1609_4 	RXTXLostPackets 	0
scalar IntersectionExampleScenario.node[513].nic.mac1609_4 	TotalLostPackets 	0
scalar IntersectionExampleScenario.node[513].nic.mac1609_4 	DroppedPacketsInMac 	0
scalar IntersectionExampleScenario.node[513].nic.mac1609_4 	TooLittleTime 	0
scalar IntersectionExampleScenario.node[513].nic.mac1609_4 	TimesIntoBackoff 	0
scalar IntersectionExampleScenario.node[513].nic.mac1609_4 	SlotsBackoff 	0
scalar IntersectionExampleScenario.node[513].nic.mac1609_4 	NumInternalContention 	0
scalar IntersectionExampleScenario.node[513].nic.mac1609_4 	totalBusyTime 	0
scalar IntersectionExampleScenario.node[513].veinsmobility 	startTime 	1768.25
scalar IntersectionExampleScenario.node[513].veinsmobility 	totalTime 	31.75
scalar IntersectionExampleScenario.node[513].veinsmobility 	stopTime 	1800
scalar IntersectionExampleScenario.node[513].veinsmobility 	minSpeed 	0
scalar IntersectionExampleScenario.node[513].veinsmobility 	maxSpeed 	15.02499961853
scalar IntersectionExampleScenario.node[513].veinsmobility 	totalDistance 	287.42188262939
scalar IntersectionExampleScenario.node[513].veinsmobility 	totalCO2Emission 	73.663462529346
scalar IntersectionExampleScenario.node[514].appl 	VehicleRemoved 	0
scalar IntersectionExampleScenario.node[514].appl 	ArrivedAtDest 	0
scalar IntersectionExampleScenario.node[514].appl 	IntersectionEnterTime 	1768.75
scalar IntersectionExampleScenario.node[514].appl 	IntersectionExitTime 	1793.8426112617
scalar IntersectionExampleScenario.node[514].appl 	NumberOfCollisions 	0
scalar IntersectionExampleScenario.node[514].nic.phy80211p 	busyTime 	0
scalar IntersectionExampleScenario.node[514].nic.mac1609_4 	ReceivedUnicastPackets 	0
scalar IntersectionExampleScenario.node[514].nic.mac1609_4 	ReceivedBroadcasts 	0
scalar IntersectionExampleScenario.node[514].nic.mac1609_4 	SentPackets 	0
scalar IntersectionExampleScenario.node[514].nic.mac1609_4 	SNIRLostPackets 	0
scalar IntersectionExampleScenario.node[514].nic.mac1609_4 	RXTXLostPackets 	0
scalar IntersectionExampleScenario.node[514].nic.mac1609_4 	TotalLostPackets 	0
scalar IntersectionExampleScenario.node[514].nic.mac1609_4 	DroppedPacketsInMac 	0
scalar IntersectionExampleScenario.node[514].nic.mac1609_4 	TooLittleTime 	0
scalar IntersectionExampleScenario.node[514].nic.mac1609_4 	TimesIntoBackoff 	0
scalar IntersectionExampleScenario.node[514].nic.mac1609_4 	SlotsBackoff 	0
scalar IntersectionExampleScenario.node[514].nic.mac1609_4 	NumInternalContention 	0
scalar IntersectionExampleScenario.node[514].nic.mac1609_4 	totalBusyTime 	0
scalar IntersectionExampleScenario.node[514].veinsmobility 	startTime 	1768.75
scalar IntersectionExampleScenario.node[514].veinsmobility 	totalTime 	31.25
scalar IntersectionExampleScenario.node[514].veinsmobility 	stopTime 	1800
scalar IntersectionExampleScenario.node[514].veinsmobility 	minSpeed 	5.6500000953674
scalar IntersectionExampleScenario.node[514].veinsmobility 	maxSpeed 	15.673743247986
scalar IntersectionExampleScenario.node[514].veinsmobility 	totalDistance 	397.76145192833
scalar IntersectionExampleScenario.node[514].veinsmobility 	totalCO2Emission 	118.97149638055
scalar IntersectionExampleScenario.node[515].appl 	VehicleRemoved 	0
scalar IntersectionExampleScenario.node[515].appl 	ArrivedAtDest 	0
scalar IntersectionExampleScenario.node[515].appl 	IntersectionEnterTime 	1775.5
scalar IntersectionExampleScenario.node[515].appl 	IntersectionExitTime 	1798.8258947119
scalar IntersectionExampleScenario.node[515].appl 	NumberOfCollisions 	0
scalar IntersectionExampleScenario.node[515].nic.phy80211p 	busyTime 	0
scalar IntersectionExampleScenario.node[515].nic.mac1609_4 	ReceivedUnicastPackets 	0
scalar IntersectionExampleScenario.node[515].nic.mac1609_4 	ReceivedBroadcasts 	0
scalar IntersectionExampleScenario.node[515].nic.mac1609_4 	SentPackets 	0
scalar IntersectionExampleScenario.node[515].nic.mac1609_4 	SNIRLostPackets 	0
scalar IntersectionExampleScenario.node[515].nic.mac1609_4 	RXTXLostPackets 	0
scalar IntersectionExampleScenario.node[515].nic.mac1609_4 	TotalLostPackets 	0
scalar IntersectionExampleScenario.node[515].nic.mac1609_4 	DroppedPacketsInMac 	0
scalar IntersectionExampleScenario.node[515].nic.mac1609_4 	TooLittleTime 	0
scalar IntersectionExampleScenario.node[515].nic.mac1609_4 	TimesIntoBackoff 	0
scalar IntersectionExampleScenario.node[515].nic.mac1609_4 	SlotsBackoff 	0
scalar IntersectionExampleScenario.node[515].nic.mac1609_4 	NumInternalContention 	0
scalar IntersectionExampleScenario.node[515].nic.mac1609_4 	totalBusyTime 	0
scalar IntersectionExampleScenario.node[515].veinsmobility 	startTime 	1775.5
scalar IntersectionExampleScenario.node[515].veinsmobility 	totalTime 	24.5
scalar IntersectionExampleScenario.node[515].veinsmobility 	stopTime 	1800
scalar IntersectionExampleScenario.node[515].veinsmobility 	minSpeed 	5.6500000953674
scalar IntersectionExampleScenario.node[515].veinsmobility 	maxSpeed 	15.64999961853
scalar IntersectionExampleScenario.node[515].veinsmobility 	totalDistance 	314.62112280333
scalar IntersectionExampleScenario.node[515].veinsmobility 	totalCO2Emission 	76.318064364191
scalar IntersectionExampleScenario.node[516].appl 	VehicleRemoved 	0
scalar IntersectionExampleScenario.node[516].appl 	ArrivedAtDest 	0
scalar IntersectionExampleScenario.node[516].appl 	IntersectionEnterTime 	1777.5
scalar IntersectionExampleScenario.node[516].appl 	IntersectionExitTime 	-1
scalar IntersectionExampleScenario.node[516].appl 	NumberOfCollisions 	0
scalar IntersectionExampleScenario.node[516].nic.phy80211p 	busyTime 	0
scalar IntersectionExampleScenario.node[516].nic.mac1609_4 	ReceivedUnicastPackets 	0
scalar IntersectionExampleScenario.node[516].nic.mac1609_4 	ReceivedBroadcasts 	0
scalar IntersectionExampleScenario.node[516].nic.mac1609_4 	SentPackets 	0
scalar IntersectionExampleScenario.node[516].nic.mac1609_4 	SNIRLostPackets 	0
scalar IntersectionExampleScenario.node[516].nic.mac1609_4 	RXTXLostPackets 	0
scalar IntersectionExampleScenario.node[516].nic.mac1609_4 	TotalLostPackets 	0
scalar IntersectionExampleScenario.node[516].nic.mac1609_4 	DroppedPacketsInMac 	0
scalar IntersectionExampleScenario.node[516].nic.mac1609_4 	TooLittleTime 	0
scalar IntersectionExampleScenario.node[516].nic.mac1609_4 	TimesIntoBackoff 	0
scalar IntersectionExampleScenario.node[516].nic.mac1609_4 	SlotsBackoff 	0
scalar IntersectionExampleScenario.node[516].nic.mac1609_4 	NumInternalContention 	0
scalar IntersectionExampleScenario.node[516].nic.mac1609_4 	totalBusyTime 	0
scalar IntersectionExampleScenario.node[516].veinsmobility 	startTime 	1777.5
scalar IntersectionExampleScenario.node[516].veinsmobility 	totalTime 	22.5
scalar IntersectionExampleScenario.node[516].veinsmobility 	stopTime 	1800
scalar IntersectionExampleScenario.node[516].veinsmobility 	minSpeed 	4.054455280304
scalar IntersectionExampleScenario.node[516].veinsmobility 	maxSpeed 	15.02499961853
scalar IntersectionExampleScenario.node[516].veinsmobility 	totalDistance 	264.88794708252
scalar IntersectionExampleScenario.node[516].veinsmobility 	totalCO2Emission 	61.023869466151
scalar IntersectionExampleScenario.node[517].appl 	VehicleRemoved 	0
scalar IntersectionExampleScenario.node[517].appl 	ArrivedAtDest 	0
scalar IntersectionExampleScenario.node[517].appl 	IntersectionEnterTime 	1782.75
scalar IntersectionExampleScenario.node[517].appl 	IntersectionExitTime 	-1
scalar IntersectionExampleScenario.node[517].appl 	NumberOfCollisions 	0
scalar IntersectionExampleScenario.node[517].nic.phy80211p 	busyTime 	0
scalar IntersectionExampleScenario.node[517].nic.mac1609_4 	ReceivedUnicastPackets 	0
scalar IntersectionExampleScenario.node[517].nic.mac1609_4 	ReceivedBroadcasts 	0
scalar IntersectionExampleScenario.node[517].nic.mac1609_4 	SentPackets 	0
scalar IntersectionExampleScenario.node[517].nic.mac1609_4 	SNIRLostPackets 	0
scalar IntersectionExampleScenario.node[517].nic.mac1609_4 	RXTXLostPackets 	0
scalar IntersectionExampleScenario.node[517].nic.mac1609_4 	TotalLostPackets 	0
scalar IntersectionExampleScenario.node[517].nic.mac1609_4 	DroppedPacketsInMac 	0
scalar IntersectionExampleScenario.node[517].nic.mac1609_4 	TooLittleTime 	0
scalar IntersectionExampleScenario.node[517].nic.mac1609_4 	TimesIntoBackoff 	0
scalar IntersectionExampleScenario.node[517].nic.mac1609_4 	SlotsBackoff 	0
scalar IntersectionExampleScenario.node[517].nic.mac1609_4 	NumInternalContention 	0
scalar IntersectionExampleScenario.node[517].nic.mac1609_4 	totalBusyTime 	0
scalar IntersectionExampleScenario.node[517].veinsmobility 	startTime 	1782.75
scalar IntersectionExampleScenario.node[517].veinsmobility 	totalTime 	17.25
scalar IntersectionExampleScenario.node[517].veinsmobility 	stopTime 	1800
scalar IntersectionExampleScenario.node[517].veinsmobility 	minSpeed 	5.6500000953674
scalar IntersectionExampleScenario.node[517].veinsmobility 	maxSpeed 	15.02499961853
scalar IntersectionExampleScenario.node[517].veinsmobility 	totalDistance 	222.65152740479
scalar IntersectionExampleScenario.node[517].veinsmobility 	totalCO2Emission 	53.565443971022
scalar IntersectionExampleScenario.node[518].appl 	VehicleRemoved 	0
scalar IntersectionExampleScenario.node[518].appl 	ArrivedAtDest 	0
scalar IntersectionExampleScenario.node[518].appl 	IntersectionEnterTime 	1784.5
scalar IntersectionExampleScenario.node[518].appl 	IntersectionExitTime 	-1
scalar IntersectionExampleScenario.node[518].appl 	NumberOfCollisions 	0
scalar IntersectionExampleScenario.node[518].nic.phy80211p 	busyTime 	0
scalar IntersectionExampleScenario.node[518].nic.mac1609_4 	ReceivedUnicastPackets 	0
scalar IntersectionExampleScenario.node[518].nic.mac1609_4 	ReceivedBroadcasts 	0
scalar IntersectionExampleScenario.node[518].nic.mac1609_4 	SentPackets 	0
scalar IntersectionExampleScenario.node[518].nic.mac1609_4 	SNIRLostPackets 	0
scalar IntersectionExampleScenario.node[518].nic.mac1609_4 	RXTXLostPackets 	0
scalar IntersectionExampleScenario.node[518].nic.mac1609_4 	TotalLostPackets 	0
scalar IntersectionExampleScenario.node[518].nic.mac1609_4 	DroppedPacketsInMac 	0
scalar IntersectionExampleScenario.node[518].nic.mac1609_4 	TooLittleTime 	0
scalar IntersectionExampleScenario.node[518].nic.mac1609_4 	TimesIntoBackoff 	0
scalar IntersectionExampleScenario.node[518].nic.mac1609_4 	SlotsBackoff 	0
scalar IntersectionExampleScenario.node[518].nic.mac1609_4 	NumInternalContention 	0
scalar IntersectionExampleScenario.node[518].nic.mac1609_4 	totalBusyTime 	0
scalar IntersectionExampleScenario.node[518].veinsmobility 	startTime 	1784.5
scalar IntersectionExampleScenario.node[518].veinsmobility 	totalTime 	15.5
scalar IntersectionExampleScenario.node[518].veinsmobility 	stopTime 	1800
scalar IntersectionExampleScenario.node[518].veinsmobility 	minSpeed 	5.6500000953674
scalar IntersectionExampleScenario.node[518].veinsmobility 	maxSpeed 	15.02499961853
scalar IntersectionExampleScenario.node[518].veinsmobility 	totalDistance 	207.32141113281
scalar IntersectionExampleScenario.node[518].veinsmobility 	totalCO2Emission 	52.540424058039
scalar IntersectionExampleScenario.node[519].appl 	VehicleRemoved 	0
scalar IntersectionExampleScenario.node[519].appl 	ArrivedAtDest 	0
scalar IntersectionExampleScenario.node[519].appl 	IntersectionEnterTime 	1786.5
scalar IntersectionExampleScenario.node[519].appl 	IntersectionExitTime 	-1
scalar IntersectionExampleScenario.node[519].appl 	NumberOfCollisions 	0
scalar IntersectionExampleScenario.node[519].nic.phy80211p 	busyTime 	0
scalar IntersectionExampleScenario.node[519].nic.mac1609_4 	ReceivedUnicastPackets 	0
scalar IntersectionExampleScenario.node[519].nic.mac1609_4 	ReceivedBroadcasts 	0
scalar IntersectionExampleScenario.node[519].nic.mac1609_4 	SentPackets 	0
scalar IntersectionExampleScenario.node[519].nic.mac1609_4 	SNIRLostPackets 	0
scalar IntersectionExampleScenario.node[519].nic.mac1609_4 	RXTXLostPackets 	0
scalar IntersectionExampleScenario.node[519].nic.mac1609_4 	TotalLostPackets 	0
scalar IntersectionExampleScenario.node[519].nic.mac1609_4 	DroppedPacketsInMac 	0
scalar IntersectionExampleScenario.node[519].nic.mac1609_4 	TooLittleTime 	0
scalar IntersectionExampleScenario.node[519].nic.mac1609_4 	TimesIntoBackoff 	0
scalar IntersectionExampleScenario.node[519].nic.mac1609_4 	SlotsBackoff 	0
scalar IntersectionExampleScenario.node[519].nic.mac1609_4 	NumInternalContention 	0
scalar IntersectionExampleScenario.node[519].nic.mac1609_4 	totalBusyTime 	0
scalar IntersectionExampleScenario.node[519].veinsmobility 	startTime 	1786.5
scalar IntersectionExampleScenario.node[519].veinsmobility 	totalTime 	13.5
scalar IntersectionExampleScenario.node[519].veinsmobility 	stopTime 	1800
scalar IntersectionExampleScenario.node[519].veinsmobility 	minSpeed 	5.6500000953674
scalar IntersectionExampleScenario.node[519].veinsmobility 	maxSpeed 	15.02499961853
scalar IntersectionExampleScenario.node[519].veinsmobility 	totalDistance 	182.82141113281
scalar IntersectionExampleScenario.node[519].veinsmobility 	totalCO2Emission 	51.049486548608
scalar IntersectionExampleScenario.node[520].appl 	VehicleRemoved 	0
scalar IntersectionExampleScenario.node[520].appl 	ArrivedAtDest 	0
scalar IntersectionExampleScenario.node[520].appl 	IntersectionEnterTime 	1786.75
scalar IntersectionExampleScenario.node[520].appl 	IntersectionExitTime 	-1
scalar IntersectionExampleScenario.node[520].appl 	NumberOfCollisions 	0
scalar IntersectionExampleScenario.node[520].nic.phy80211p 	busyTime 	0
scalar IntersectionExampleScenario.node[520].nic.mac1609_4 	ReceivedUnicastPackets 	0
scalar IntersectionExampleScenario.node[520].nic.mac1609_4 	ReceivedBroadcasts 	0
scalar IntersectionExampleScenario.node[520].nic.mac1609_4 	SentPackets 	0
scalar IntersectionExampleScenario.node[520].nic.mac1609_4 	SNIRLostPackets 	0
scalar IntersectionExampleScenario.node[520].nic.mac1609_4 	RXTXLostPackets 	0
scalar IntersectionExampleScenario.node[520].nic.mac1609_4 	TotalLostPackets 	0
scalar IntersectionExampleScenario.node[520].nic.mac1609_4 	DroppedPacketsInMac 	0
scalar IntersectionExampleScenario.node[520].nic.mac1609_4 	TooLittleTime 	0
scalar IntersectionExampleScenario.node[520].nic.mac1609_4 	TimesIntoBackoff 	0
scalar IntersectionExampleScenario.node[520].nic.mac1609_4 	SlotsBackoff 	0
scalar IntersectionExampleScenario.node[520].nic.mac1609_4 	NumInternalContention 	0
scalar IntersectionExampleScenario.node[520].nic.mac1609_4 	totalBusyTime 	0
scalar IntersectionExampleScenario.node[520].veinsmobility 	startTime 	1786.75
scalar IntersectionExampleScenario.node[520].veinsmobility 	totalTime 	13.25
scalar IntersectionExampleScenario.node[520].veinsmobility 	stopTime 	1800
scalar IntersectionExampleScenario.node[520].veinsmobility 	minSpeed 	5.6500000953674
scalar IntersectionExampleScenario.node[520].veinsmobility 	maxSpeed 	15.64999961853
scalar IntersectionExampleScenario.node[520].veinsmobility 	totalDistance 	181.38526153564
scalar IntersectionExampleScenario.node[520].veinsmobility 	totalCO2Emission 	51.682274901345
