file 15477186 1591473618                                        
version 2
run nodebug-33-20200606-15:58:01-20656
attr configname nodebug
attr datetime 20200606-15:58:01
attr experiment nodebug
attr inifile omnetpp.ini
attr iterationvars ""
attr iterationvars2 $repetition=33
attr measurement ""
attr network "\"org.car2x.veins.modules.application.ExtTraCIScenarioManagerLaunchd.IntersectionExampleScenario\""
attr processid 20656
attr repetition 33
attr replication #33
attr resultdir results
attr runnumber 33
attr seedset 33
param **.coreDebug false
param **.debug false
param *.**.nic.mac1609_4.bitrate 18Mbps
param *.**.nic.mac1609_4.txPower 20mW
param *.**.nic.mac1609_4.useServiceChannel false
param *.**.nic.phy80211p.analogueModels "xmldoc(\"config.xml\")"
param *.**.nic.phy80211p.decider "xmldoc(\"config.xml\")"
param *.**.nic.phy80211p.sensitivity -89dBm
param *.**.nic.phy80211p.thermalNoise -110dBm
param *.**.nic.phy80211p.usePropagationDelay true
param *.**.nic.phy80211p.useThermalNoise true
param *.annotations.draw false
param *.connectionManager.alpha 2.0
param *.connectionManager.carrierFrequency "5.890e9 Hz"
param *.connectionManager.pMax 20mW
param *.connectionManager.sat -89dBm
param *.connectionManager.sendDirect true
param *.manager.autoShutdown true
param *.manager.host "\"localhost\""
param *.manager.launchConfig "xmldoc(\"paramics.launchd.xml\")"
param *.manager.margin 25
param *.manager.moduleDisplayString "\"\""
param *.manager.moduleName "\"node\""
param *.manager.moduleType "\"org.car2x.veins.nodes.Car\""
param *.manager.port 9999
param *.manager.updateInterval 250ms
param *.node[*0].veinsmobility.accidentCount 0
param *.node[*0].veinsmobility.accidentDuration 30s
param *.node[*0].veinsmobility.accidentStart 75s
param *.node[*].appl.LiderSelectZoneRadio 55.0
param *.node[*].appl.ShareDataZoneRadio 110.0
param *.node[*].appl.TiempoSemaforo 30.0
param *.node[*].appl.beaconInterval 1s
param *.node[*].appl.beaconPriority 3
param *.node[*].appl.dataOnSch false
param *.node[*].appl.dataPriority 2
param *.node[*].appl.debug false
param *.node[*].appl.headerLength "256 bit"
param *.node[*].appl.maxOffset 0.005s
param *.node[*].appl.sendBeacons false
param *.node[*].appl.sendData true
param *.node[*].applType "\"Dummy\""
param *.node[*].mobilityType "\"TraCIMobility\""
param *.node[*].mobilityType.debug true
param *.node[*].veinsmobility.x 0
param *.node[*].veinsmobility.y 0
param *.node[*].veinsmobility.z 1.895
param *.node[*].veinsmobilityType "\"org.car2x.veins.modules.mobility.traci.TraCIMobility\""
param *.node[*].veinsmobilityType.debug true
param *.playgroundSizeX 8500m
param *.playgroundSizeY 8500m
param *.playgroundSizeZ 50m
param *.world.use2D false
param *.world.useTorus false

vector 28549  IntersectionExampleScenario.manager  vehiclesinsim  ETV
attr type  int
vector 28550  IntersectionExampleScenario.manager  realtime  ETV
attr type  int
attr unit  s
vector 28553  IntersectionExampleScenario.node[0].veinsmobility  posx  ETV
vector 28554  IntersectionExampleScenario.node[0].veinsmobility  posy  ETV
vector 28555  IntersectionExampleScenario.node[0].veinsmobility  speed  ETV
vector 28556  IntersectionExampleScenario.node[0].veinsmobility  acceleration  ETV
vector 28557  IntersectionExampleScenario.node[0].veinsmobility  co2emission  ETV
vector 28560  IntersectionExampleScenario.node[1].veinsmobility  posx  ETV
vector 28561  IntersectionExampleScenario.node[1].veinsmobility  posy  ETV
vector 28562  IntersectionExampleScenario.node[1].veinsmobility  speed  ETV
vector 28563  IntersectionExampleScenario.node[1].veinsmobility  acceleration  ETV
vector 28564  IntersectionExampleScenario.node[1].veinsmobility  co2emission  ETV
vector 28567  IntersectionExampleScenario.node[2].veinsmobility  posx  ETV
vector 28568  IntersectionExampleScenario.node[2].veinsmobility  posy  ETV
vector 28569  IntersectionExampleScenario.node[2].veinsmobility  speed  ETV
vector 28574  IntersectionExampleScenario.node[3].veinsmobility  posx  ETV
vector 28575  IntersectionExampleScenario.node[3].veinsmobility  posy  ETV
vector 28570  IntersectionExampleScenario.node[2].veinsmobility  acceleration  ETV
vector 28571  IntersectionExampleScenario.node[2].veinsmobility  co2emission  ETV
vector 28576  IntersectionExampleScenario.node[3].veinsmobility  speed  ETV
vector 28577  IntersectionExampleScenario.node[3].veinsmobility  acceleration  ETV
vector 28578  IntersectionExampleScenario.node[3].veinsmobility  co2emission  ETV
vector 28581  IntersectionExampleScenario.node[4].veinsmobility  posx  ETV
vector 28582  IntersectionExampleScenario.node[4].veinsmobility  posy  ETV
vector 28588  IntersectionExampleScenario.node[5].veinsmobility  posx  ETV
vector 28589  IntersectionExampleScenario.node[5].veinsmobility  posy  ETV
vector 28583  IntersectionExampleScenario.node[4].veinsmobility  speed  ETV
vector 28584  IntersectionExampleScenario.node[4].veinsmobility  acceleration  ETV
vector 28585  IntersectionExampleScenario.node[4].veinsmobility  co2emission  ETV
vector 28590  IntersectionExampleScenario.node[5].veinsmobility  speed  ETV
vector 28591  IntersectionExampleScenario.node[5].veinsmobility  acceleration  ETV
vector 28592  IntersectionExampleScenario.node[5].veinsmobility  co2emission  ETV
vector 28595  IntersectionExampleScenario.node[6].veinsmobility  posx  ETV
vector 28596  IntersectionExampleScenario.node[6].veinsmobility  posy  ETV
vector 28597  IntersectionExampleScenario.node[6].veinsmobility  speed  ETV
vector 28598  IntersectionExampleScenario.node[6].veinsmobility  acceleration  ETV
vector 28599  IntersectionExampleScenario.node[6].veinsmobility  co2emission  ETV
vector 28602  IntersectionExampleScenario.node[7].veinsmobility  posx  ETV
vector 28603  IntersectionExampleScenario.node[7].veinsmobility  posy  ETV
vector 28604  IntersectionExampleScenario.node[7].veinsmobility  speed  ETV
vector 28605  IntersectionExampleScenario.node[7].veinsmobility  acceleration  ETV
vector 28606  IntersectionExampleScenario.node[7].veinsmobility  co2emission  ETV
vector 28609  IntersectionExampleScenario.node[8].veinsmobility  posx  ETV
vector 28610  IntersectionExampleScenario.node[8].veinsmobility  posy  ETV
vector 28611  IntersectionExampleScenario.node[8].veinsmobility  speed  ETV
vector 28612  IntersectionExampleScenario.node[8].veinsmobility  acceleration  ETV
vector 28613  IntersectionExampleScenario.node[8].veinsmobility  co2emission  ETV
vector 28616  IntersectionExampleScenario.node[9].veinsmobility  posx  ETV
vector 28617  IntersectionExampleScenario.node[9].veinsmobility  posy  ETV
vector 28618  IntersectionExampleScenario.node[9].veinsmobility  speed  ETV
vector 28623  IntersectionExampleScenario.node[10].veinsmobility  posx  ETV
vector 28624  IntersectionExampleScenario.node[10].veinsmobility  posy  ETV
vector 28619  IntersectionExampleScenario.node[9].veinsmobility  acceleration  ETV
vector 28620  IntersectionExampleScenario.node[9].veinsmobility  co2emission  ETV
vector 28625  IntersectionExampleScenario.node[10].veinsmobility  speed  ETV
vector 28626  IntersectionExampleScenario.node[10].veinsmobility  acceleration  ETV
vector 28627  IntersectionExampleScenario.node[10].veinsmobility  co2emission  ETV
vector 28630  IntersectionExampleScenario.node[11].veinsmobility  posx  ETV
vector 28631  IntersectionExampleScenario.node[11].veinsmobility  posy  ETV
vector 28632  IntersectionExampleScenario.node[11].veinsmobility  speed  ETV
vector 28633  IntersectionExampleScenario.node[11].veinsmobility  acceleration  ETV
vector 28634  IntersectionExampleScenario.node[11].veinsmobility  co2emission  ETV
vector 28637  IntersectionExampleScenario.node[12].veinsmobility  posx  ETV
vector 28638  IntersectionExampleScenario.node[12].veinsmobility  posy  ETV
vector 28639  IntersectionExampleScenario.node[12].veinsmobility  speed  ETV
vector 28640  IntersectionExampleScenario.node[12].veinsmobility  acceleration  ETV
vector 28641  IntersectionExampleScenario.node[12].veinsmobility  co2emission  ETV
vector 28644  IntersectionExampleScenario.node[13].veinsmobility  posx  ETV
vector 28645  IntersectionExampleScenario.node[13].veinsmobility  posy  ETV
vector 28646  IntersectionExampleScenario.node[13].veinsmobility  speed  ETV
vector 28647  IntersectionExampleScenario.node[13].veinsmobility  acceleration  ETV
vector 28648  IntersectionExampleScenario.node[13].veinsmobility  co2emission  ETV
vector 28651  IntersectionExampleScenario.node[14].veinsmobility  posx  ETV
vector 28652  IntersectionExampleScenario.node[14].veinsmobility  posy  ETV
vector 28653  IntersectionExampleScenario.node[14].veinsmobility  speed  ETV
vector 28654  IntersectionExampleScenario.node[14].veinsmobility  acceleration  ETV
vector 28655  IntersectionExampleScenario.node[14].veinsmobility  co2emission  ETV
vector 28658  IntersectionExampleScenario.node[15].veinsmobility  posx  ETV
vector 28659  IntersectionExampleScenario.node[15].veinsmobility  posy  ETV
vector 28660  IntersectionExampleScenario.node[15].veinsmobility  speed  ETV
vector 28661  IntersectionExampleScenario.node[15].veinsmobility  acceleration  ETV
vector 28662  IntersectionExampleScenario.node[15].veinsmobility  co2emission  ETV
28571	9302 5080 92 2704 6.75 46.5 160 0.973 11.200708441096 454.78650599077 2190.3074413497
28570	14382 4563 92 2704 6.75 46.5 160 -3.1765289306641 2.5 35.455564498901 171.02307420914
28569	18945 5012 85 2704 6.5 46.5 161 5.6500000953674 15.02499961853 2219.6345558167 31094.12335726
28568	23957 5258 78 2704 6.25 46.5 162 483.14999389648 483.14999389648 78270.29901123 37816294.489552
28567	29215 5221 78 2704 6.25 46.5 162 184.17810058594 734.1589050293 72915.255355835 37124418.834656
28578	34436 5430 110 2993 7.25 49.75 171 0.973 11.044928524989 507.56459474707 2525.6018173303
28577	39866 4936 110 2993 7.25 49.75 171 -4.5 2.5 35.625318527222 242.87633077658
28576	44802 5331 101 2993 7 49.75 172 5.6500000953674 14.91425037384 2308.4252605438 31786.499783263
28575	50133 5616 92 2993 6.75 49.75 173 483.14999389648 734.54830932617 92462.71156311 50450951.799713
28574	55749 5608 92 2993 6.75 49.75 173 160.43438720703 486.85000610352 67080.830047607 28271645.613174
28557	61357 5719 16 3031 2.75 50.25 191 0.973 11.648172402475 564.00327313783 2952.1183912191
28556	67076 5262 16 3031 2.75 50.25 191 -7.7750473022461 4 38.511121749878 480.0267975717
28555	72338 5605 13 3031 2.5 50.25 192 0 15.64999961853 2214.2518191338 31459.954721098
28554	77943 6218 10 3031 2.25 50.25 193 236.02325439453 785.82187652588 99768.868934631 55736344.896657
28553	84161 6233 10 3031 2.25 50.25 193 483.14999389648 483.14999389648 93247.948822021 45052745.904219
28564	90394 5864 38 3134 4.25 51.75 191 0.973 11.648172402475 559.99760999185 2896.8916177969
28563	96258 5647 38 3134 4.25 51.75 191 -4.5 2.5000002384186 37.832105636597 435.87469120956
28562	101905 5934 33 3134 4 51.75 192 0 15.64999961853 2258.3343504705 31144.452614073
28561	107839 6229 28 3134 3.75 51.75 193 486.85000610352 806.11563110352 110204.14068604 65105571.583238
28560	114068 6238 28 3134 3.75 51.75 193 238.64428710938 483.14999389648 85117.001861572 38517615.684515
vector 28665  IntersectionExampleScenario.node[16].veinsmobility  posx  ETV
vector 28666  IntersectionExampleScenario.node[16].veinsmobility  posy  ETV
vector 28667  IntersectionExampleScenario.node[16].veinsmobility  speed  ETV
vector 28672  IntersectionExampleScenario.node[17].veinsmobility  posx  ETV
vector 28673  IntersectionExampleScenario.node[17].veinsmobility  posy  ETV
vector 28668  IntersectionExampleScenario.node[16].veinsmobility  acceleration  ETV
vector 28669  IntersectionExampleScenario.node[16].veinsmobility  co2emission  ETV
vector 28679  IntersectionExampleScenario.node[18].veinsmobility  posx  ETV
vector 28680  IntersectionExampleScenario.node[18].veinsmobility  posy  ETV
vector 28674  IntersectionExampleScenario.node[17].veinsmobility  speed  ETV
vector 28675  IntersectionExampleScenario.node[17].veinsmobility  acceleration  ETV
vector 28676  IntersectionExampleScenario.node[17].veinsmobility  co2emission  ETV
vector 28681  IntersectionExampleScenario.node[18].veinsmobility  speed  ETV
28599	121340 5175 496 3444 16.25 56.75 163 0.973 11.200708441096 493.65053072481 2575.4418850587
28598	126515 4943 496 3444 16.25 56.75 163 -3.3640022277832 2.5 35.795072555542 237.27283441171
28597	131458 5103 481 3444 16 56.75 164 5.6500000953674 15.02499961853 2213.8675098419 30634.386985893
28596	136561 5404 466 3444 15.75 56.75 165 483.14999389648 785.82187652588 94276.212776184 55684257.089141
28595	141965 5399 466 3444 15.75 56.75 165 483.14999389648 734.69688415527 88582.554641724 48567414.201195
vector 28682  IntersectionExampleScenario.node[18].veinsmobility  acceleration  ETV
vector 28683  IntersectionExampleScenario.node[18].veinsmobility  co2emission  ETV
vector 28686  IntersectionExampleScenario.node[19].veinsmobility  posx  ETV
vector 28687  IntersectionExampleScenario.node[19].veinsmobility  posy  ETV
vector 28688  IntersectionExampleScenario.node[19].veinsmobility  speed  ETV
vector 28689  IntersectionExampleScenario.node[19].veinsmobility  acceleration  ETV
vector 28690  IntersectionExampleScenario.node[19].veinsmobility  co2emission  ETV
vector 28693  IntersectionExampleScenario.node[20].veinsmobility  posx  ETV
vector 28694  IntersectionExampleScenario.node[20].veinsmobility  posy  ETV
vector 28700  IntersectionExampleScenario.node[21].veinsmobility  posx  ETV
vector 28701  IntersectionExampleScenario.node[21].veinsmobility  posy  ETV
vector 28695  IntersectionExampleScenario.node[20].veinsmobility  speed  ETV
vector 28696  IntersectionExampleScenario.node[20].veinsmobility  acceleration  ETV
vector 28697  IntersectionExampleScenario.node[20].veinsmobility  co2emission  ETV
vector 28702  IntersectionExampleScenario.node[21].veinsmobility  speed  ETV
vector 28707  IntersectionExampleScenario.node[22].veinsmobility  posx  ETV
vector 28708  IntersectionExampleScenario.node[22].veinsmobility  posy  ETV
vector 28703  IntersectionExampleScenario.node[21].veinsmobility  acceleration  ETV
vector 28704  IntersectionExampleScenario.node[21].veinsmobility  co2emission  ETV
vector 28709  IntersectionExampleScenario.node[22].veinsmobility  speed  ETV
vector 28710  IntersectionExampleScenario.node[22].veinsmobility  acceleration  ETV
vector 28711  IntersectionExampleScenario.node[22].veinsmobility  co2emission  ETV
vector 28714  IntersectionExampleScenario.node[23].veinsmobility  posx  ETV
vector 28715  IntersectionExampleScenario.node[23].veinsmobility  posy  ETV
vector 28721  IntersectionExampleScenario.node[24].veinsmobility  posx  ETV
vector 28722  IntersectionExampleScenario.node[24].veinsmobility  posy  ETV
vector 28716  IntersectionExampleScenario.node[23].veinsmobility  speed  ETV
vector 28723  IntersectionExampleScenario.node[24].veinsmobility  speed  ETV
vector 28717  IntersectionExampleScenario.node[23].veinsmobility  acceleration  ETV
vector 28718  IntersectionExampleScenario.node[23].veinsmobility  co2emission  ETV
vector 28724  IntersectionExampleScenario.node[24].veinsmobility  acceleration  ETV
vector 28725  IntersectionExampleScenario.node[24].veinsmobility  co2emission  ETV
28585	149939 6240 323 4258 13 65 209 0.973 11.450879080643 576.86699869399 2840.2328711022
28584	156179 5691 323 4258 13 65 209 -8.293830871582 4 38.171613693237 480.24086793927
28583	161870 6021 310 4258 12.75 65 210 0 15.375 2212.5152549744 31188.650284312
28582	167891 6906 299 4258 12.5 65 211 483.14999389648 733.1785736084 110369.29263306 58799837.094304
28581	174797 6903 299 4258 12.5 65 211 176.5302734375 486.85000610352 87068.239990234 38039355.650683
vector 28728  IntersectionExampleScenario.node[25].veinsmobility  posx  ETV
vector 28729  IntersectionExampleScenario.node[25].veinsmobility  posy  ETV
vector 28730  IntersectionExampleScenario.node[25].veinsmobility  speed  ETV
28592	181932 6277 336 4314 13.25 65.5 210 0.973 11.450879080643 575.07320488771 2843.4666661692
28591	188209 5542 336 4314 13.25 65.5 210 -6.998438835144 4 37.492597579956 469.58309252326
28590	193751 6082 323 4314 13 65.5 211 0 15.375 2215.8640432358 31072.668143386
28589	199833 6951 310 4314 12.75 65.5 212 486.85000610352 486.85000610352 103212.20129395 50248860.829914
28588	206784 6938 310 4314 12.75 65.5 212 235.61877441406 785.82187652588 109209.505867 60487404.801947
vector 28731  IntersectionExampleScenario.node[25].veinsmobility  acceleration  ETV
vector 28732  IntersectionExampleScenario.node[25].veinsmobility  co2emission  ETV
28606	213891 5748 695 4488 19.5 67 191 0.973 11.200708441096 550.2142655191 2805.9333273955
28605	219639 6031 695 4488 19.5 67 191 -2.7086219787598 2.5000009536743 38.680875778198 317.49899005795
28604	225670 6064 678 4488 19.25 67 192 1.2679173946381 15.579396247864 2188.2212110758 29493.422098815
28603	231734 6336 661 4488 19 67 193 486.85000610352 734.17546081543 102168.97268677 55085625.774349
28602	238070 6339 661 4488 19 67 193 486.7721862793 785.82187652588 108742.71633148 63097212.808461
28613	244409 5261 1158 4677 26.25 68.75 171 0.973 11.90022389248 566.13915243262 3387.8392134513
28612	249670 5063 1158 4677 26.25 68.75 171 -3.0028610229492 2.5 39.699392318726 344.53958326094
28611	254733 5375 1139 4677 26 68.75 172 5.6500000953674 16 2206.496489048 30004.575520558
28610	260108 5701 1120 4677 25.75 68.75 173 237.1083984375 486.85000610352 76010.137176514 34372317.522058
28609	265809 5699 1120 4677 25.75 68.75 173 483.14456176758 785.82187652588 98779.783973694 58172011.684517
vector 28735  IntersectionExampleScenario.node[26].veinsmobility  posx  ETV
vector 28736  IntersectionExampleScenario.node[26].veinsmobility  posy  ETV
vector 28737  IntersectionExampleScenario.node[26].veinsmobility  speed  ETV
vector 28738  IntersectionExampleScenario.node[26].veinsmobility  acceleration  ETV
vector 28739  IntersectionExampleScenario.node[26].veinsmobility  co2emission  ETV
vector 28742  IntersectionExampleScenario.node[27].veinsmobility  posx  ETV
vector 28743  IntersectionExampleScenario.node[27].veinsmobility  posy  ETV
28620	272063 5163 1446 4941 30 71.25 166 0.973 11.648172402475 496.90931674113 2696.0220413291
28619	277226 5078 1446 4941 30 71.25 166 -3.1796722412109 2.5 38.341367721558 223.24929774096
28618	282304 5223 1426 4941 29.75 71.25 167 5.6500000953674 15.64999961853 2233.6196279526 30921.354948298
28617	287527 5542 1405 4941 29.5 71.25 168 238.22796630859 486.85000610352 73474.158996582 33099391.889512
28616	293069 5530 1405 4941 29.5 71.25 168 483.12149047852 793.78281402588 96467.287124634 57292242.31893
vector 28744  IntersectionExampleScenario.node[27].veinsmobility  speed  ETV
vector 28745  IntersectionExampleScenario.node[27].veinsmobility  acceleration  ETV
vector 28746  IntersectionExampleScenario.node[27].veinsmobility  co2emission  ETV
vector 28749  IntersectionExampleScenario.node[28].veinsmobility  posx  ETV
vector 28750  IntersectionExampleScenario.node[28].veinsmobility  posy  ETV
vector 28751  IntersectionExampleScenario.node[28].veinsmobility  speed  ETV
vector 28752  IntersectionExampleScenario.node[28].veinsmobility  acceleration  ETV
vector 28753  IntersectionExampleScenario.node[28].veinsmobility  co2emission  ETV
vector 28756  IntersectionExampleScenario.node[29].veinsmobility  posx  ETV
vector 28757  IntersectionExampleScenario.node[29].veinsmobility  posy  ETV
vector 28758  IntersectionExampleScenario.node[29].veinsmobility  speed  ETV
vector 28759  IntersectionExampleScenario.node[29].veinsmobility  acceleration  ETV
vector 28760  IntersectionExampleScenario.node[29].veinsmobility  co2emission  ETV
vector 28763  IntersectionExampleScenario.node[30].veinsmobility  posx  ETV
vector 28764  IntersectionExampleScenario.node[30].veinsmobility  posy  ETV
vector 28765  IntersectionExampleScenario.node[30].veinsmobility  speed  ETV
28634	299880 6017 1576 6060 31.5 80.5 197 0.973 11.36141391502 557.59776604097 2779.7634889632
28633	305897 5442 1576 6060 31.5 80.5 197 -7.4570107460022 4 37.32285118103 467.27675203522
28632	311339 5821 1553 6060 31.25 80.5 198 0 15.25 2179.3544102907 30207.236966131
28631	317160 6538 1530 6060 31 80.5 199 184.17810058594 483.36395263672 81718.180938721 35472788.10485
28630	323698 6502 1530 6060 31 80.5 199 486.85000610352 733.68673706055 105233.97550964 56669488.418303
28627	330200 6108 1488 6060 30.5 80.5 201 0.973 11.450879080643 564.74042240934 2828.7921650658
28626	336308 5528 1488 6060 30.5 80.5 201 -7.3439340591431 4 37.32285118103 471.71975753043
28625	341836 5959 1467 6060 30.25 80.5 202 0 15.375 2212.9979789257 30954.471572816
28624	347795 6683 1446 6060 30 80.5 203 236.18798828125 785.82187652588 104762.03539276 58286992.897764
28623	354478 6698 1446 6060 30 80.5 203 483.14999389648 483.14999389648 98079.448760986 47387085.070241
vector 28766  IntersectionExampleScenario.node[30].veinsmobility  acceleration  ETV
vector 28767  IntersectionExampleScenario.node[30].veinsmobility  co2emission  ETV
vector 28770  IntersectionExampleScenario.node[31].veinsmobility  posx  ETV
vector 28771  IntersectionExampleScenario.node[31].veinsmobility  posy  ETV
vector 28777  IntersectionExampleScenario.node[32].veinsmobility  posx  ETV
vector 28778  IntersectionExampleScenario.node[32].veinsmobility  posy  ETV
vector 28772  IntersectionExampleScenario.node[31].veinsmobility  speed  ETV
vector 28779  IntersectionExampleScenario.node[32].veinsmobility  speed  ETV
vector 28773  IntersectionExampleScenario.node[31].veinsmobility  acceleration  ETV
vector 28774  IntersectionExampleScenario.node[31].veinsmobility  co2emission  ETV
vector 28780  IntersectionExampleScenario.node[32].veinsmobility  acceleration  ETV
vector 28781  IntersectionExampleScenario.node[32].veinsmobility  co2emission  ETV
vector 28784  IntersectionExampleScenario.node[33].veinsmobility  posx  ETV
vector 28785  IntersectionExampleScenario.node[33].veinsmobility  posy  ETV
vector 28786  IntersectionExampleScenario.node[33].veinsmobility  speed  ETV
vector 28787  IntersectionExampleScenario.node[33].veinsmobility  acceleration  ETV
vector 28788  IntersectionExampleScenario.node[33].veinsmobility  co2emission  ETV
vector 28791  IntersectionExampleScenario.node[34].veinsmobility  posx  ETV
vector 28792  IntersectionExampleScenario.node[34].veinsmobility  posy  ETV
28662	362702 4770 2704 6485 46.5 83.75 150 0.973 12.205824881465 514.59134242467 3213.7982297208
28661	367472 4587 2704 6485 46.5 83.75 150 -3.2178039550781 2.5 40.887662887573 252.81838585192
28660	372059 4742 2681 6485 46.25 83.75 151 5.6500000953674 16.422348022461 2218.0090303421 33355.678964441
28659	376801 4991 2658 6485 46 83.75 152 184.17810058594 733.08335876465 67983.355621338 34426349.731437
28658	381792 5016 2658 6485 46 83.75 152 486.85000610352 486.85000610352 74001.200927734 36027485.123335
vector 28793  IntersectionExampleScenario.node[34].veinsmobility  speed  ETV
vector 28794  IntersectionExampleScenario.node[34].veinsmobility  acceleration  ETV
vector 28795  IntersectionExampleScenario.node[34].veinsmobility  co2emission  ETV
28641	387055 5287 2355 6555 42.25 84.25 169 0.973 11.36141391502 545.69443687659 3114.8453433181
28640	392342 5081 2355 6555 42.25 84.25 169 -4.2152786254883 2.5 36.813589096069 351.71958192982
28639	397423 5284 2338 6555 42 84.25 170 5.6500000953674 15.25 2178.9183292389 29301.754074088
28638	402707 5634 2321 6555 41.75 84.25 171 486.79928588867 785.82187652588 97746.398414612 57641487.800093
28637	408341 5639 2321 6555 41.75 84.25 171 237.67645263672 483.14999389648 74292.223419189 33230848.53597
vector 28798  IntersectionExampleScenario.node[35].veinsmobility  posx  ETV
vector 28799  IntersectionExampleScenario.node[35].veinsmobility  posy  ETV
vector 28800  IntersectionExampleScenario.node[35].veinsmobility  speed  ETV
vector 28801  IntersectionExampleScenario.node[35].veinsmobility  acceleration  ETV
vector 28802  IntersectionExampleScenario.node[35].veinsmobility  co2emission  ETV
vector 28805  IntersectionExampleScenario.node[36].veinsmobility  posx  ETV
vector 28806  IntersectionExampleScenario.node[36].veinsmobility  posy  ETV
vector 28807  IntersectionExampleScenario.node[36].veinsmobility  speed  ETV
vector 28812  IntersectionExampleScenario.node[37].veinsmobility  posx  ETV
vector 28813  IntersectionExampleScenario.node[37].veinsmobility  posy  ETV
vector 28819  IntersectionExampleScenario.node[38].veinsmobility  posx  ETV
vector 28820  IntersectionExampleScenario.node[38].veinsmobility  posy  ETV
vector 28808  IntersectionExampleScenario.node[36].veinsmobility  acceleration  ETV
vector 28809  IntersectionExampleScenario.node[36].veinsmobility  co2emission  ETV
vector 28814  IntersectionExampleScenario.node[37].veinsmobility  speed  ETV
vector 28821  IntersectionExampleScenario.node[38].veinsmobility  speed  ETV
vector 28815  IntersectionExampleScenario.node[37].veinsmobility  acceleration  ETV
vector 28816  IntersectionExampleScenario.node[37].veinsmobility  co2emission  ETV
vector 28822  IntersectionExampleScenario.node[38].veinsmobility  acceleration  ETV
vector 28823  IntersectionExampleScenario.node[38].veinsmobility  co2emission  ETV
28648	415584 6184 2410 8023 43 94.5 207 0.973 12.099024792222 603.63956853558 3250.9851032683
28647	421768 5517 2410 8023 43 94.5 207 -7.2912836074829 4 41.227170944214 551.27233120925
28646	427285 5896 2391 8023 42.75 94.5 208 0 16.27499961853 2191.5620052814 32336.522631588
28645	433181 6893 2372 8023 42.5 94.5 209 483.14999389648 735.22354125977 109155.26998901 58061346.889893
28644	440074 6871 2372 8023 42.5 94.5 209 184.17810058594 486.85000610352 87148.262451172 38292508.660145
vector 28826  IntersectionExampleScenario.node[39].veinsmobility  posx  ETV
vector 28827  IntersectionExampleScenario.node[39].veinsmobility  posy  ETV
vector 28828  IntersectionExampleScenario.node[39].veinsmobility  speed  ETV
28655	447177 6146 2490 8099 44 95 205 0.973 11.90022389248 588.46899561788 3091.5495340688
28654	453323 5569 2490 8099 44 95 205 -6.9388580322266 4 39.869146347046 483.42859174969
28653	458892 5930 2469 8099 43.75 95 206 0 16 2206.8655982018 31827.855697043
28652	464822 6825 2448 8099 43.5 95 207 235.83721923828 486.85000610352 92505.91583252 42392300.224138
28651	471647 6820 2448 8099 43.5 95 207 483.14999389648 785.82187652588 114755.44405365 65576859.868093
vector 28829  IntersectionExampleScenario.node[39].veinsmobility  acceleration  ETV
vector 28830  IntersectionExampleScenario.node[39].veinsmobility  co2emission  ETV
vector 28833  IntersectionExampleScenario.node[40].veinsmobility  posx  ETV
vector 28834  IntersectionExampleScenario.node[40].veinsmobility  posy  ETV
vector 28840  IntersectionExampleScenario.node[41].veinsmobility  posx  ETV
vector 28841  IntersectionExampleScenario.node[41].veinsmobility  posy  ETV
vector 28835  IntersectionExampleScenario.node[40].veinsmobility  speed  ETV
vector 28842  IntersectionExampleScenario.node[41].veinsmobility  speed  ETV
vector 28836  IntersectionExampleScenario.node[40].veinsmobility  acceleration  ETV
vector 28837  IntersectionExampleScenario.node[40].veinsmobility  co2emission  ETV
vector 28843  IntersectionExampleScenario.node[41].veinsmobility  acceleration  ETV
vector 28844  IntersectionExampleScenario.node[41].veinsmobility  co2emission  ETV
28676	479438 5110 3444 8573 56.75 98 166 0.973 12.26218747632 569.22290198359 3535.174583521
28675	484548 5014 3444 8573 56.75 98 166 -3.2169589996338 2.5000019073486 41.227170944214 366.44402304655
28674	489562 5159 3425 8573 56.5 98 167 5.6500000953674 16.5 2178.890581131 30525.247438104
28673	494721 5534 3408 8573 56.25 98 168 486.85000610352 731.58982849121 89530.139404297 48612496.993562
28672	500255 5536 3408 8573 56.25 98 168 486.78643798828 785.82187652588 95936.402412415 56498818.258551
28669	505791 5503 3408 8896 56.25 100.25 177 0.973 11.648172402475 559.6202875173 3053.9321152145
28668	511294 5483 3408 8896 56.25 100.25 177 -4.5 2.5 38.341367721558 352.55895599824
28667	516777 5857 3393 8896 56 100.25 178 5.5397253036499 15.64999961853 2218.0827946663 29658.824170391
28666	522634 5900 3378 8896 55.75 100.25 179 483.14999389648 735.0348815918 95149.177886963 51593797.012582
28665	528534 5877 3378 8896 55.75 100.25 179 184.17810058594 486.85000610352 72307.697143555 31052502.963319
vector 28847  IntersectionExampleScenario.node[42].veinsmobility  posx  ETV
vector 28848  IntersectionExampleScenario.node[42].veinsmobility  posy  ETV
28683	534565 5615 3463 8997 57 101 177 0.973 11.403145821948 570.90239615246 3046.9195912746
28682	540180 5179 3463 8997 57 101 177 -4.5 2.5000019073486 38.341367721558 411.47198672281
28681	545359 5558 3444 8997 56.75 101 178 5.6500000953674 15.308330535889 2277.3301272392 30893.374643958
28680	550917 5902 3425 8997 56.5 101 179 236.42785644531 483.14999389648 78264.789276123 35189589.183961
28679	556819 5889 3425 8997 56.5 101 179 161.1796875 483.14999389648 69782.149932861 29341330.293103
vector 28849  IntersectionExampleScenario.node[42].veinsmobility  speed  ETV
vector 28850  IntersectionExampleScenario.node[42].veinsmobility  acceleration  ETV
vector 28851  IntersectionExampleScenario.node[42].veinsmobility  co2emission  ETV
28690	562955 5354 3676 9162 59.75 102.25 171 0.973 11.648172402475 576.7785371663 3253.4541333963
28689	568309 5698 3676 9162 59.75 102.25 171 -4.5 2.5 40.697130203247 375.23574837121
28688	574007 5633 3655 9162 59.5 102.25 172 5.6500000953674 15.985280990601 2261.5348153114 31248.864902569
28687	579640 5709 3634 9162 59.25 102.25 173 236.4482421875 486.85000610352 75685.569488525 34095103.968465
28686	585349 5707 3634 9162 59.25 102.25 173 483.12054443359 798.59687805176 99063.61681366 58738653.693021
vector 28854  IntersectionExampleScenario.node[43].veinsmobility  posx  ETV
vector 28855  IntersectionExampleScenario.node[43].veinsmobility  posy  ETV
vector 28856  IntersectionExampleScenario.node[43].veinsmobility  speed  ETV
vector 28857  IntersectionExampleScenario.node[43].veinsmobility  acceleration  ETV
vector 28858  IntersectionExampleScenario.node[43].veinsmobility  co2emission  ETV
28697	591457 6094 3746 10019 60.5 110.25 200 0.973 11.648172402475 571.53395261113 2937.0413012502
28696	597551 5603 3746 10019 60.5 110.25 200 -7.7750473022461 4 38.511121749878 476.5267975717
28695	603154 5925 3721 10019 60.25 110.25 201 0 15.64999961853 2201.8212580681 31157.430440079
28694	609079 6696 3698 10019 60 110.25 202 483.14999389648 785.82187652588 112402.30704498 64497150.480445
28693	615775 6699 3698 10019 60 110.25 202 483.14999389648 733.24354553223 105985.25396729 56657688.505916
28704	622474 6238 3771 10061 60.75 110.75 201 0.973 12.26218747632 615.5033801501 3340.6607573639
28703	628712 5678 3771 10061 60.75 110.75 201 -4.5 2.5 42.754949569702 512.03285310318
28702	634390 6053 3746 10061 60.5 110.75 202 0 16.5 2274.9807359129 33405.467379581
28701	640443 6726 3721 10061 60.25 110.75 203 486.85000610352 810.23281097412 115242.80511475 67712227.037273
28700	647169 6735 3721 10061 60.25 110.75 203 238.89703369141 483.14999389648 90535.57333374 41319079.545953
vector 28861  IntersectionExampleScenario.node[44].veinsmobility  posx  ETV
vector 28862  IntersectionExampleScenario.node[44].veinsmobility  posy  ETV
vector 28868  IntersectionExampleScenario.node[45].veinsmobility  posx  ETV
vector 28869  IntersectionExampleScenario.node[45].veinsmobility  posy  ETV
vector 28863  IntersectionExampleScenario.node[44].veinsmobility  speed  ETV
vector 28875  IntersectionExampleScenario.node[46].veinsmobility  posx  ETV
vector 28876  IntersectionExampleScenario.node[46].veinsmobility  posy  ETV
vector 28864  IntersectionExampleScenario.node[44].veinsmobility  acceleration  ETV
vector 28865  IntersectionExampleScenario.node[44].veinsmobility  co2emission  ETV
vector 28870  IntersectionExampleScenario.node[45].veinsmobility  speed  ETV
vector 28871  IntersectionExampleScenario.node[45].veinsmobility  acceleration  ETV
vector 28872  IntersectionExampleScenario.node[45].veinsmobility  co2emission  ETV
vector 28877  IntersectionExampleScenario.node[46].veinsmobility  speed  ETV
28711	654938 6333 3825 10277 61.25 113.25 209 0.973 11.648172402475 578.48031059003 2925.1359156582
28710	661271 5795 3825 10277 61.25 113.25 209 -7.4922728538513 4 38.171613693237 498.26174422891
28709	667066 6124 3798 10277 61 113.25 210 0 15.64999961853 2187.8351162672 30722.962631228
28708	673190 6998 3771 10277 60.75 113.25 211 184.17810058594 483.24322509766 87510.726531982 38243478.076595
28707	680188 7025 3771 10277 60.75 113.25 211 486.85000610352 735.06184387207 111057.09329224 59499194.517263
vector 28878  IntersectionExampleScenario.node[46].veinsmobility  acceleration  ETV
vector 28879  IntersectionExampleScenario.node[46].veinsmobility  co2emission  ETV
28725	687382 6625 3995 10392 62.75 114.5 208 0.973 11.200708441096 564.09272705021 2690.793168943
28724	694007 6444 3995 10392 62.75 114.5 208 -4.5 2.5000009536743 36.134572982788 411.67310376446
28723	700451 6841 3964 10392 62.5 114.5 209 0 15.02499961853 2291.7251868583 31183.827303305
28722	707292 6964 3933 10392 62.25 114.5 210 163.88433837891 732.32653808594 93246.4637146 46129194.299522
28721	714256 7008 3933 10392 62.25 114.5 210 486.85000610352 486.85000610352 102238.50128174 49774814.973028
28718	721264 6663 3995 10484 62.75 115.5 212 0.973 11.404841252656 584.94326954938 2766.887607471
28717	727927 6715 3995 10484 62.75 115.5 212 -4.5 2.5000009536743 36.98334312439 411.90142172429
28716	734642 7060 3964 10484 62.5 115.5 213 0 15.310699462891 2330.5640107393 31414.353472172
28715	741702 7134 3933 10484 62.25 115.5 214 483.01162719727 816.12734985352 121851.17267609 71856336.854787
28714	748836 7142 3933 10484 62.25 115.5 214 483.14999389648 734.36853027344 112080.66148376 59801068.030224
28753	755978 5209 5496 10576 76 116.5 163 0.97223939240464 11.648172402475 514.77305701416 2824.9056014137
28752	761187 4951 5496 10576 76 116.5 163 -2.0780029296875 2.5 38.680875778198 242.85949993195
28751	766138 5282 5465 10576 75.75 116.5 164 5.6500000953674 15.64999961853 2218.8013772964 30999.886123398
28750	771420 5487 5434 10576 75.5 116.5 165 184.17810058594 733.89155578613 73782.393829346 37143274.358455
28749	776907 5538 5434 10576 75.5 116.5 165 486.85000610352 486.85000610352 80330.25100708 39108783.193094
28732	782445 6425 4343 10599 65.75 116.75 205 0.973 11.200708441096 591.17738654371 2834.0057779521
28731	788870 6754 4343 10599 65.75 116.75 205 -4.5 2.5 40.370008468628 350.82884075252
28730	795624 6731 4314 10599 65.5 116.75 206 1.7549244165421 15.855939865112 2322.222391963 31383.148738929
28729	802355 6910 4285 10599 65.25 116.75 207 483.07995605469 813.79836273193 118406.60135651 70045192.493905
28728	809265 6911 4285 10599 65.25 116.75 207 483.14999389648 733.96865844727 108264.62437439 57671295.105108
vector 28882  IntersectionExampleScenario.node[47].veinsmobility  posx  ETV
vector 28883  IntersectionExampleScenario.node[47].veinsmobility  posy  ETV
vector 28884  IntersectionExampleScenario.node[47].veinsmobility  speed  ETV
28746	816408 5989 4999 10831 71.75 119.25 191 0.973 11.36141391502 546.28045442058 2821.6671587126
28745	822397 5899 4999 10831 71.75 119.25 191 -4.5 2.5 37.15309715271 392.15685276961
28744	828296 6126 4970 10831 71.5 119.25 192 2.2641348838806 15.25 2117.9368591309 27196.452363714
28743	834422 6471 4941 10831 71.25 119.25 193 486.84713745117 769.21886444092 108162.43354797 62175231.813532
28742	840893 6481 4941 10831 71.25 119.25 193 236.50830078125 483.14999389648 84886.541473389 38344425.275623
vector 28885  IntersectionExampleScenario.node[47].veinsmobility  acceleration  ETV
vector 28886  IntersectionExampleScenario.node[47].veinsmobility  co2emission  ETV
28739	847543 6320 4806 10878 70 119.75 200 0.973 11.990504229548 606.48197779872 3183.2507115098
28738	853863 6160 4806 10878 70 119.75 200 -4.5 2.5 39.529638290405 462.12373663311
28737	860023 6496 4779 10878 69.75 119.75 201 2.37096118927 16.125 2284.9230201244 29888.214328362
28736	866519 6770 4752 10878 69.5 119.75 202 238.77624511719 804.17107391357 109300.42909241 63962746.772074
28735	873289 6786 4752 10878 69.5 119.75 202 483.14999389648 483.14999389648 97596.29876709 47153651.153639
vector 28889  IntersectionExampleScenario.node[48].veinsmobility  posx  ETV
vector 28890  IntersectionExampleScenario.node[48].veinsmobility  posy  ETV
vector 28891  IntersectionExampleScenario.node[48].veinsmobility  speed  ETV
vector 28892  IntersectionExampleScenario.node[48].veinsmobility  acceleration  ETV
vector 28893  IntersectionExampleScenario.node[48].veinsmobility  co2emission  ETV
28760	880476 5692 5717 11067 77.75 121.75 177 0.973 10.88255984874 504.41985822948 2444.2573470846
28759	886168 5868 5717 11067 77.75 121.75 177 -3.0844917297363 2.5 34.267293930054 234.28825672871
28758	892036 5972 5684 11067 77.5 121.75 178 5.6500000953674 14.577822685242 2288.6423916817 30411.90626876
28757	898008 6022 5651 11067 77.25 121.75 179 164.94219970703 486.85000610352 70434.648773193 29911545.402309
28756	904030 6033 5651 11067 77.25 121.75 179 235.33251953125 486.85000610352 77987.105712891 35035664.258227
28781	910063 5293 6254 11092 82 122 161 0.973 11.54047740176 508.37305901005 2594.5011973311
28780	915356 5074 6254 11092 82 122 161 -4.5 2.5 37.832105636597 246.26532141693
28779	920430 5230 6219 11092 81.75 122 162 5.6500000953674 15.5 2273.6028261185 32530.002931529
28778	925660 5495 6184 11092 81.5 122 163 170.15728759766 733.1091003418 71940.919265747 36245436.000245
28777	931155 5515 6184 11092 81.5 122 163 486.85000610352 486.85000610352 79356.550994873 38634737.336208
28774	936670 5316 6254 11286 82 124 169 0.97223939240464 11.648172402475 524.56495174377 2912.869964689
28773	941986 5356 6254 11286 82 124 169 -3.0558490753174 2.5 38.680875778198 276.36909341131
28772	947342 5451 6219 11286 81.75 124 170 5.6500000953674 15.64999961853 2188.2987399101 29598.335118852
28771	952793 5788 6184 11286 81.5 124 171 486.74096679688 785.82187652588 97795.625785828 57680164.50532
28770	958581 5791 6184 11286 81.5 124 171 235.98400878906 483.14999389648 74400.614501953 33323744.376258
vector 28896  IntersectionExampleScenario.node[49].veinsmobility  posx  ETV
vector 28897  IntersectionExampleScenario.node[49].veinsmobility  posy  ETV
28795	964526 5337 6555 11412 84.25 125.5 166 0.973 11.990504229548 546.7354574626 2998.6655283616
28794	969863 5155 6555 11412 84.25 125.5 166 -4.5 2.5 40.038900375366 386.57871304918
28793	975018 5484 6520 11412 84 125.5 167 3.4136648178101 16.125 2249.8607757092 32309.381864397
28792	980502 5709 6485 11412 83.75 125.5 168 483.14999389648 483.14999389648 81169.198974609 39216897.989165
28791	986211 5674 6485 11412 83.75 125.5 168 174.53436279297 731.81019592285 74451.336532593 37249484.845176
vector 28898  IntersectionExampleScenario.node[49].veinsmobility  speed  ETV
28767	991963 5836 6091 11434 80.75 125.75 181 0.973 11.200708441096 530.41500711181 2639.5808683697
28766	997799 5418 6091 11434 80.75 125.75 181 -6.8669724464417 4 35.625318527222 447.70992636987
28765	1003217 5768 6060 11434 80.5 125.75 182 0 15.02499961853 2191.2542022467 29792.981060611
28764	1008985 6199 6029 11434 80.25 125.75 183 483.14999389648 735.54794311523 97353.641372681 52860271.641808
28763	1015184 6188 6029 11434 80.25 125.75 183 184.17810058594 486.85000610352 74229.328613281 32008724.056657
vector 28899  IntersectionExampleScenario.node[49].veinsmobility  acceleration  ETV
vector 28900  IntersectionExampleScenario.node[49].veinsmobility  co2emission  ETV
vector 28903  IntersectionExampleScenario.node[50].veinsmobility  posx  ETV
vector 28904  IntersectionExampleScenario.node[50].veinsmobility  posy  ETV
vector 28905  IntersectionExampleScenario.node[50].veinsmobility  speed  ETV
vector 28906  IntersectionExampleScenario.node[50].veinsmobility  acceleration  ETV
vector 28907  IntersectionExampleScenario.node[50].veinsmobility  co2emission  ETV
28802	1021942 5623 6784 11674 86 128.5 171 0.97223939240464 11.648172402475 530.05477778466 2845.0058668173
28801	1027565 5395 6784 11674 86 128.5 171 -3.6862487792969 2.5 38.680875778198 269.89402227928
28800	1032960 5635 6751 11674 85.75 128.5 172 5.6500000953674 15.64999961853 2318.4201025963 32519.634229598
28799	1038595 5898 6718 11674 85.5 128.5 173 483.14999389648 483.14999389648 83584.948944092 40384067.572176
28798	1044493 5862 6718 11674 85.5 128.5 173 160.12030029297 734.80226135254 75580.893783569 37731216.31423
28816	1050355 5257 7361 11757 90.25 129.5 158 0.973 11.648172402475 487.21302692525 2617.4571953659
28815	1055612 4936 7361 11757 90.25 129.5 158 -3.8222351074219 2.5 37.662351608276 236.65288839754
28814	1060548 5153 7322 11757 90 129.5 159 5.6500000953674 15.64999961853 2205.635643959 31466.606313743
28813	1065701 5462 7283 11757 89.75 129.5 160 236.69586181641 486.85000610352 69393.47543335 31062764.362559
28812	1071163 5463 7283 11757 89.75 129.5 160 482.95935058594 785.82187652588 91510.142799377 54118948.53923
vector 28910  IntersectionExampleScenario.node[51].veinsmobility  posx  ETV
vector 28911  IntersectionExampleScenario.node[51].veinsmobility  posy  ETV
vector 28912  IntersectionExampleScenario.node[51].veinsmobility  speed  ETV
vector 28913  IntersectionExampleScenario.node[51].veinsmobility  acceleration  ETV
vector 28914  IntersectionExampleScenario.node[51].veinsmobility  co2emission  ETV
vector 28917  IntersectionExampleScenario.node[52].veinsmobility  posx  ETV
vector 28918  IntersectionExampleScenario.node[52].veinsmobility  posy  ETV
vector 28919  IntersectionExampleScenario.node[52].veinsmobility  speed  ETV
vector 28920  IntersectionExampleScenario.node[52].veinsmobility  acceleration  ETV
vector 28921  IntersectionExampleScenario.node[52].veinsmobility  co2emission  ETV
vector 28924  IntersectionExampleScenario.node[53].veinsmobility  posx  ETV
vector 28925  IntersectionExampleScenario.node[53].veinsmobility  posy  ETV
vector 28926  IntersectionExampleScenario.node[53].veinsmobility  speed  ETV
vector 28927  IntersectionExampleScenario.node[53].veinsmobility  acceleration  ETV
vector 28928  IntersectionExampleScenario.node[53].veinsmobility  co2emission  ETV
28837	1077829 5440 8256 12300 96 136.25 162 0.973 11.36141391502 498.04660962162 2605.702682659
28836	1083269 4938 8256 12300 96 136.25 162 -3.4964065551758 2.5 37.15309715271 266.39968955849
28835	1088207 5314 8215 12300 95.75 136.25 163 5.6500000953674 15.25 2185.2570877075 30545.53155198
28834	1093521 5656 8174 12300 95.5 136.25 164 486.85000610352 733.75944519043 88224.134094238 48407865.340171
28833	1099177 5657 8174 12300 95.5 136.25 164 486.85000610352 785.82187652588 93854.859764099 55474393.684978
vector 28931  IntersectionExampleScenario.node[54].veinsmobility  posx  ETV
vector 28932  IntersectionExampleScenario.node[54].veinsmobility  posy  ETV
vector 28933  IntersectionExampleScenario.node[54].veinsmobility  speed  ETV
vector 28934  IntersectionExampleScenario.node[54].veinsmobility  acceleration  ETV
vector 28935  IntersectionExampleScenario.node[54].veinsmobility  co2emission  ETV
28788	1105235 6943 6452 12594 83.5 140 227 0.973 11.810082123732 594.65086007317 3040.7502829345
28787	1112178 6732 6452 12594 83.5 140 227 -9.0344514846802 4 38.850629806519 515.70094438386
28786	1118910 6748 6419 12594 83.25 140 228 0 15.875 2251.1396589279 30847.775793531
28785	1125658 7825 6386 12594 83 140 229 486.63604736328 806.11563110352 128273.77105713 74193833.568317
28784	1133483 7762 6386 12594 83 140 229 238.59930419922 483.14999389648 102637.83743286 47023424.603708
28809	1141245 6559 7283 12662 89.75 141 206 0.973 10.916047529558 546.01529506061 2553.8054996387
28808	1147804 6339 7283 12662 89.75 141 206 -9.0186786651611 4 34.77654838562 467.55024209268
28807	1154143 6347 7248 12662 89.5 141 207 0 14.625 2171.7870087624 29055.590915033
28806	1160490 7125 7213 12662 89.25 141 208 184.17810058594 483.36395263672 85646.289337158 37233739.34186
28805	1167615 7087 7213 12662 89.25 141 208 486.85000610352 732.20350646973 109863.28939819 59077538.140116
28823	1174702 6768 7361 12747 90.25 142.25 209 0.973 11.967360575629 612.5871204196 3040.9826704444
28822	1181470 7074 7361 12747 90.25 142.25 209 -4.5 2.5 41.423582077026 437.30728140452
28821	1188544 7183 7322 12747 90 142.25 210 0 16.092994689941 2199.8904049583 30365.282164552
28820	1195727 7247 7283 12747 89.75 142.25 211 483.04876708984 785.82187652588 117118.35392761 66949195.021307
28819	1202974 7248 7283 12747 89.75 142.25 211 483.14999389648 732.71377563477 110628.35716248 59094983.828984
28830	1210222 6144 8137 12832 95.25 143.5 194 0.973 11.54047740176 542.84631990183 2774.3522930727
28829	1216366 6284 8137 12832 95.25 143.5 194 -2.2910232543945 2.5000009536743 36.98334312439 301.18556731077
28828	1222650 6555 8099 12832 95 143.5 195 2.2410607337952 15.5 2210.9995012283 28761.707007069
28827	1229205 6764 8060 12832 94.75 143.5 196 237.92395019531 785.82187652588 102597.40804291 57909547.821625
28826	1235969 6777 8060 12832 94.75 143.5 196 483.14999389648 483.14999389648 94697.398803711 45753047.654026
28844	1242746 6484 8256 12934 96 145 197 0.973 11.433481027755 585.10876824394 2923.7745321383
28843	1249230 6245 8256 12934 96 145 197 -4.5 2.5000019073486 39.699392318726 442.71658174636
28842	1255475 6663 8215 12934 95.75 145 198 2.8975155353546 15.636803627014 2306.4950735569 31289.509028727
28841	1262138 6866 8174 12934 95.5 145 199 237.18005371094 808.82032012939 106421.8507843 61535813.259304
28840	1269004 6887 8174 12934 95.5 145 199 483.14999389648 483.14999389648 96146.8487854 46453349.403832
28851	1275891 6125 9063 13138 101.5 148 187 0.973 11.450879080643 550.79394766623 2899.2423274367
28850	1282016 6106 9063 13138 101.5 148 187 -4.5 2.5000019073486 37.492597579956 339.98650347334
28849	1288122 6257 9030 13138 101.25 148 188 5.1336822509766 15.375 2235.0768470764 29108.958092478
28848	1294379 6555 8997 13138 101 148 189 483.12875366211 792.78813934326 107850.92808533 63472285.710647
28847	1300934 6569 8997 13138 101 148 189 483.14999389648 733.00639343262 99822.666976929 53756517.324741
28858	1307503 5570 9703 13273 107 150.25 174 0.973 11.810082123732 536.64453087832 3047.7020311563
28857	1313073 5653 9703 13273 107 150.25 174 -3.6770210266113 2.5 38.511121749878 295.7278446292
28856	1318726 5772 9676 13273 106.75 150.25 175 5.6500000953674 15.875 2190.0197601318 29009.701821291
28855	1324498 6141 9649 13273 106.5 150.25 176 486.85000610352 785.82187652588 100603.00615692 59274432.81147
28854	1330639 6135 9649 13273 106.5 150.25 176 235.34576416016 483.14999389648 76777.543212891 34465999.516039
28879	1336774 5105 10300 13351 113.5 151.75 154 0.973 11.450879080643 523.42873522515 2938.8479649208
28878	1341879 5078 10300 13351 113.5 151.75 154 -3.2214241027832 2.5 42.585195541382 252.66800379471
28877	1346957 5145 10277 13351 113.25 151.75 155 5.6500000953674 16.353044509888 2204.3181991577 32441.63520034
28876	1352102 5450 10253 13351 113 151.75 156 483.11904907227 785.82187652588 89445.673240662 53031016.90878
28875	1357552 5445 10253 13351 113 151.75 156 483.14999389648 731.96928405762 83213.324966431 45288309.112054
vector 28938  IntersectionExampleScenario.node[55].veinsmobility  posx  ETV
vector 28939  IntersectionExampleScenario.node[55].veinsmobility  posy  ETV
vector 28940  IntersectionExampleScenario.node[55].veinsmobility  speed  ETV
vector 28941  IntersectionExampleScenario.node[55].veinsmobility  acceleration  ETV
vector 28942  IntersectionExampleScenario.node[55].veinsmobility  co2emission  ETV
28865	1363398 5709 10253 13523 113 155.25 170 0.973 11.648172402475 542.41402300045 2923.7146103984
28864	1369107 5519 10253 13523 113 155.25 170 -9.2307453155518 4 38.341367721558 513.22621236289
28863	1374626 5640 10230 13523 112.75 155.25 171 0 15.64999961853 2198.8664717674 31139.619589136
28862	1380266 6018 10208 13523 112.5 155.25 172 237.29504394531 486.85000610352 75363.252319336 34005836.201248
28861	1386284 6016 10208 13523 112.5 155.25 172 483.14999389648 785.82187652588 97454.274497986 57051631.863167
28872	1392300 5761 10277 13534 113.25 155.5 170 0.973 11.810082123732 548.87203448141 3030.839511864
28871	1398061 5279 10277 13534 113.25 155.5 170 -4.5 2.5 40.208654403687 370.32765445221
28870	1403340 5673 10253 13534 113 155.5 171 5.139666557312 15.992429733276 2277.8922324181 32431.594258347
28869	1409013 6011 10230 13534 112.75 155.5 172 486.85000610352 731.43006896973 91585.70199585 49683526.189061
28868	1415024 6003 10230 13534 112.75 155.5 172 486.85000610352 810.23281097412 99898.343307495 60176633.091912
vector 28945  IntersectionExampleScenario.node[56].veinsmobility  posx  ETV
vector 28946  IntersectionExampleScenario.node[56].veinsmobility  posy  ETV
vector 28947  IntersectionExampleScenario.node[56].veinsmobility  speed  ETV
vector 28948  IntersectionExampleScenario.node[56].veinsmobility  acceleration  ETV
vector 28949  IntersectionExampleScenario.node[56].veinsmobility  co2emission  ETV
vector 28952  IntersectionExampleScenario.node[57].veinsmobility  posx  ETV
vector 28953  IntersectionExampleScenario.node[57].veinsmobility  posy  ETV
vector 28954  IntersectionExampleScenario.node[57].veinsmobility  speed  ETV
vector 28955  IntersectionExampleScenario.node[57].veinsmobility  acceleration  ETV
vector 28956  IntersectionExampleScenario.node[57].veinsmobility  co2emission  ETV
28900	1421829 5377 11455 14014 126 165.25 158 0.973 11.648172402475 490.69725274851 2635.8455197444
28899	1427206 5266 11455 14014 126 165.25 158 -3.6275100708008 2.5 38.001859664917 240.27748383652
28898	1432472 5275 11434 14014 125.75 165.25 159 5.6500000953674 15.64999961853 2214.4401187897 31738.658482484
28897	1437747 5590 11412 14014 125.5 165.25 160 483.14999389648 734.84660339355 85869.141937256 47062407.053838
28896	1443337 5573 11412 14014 125.5 165.25 160 184.17810058594 486.85000610352 63737.963867188 27172869.676666
vector 28959  IntersectionExampleScenario.node[58].veinsmobility  posx  ETV
vector 28960  IntersectionExampleScenario.node[58].veinsmobility  posy  ETV
28907	1449064 5341 11522 14027 126.75 165.5 156 0.97223939240464 11.648172402475 492.14756265096 2642.1924718167
28906	1454405 4804 11522 14027 126.75 165.5 156 -4.056884765625 2.5 38.680875778198 242.46451577521
28905	1459209 5212 11499 14027 126.5 165.5 157 5.6500000953674 15.64999961853 2203.143330574 31848.467378614
28904	1464421 5519 11476 14027 126.25 165.5 158 237.24237060547 486.85000610352 68585.992004395 30718851.140265
28903	1469940 5525 11476 14027 126.25 165.5 158 482.97265625 785.82187652588 90413.027503967 53503927.483482
vector 28961  IntersectionExampleScenario.node[58].veinsmobility  speed  ETV
vector 28962  IntersectionExampleScenario.node[58].veinsmobility  acceleration  ETV
vector 28963  IntersectionExampleScenario.node[58].veinsmobility  co2emission  ETV
vector 28966  IntersectionExampleScenario.node[59].veinsmobility  posx  ETV
vector 28967  IntersectionExampleScenario.node[59].veinsmobility  posy  ETV
vector 28968  IntersectionExampleScenario.node[59].veinsmobility  speed  ETV
vector 28969  IntersectionExampleScenario.node[59].veinsmobility  acceleration  ETV
vector 28970  IntersectionExampleScenario.node[59].veinsmobility  co2emission  ETV
vector 28973  IntersectionExampleScenario.node[60].veinsmobility  posx  ETV
vector 28974  IntersectionExampleScenario.node[60].veinsmobility  posy  ETV
vector 28975  IntersectionExampleScenario.node[60].veinsmobility  speed  ETV
vector 28976  IntersectionExampleScenario.node[60].veinsmobility  acceleration  ETV
vector 28977  IntersectionExampleScenario.node[60].veinsmobility  co2emission  ETV
vector 28980  IntersectionExampleScenario.node[61].veinsmobility  posx  ETV
vector 28981  IntersectionExampleScenario.node[61].veinsmobility  posy  ETV
28886	1476668 6610 10855 14356 119.5 170.5 205 0.973 11.450879080643 568.63242240934 2832.5790810658
28885	1483278 6013 10855 14356 119.5 170.5 205 -7.4570107460022 4 37.32285118103 472.71634536335
28884	1489291 6445 10831 14356 119.25 170.5 206 0 15.375 2213.2772523165 30957.844020246
28883	1495736 7211 10806 14356 119 170.5 207 184.17810058594 733.81198120117 94033.28767395 46939989.963634
28882	1502947 7244 10806 14356 119 170.5 207 486.85000610352 486.85000610352 100777.95126343 49063746.187699
28893	1510191 6365 11067 14356 121.75 170.5 196 0.973 11.450879080643 555.72108734256 2789.3560466243
28892	1516556 5913 11067 14356 121.75 170.5 196 -6.7711477279663 4 36.98334312439 452.58212473492
28891	1522469 6240 11042 14356 121.5 170.5 197 0 15.375 2197.6686828136 30446.01081592
28890	1528709 6923 11017 14356 121.25 170.5 198 483.14999389648 785.82187652588 110606.11356354 63737059.861298
28889	1535632 6923 11017 14356 121.25 170.5 198 483.14999389648 732.12057495117 104175.58779907 55858212.36033
vector 28982  IntersectionExampleScenario.node[61].veinsmobility  speed  ETV
vector 28983  IntersectionExampleScenario.node[61].veinsmobility  acceleration  ETV
vector 28984  IntersectionExampleScenario.node[61].veinsmobility  co2emission  ETV
vector 28987  IntersectionExampleScenario.node[62].veinsmobility  posx  ETV
vector 28988  IntersectionExampleScenario.node[62].veinsmobility  posy  ETV
vector 28989  IntersectionExampleScenario.node[62].veinsmobility  speed  ETV
vector 28990  IntersectionExampleScenario.node[62].veinsmobility  acceleration  ETV
vector 28991  IntersectionExampleScenario.node[62].veinsmobility  co2emission  ETV
vector 28994  IntersectionExampleScenario.node[63].veinsmobility  posx  ETV
vector 28995  IntersectionExampleScenario.node[63].veinsmobility  posy  ETV
vector 28996  IntersectionExampleScenario.node[63].veinsmobility  speed  ETV
vector 28997  IntersectionExampleScenario.node[63].veinsmobility  acceleration  ETV
vector 28998  IntersectionExampleScenario.node[63].veinsmobility  co2emission  ETV
vector 29001  IntersectionExampleScenario.node[64].veinsmobility  posx  ETV
vector 29002  IntersectionExampleScenario.node[64].veinsmobility  posy  ETV
vector 29003  IntersectionExampleScenario.node[64].veinsmobility  speed  ETV
vector 29004  IntersectionExampleScenario.node[64].veinsmobility  acceleration  ETV
vector 29005  IntersectionExampleScenario.node[64].veinsmobility  co2emission  ETV
28935	1544005 5279 12457 14818 138.25 177 156 0.973 12.099024792222 520.73433152707 3016.9673332784
28934	1549284 5006 12457 14818 138.25 177 156 -3.3934841156006 2.5 40.548154830933 296.67953305748
28933	1554290 5160 12436 14818 138 177 157 5.6500000953674 16.27499961853 2185.331589222 31975.740093902
28932	1559450 5518 12415 14818 137.75 177 158 486.85000610352 785.82187652588 90440.285850525 53484148.999909
28931	1564968 5525 12415 14818 137.75 177 158 236.55364990234 483.14999389648 68392.77331543 30504850.327722
vector 29008  IntersectionExampleScenario.node[65].veinsmobility  posx  ETV
vector 29009  IntersectionExampleScenario.node[65].veinsmobility  posy  ETV
vector 29010  IntersectionExampleScenario.node[65].veinsmobility  speed  ETV
vector 29011  IntersectionExampleScenario.node[65].veinsmobility  acceleration  ETV
vector 29012  IntersectionExampleScenario.node[65].veinsmobility  co2emission  ETV
vector 29015  IntersectionExampleScenario.node[66].veinsmobility  posx  ETV
vector 29016  IntersectionExampleScenario.node[66].veinsmobility  posy  ETV
vector 29017  IntersectionExampleScenario.node[66].veinsmobility  speed  ETV
vector 29018  IntersectionExampleScenario.node[66].veinsmobility  acceleration  ETV
vector 29019  IntersectionExampleScenario.node[66].veinsmobility  co2emission  ETV
28914	1571295 7025 11856 15487 130.75 185.5 220 0.973 11.36141391502 586.74617263951 2849.9782546066
28913	1578320 6581 11856 15487 130.75 185.5 220 -15.802932739258 4 37.492597579956 685.96541078773
28912	1584901 6669 11835 15487 130.5 185.5 221 0 15.267899513245 2207.4566831589 30973.765795768
28911	1591570 7707 11814 15487 130.25 185.5 222 486.85000610352 734.21499633789 116445.01277161 62139151.49783
28910	1599277 7764 11814 15487 130.25 185.5 222 486.63604736328 792.02188110352 123226.83396149 70499014.173219
28921	1607041 6906 12057 15612 133.25 187 216 0.973 11.648172402475 595.44898204669 2972.9263522235
28920	1613947 6477 12057 15612 133.25 187 216 -8.1522026062012 4 39.529638290405 492.90853827547
28919	1620424 6925 12036 15612 133 187 217 0 15.64999961853 2195.1810743809 31377.859950378
28918	1627349 7613 12015 15612 132.75 187 218 483.14999389648 731.87403869629 113513.7024231 60153297.953632
28917	1634962 7607 12015 15612 132.75 187 218 184.17810058594 487.14312744141 91190.953643799 40140647.776474
28928	1642569 7046 12216 15688 135.25 188 212 0.93438186594183 12.26218747632 610.87009892402 3248.6552863297
28927	1649615 6898 12216 15688 135.25 188 212 -4.5 2.5000009536743 41.057416915894 466.78508049822
28926	1656513 7141 12195 15688 135 188 213 0 16.5 2263.248629082 32539.412726233
28925	1663654 7483 12174 15688 134.75 188 214 235.52301025391 483.14999389648 95462.882141113 43595498.506983
28924	1671137 7447 12174 15688 134.75 188 214 166.078125 483.14999389648 87311.090759277 37820134.958021
vector 29022  IntersectionExampleScenario.node[67].veinsmobility  posx  ETV
vector 29023  IntersectionExampleScenario.node[67].veinsmobility  posy  ETV
vector 29024  IntersectionExampleScenario.node[67].veinsmobility  speed  ETV
vector 29025  IntersectionExampleScenario.node[67].veinsmobility  acceleration  ETV
vector 29026  IntersectionExampleScenario.node[67].veinsmobility  co2emission  ETV
vector 29029  IntersectionExampleScenario.node[68].veinsmobility  posx  ETV
vector 29030  IntersectionExampleScenario.node[68].veinsmobility  posy  ETV
vector 29031  IntersectionExampleScenario.node[68].veinsmobility  speed  ETV
vector 29032  IntersectionExampleScenario.node[68].veinsmobility  acceleration  ETV
vector 29033  IntersectionExampleScenario.node[68].veinsmobility  co2emission  ETV
vector 29036  IntersectionExampleScenario.node[69].veinsmobility  posx  ETV
vector 29037  IntersectionExampleScenario.node[69].veinsmobility  posy  ETV
vector 29043  IntersectionExampleScenario.node[70].veinsmobility  posx  ETV
vector 29044  IntersectionExampleScenario.node[70].veinsmobility  posy  ETV
28942	1679694 5286 13523 16144 155.25 193.5 154 0.973 11.648172402475 470.76336111104 2462.8829942015
28941	1684980 4862 13523 16144 155.25 193.5 154 -3.1964340209961 2.5 38.341367721558 191.50698189953
28940	1689842 5194 13512 16144 155 193.5 155 5.6500000953674 15.64999961853 2217.1332035065 32350.133301773
28939	1695036 5460 13501 16144 154.75 193.5 156 486.85000610352 486.85000610352 75948.600952148 36975576.837107
28938	1700496 5441 13501 16144 154.75 193.5 156 236.734375 785.82187652588 81337.366569519 46547903.090508
vector 29038  IntersectionExampleScenario.node[69].veinsmobility  speed  ETV
vector 29045  IntersectionExampleScenario.node[70].veinsmobility  speed  ETV
vector 29039  IntersectionExampleScenario.node[69].veinsmobility  acceleration  ETV
vector 29040  IntersectionExampleScenario.node[69].veinsmobility  co2emission  ETV
vector 29046  IntersectionExampleScenario.node[70].veinsmobility  acceleration  ETV
vector 29047  IntersectionExampleScenario.node[70].veinsmobility  co2emission  ETV
vector 29050  IntersectionExampleScenario.node[71].veinsmobility  posx  ETV
vector 29051  IntersectionExampleScenario.node[71].veinsmobility  posy  ETV
vector 29052  IntersectionExampleScenario.node[71].veinsmobility  speed  ETV
vector 29053  IntersectionExampleScenario.node[71].veinsmobility  acceleration  ETV
vector 29054  IntersectionExampleScenario.node[71].veinsmobility  co2emission  ETV
vector 29057  IntersectionExampleScenario.node[72].veinsmobility  posx  ETV
vector 29058  IntersectionExampleScenario.node[72].veinsmobility  posy  ETV
vector 29059  IntersectionExampleScenario.node[72].veinsmobility  speed  ETV
vector 29060  IntersectionExampleScenario.node[72].veinsmobility  acceleration  ETV
vector 29061  IntersectionExampleScenario.node[72].veinsmobility  co2emission  ETV
28949	1707233 5792 13604 16666 157 198.75 168 0.973 10.756497587458 455.6683578638 1988.8621343913
28948	1713025 5012 13604 16666 157 198.75 168 -2.7895774841309 2.5 34.097539901733 150.00023333563
28947	1718037 5705 13591 16666 156.75 198.75 169 5.6500000953674 14.39999961853 2287.2607078552 31386.738501105
28946	1723742 5951 13578 16666 156.5 198.75 170 486.85000610352 486.85000610352 82764.501037598 40293897.835309
28945	1729693 5915 13578 16666 156.5 198.75 170 238.00659179688 805.05782318115 90104.763252258 52553026.376398
vector 29064  IntersectionExampleScenario.node[73].veinsmobility  posx  ETV
vector 29065  IntersectionExampleScenario.node[73].veinsmobility  posy  ETV
vector 29066  IntersectionExampleScenario.node[73].veinsmobility  speed  ETV
vector 29067  IntersectionExampleScenario.node[73].veinsmobility  acceleration  ETV
vector 29068  IntersectionExampleScenario.node[73].veinsmobility  co2emission  ETV
28956	1736009 5428 13936 17083 163.75 203.5 160 0.973 11.648172402475 504.0215653745 2656.14415002
28955	1741437 4881 13936 17083 163.75 203.5 160 -3.4226684570312 2.5 38.171613693237 272.48490628015
28954	1746318 5323 13923 17083 163.5 203.5 161 5.6500000953674 15.64999961853 2182.7280302048 30925.009515256
28953	1751641 5660 13910 17083 163.25 203.5 162 486.85000610352 785.82187652588 92708.203269958 54800850.685457
28952	1757301 5659 13910 17083 163.25 203.5 162 237.11456298828 483.14999389648 70064.082092285 31226652.095221
vector 29071  IntersectionExampleScenario.node[74].veinsmobility  posx  ETV
vector 29072  IntersectionExampleScenario.node[74].veinsmobility  posy  ETV
vector 29073  IntersectionExampleScenario.node[74].veinsmobility  speed  ETV
vector 29074  IntersectionExampleScenario.node[74].veinsmobility  acceleration  ETV
vector 29075  IntersectionExampleScenario.node[74].veinsmobility  co2emission  ETV
vector 29078  IntersectionExampleScenario.node[75].veinsmobility  posx  ETV
vector 29079  IntersectionExampleScenario.node[75].veinsmobility  posy  ETV
vector 29080  IntersectionExampleScenario.node[75].veinsmobility  speed  ETV
vector 29081  IntersectionExampleScenario.node[75].veinsmobility  acceleration  ETV
vector 29082  IntersectionExampleScenario.node[75].veinsmobility  co2emission  ETV
vector 29085  IntersectionExampleScenario.node[76].veinsmobility  posx  ETV
vector 29086  IntersectionExampleScenario.node[76].veinsmobility  posy  ETV
vector 29087  IntersectionExampleScenario.node[76].veinsmobility  speed  ETV
vector 29088  IntersectionExampleScenario.node[76].veinsmobility  acceleration  ETV
vector 29089  IntersectionExampleScenario.node[76].veinsmobility  co2emission  ETV
28970	1764163 5362 14121 17365 167 206.25 158 0.973 11.810082123732 515.14967409257 2882.1995896436
28969	1769525 4947 14121 17365 167 206.25 158 -3.3704471588135 2.5 39.699392318726 285.64281353276
28968	1774472 5243 14104 17365 166.75 206.25 159 5.6500000953674 15.875 2191.9235644341 31701.662733053
28967	1779715 5573 14087 17365 166.5 206.25 160 184.17810058594 483.20288085938 63647.97744751 27051467.296588
28966	1785288 5578 14087 17365 166.5 206.25 160 486.85000610352 735.03129577637 86040.399887085 47195545.044659
vector 29092  IntersectionExampleScenario.node[77].veinsmobility  posx  ETV
vector 29093  IntersectionExampleScenario.node[77].veinsmobility  posy  ETV
vector 29094  IntersectionExampleScenario.node[77].veinsmobility  speed  ETV
vector 29095  IntersectionExampleScenario.node[77].veinsmobility  acceleration  ETV
vector 29096  IntersectionExampleScenario.node[77].veinsmobility  co2emission  ETV
28984	1791267 5156 14394 17639 171 208.75 152 0.973 11.990504229548 486.71388886044 2669.9821218171
28983	1796423 5007 14394 17639 171 208.75 152 -3.7365646362305 2.5 40.038900375366 212.49106004305
28982	1801430 5116 14375 17639 170.75 208.75 153 5.6500000953674 16.125 2235.4392328262 33389.430325709
28981	1806546 5353 14356 17639 170.5 208.75 154 177.97814941406 731.47888183594 68367.447265625 34510191.357269
28980	1811899 5391 14356 17639 170.5 208.75 154 486.85000610352 486.85000610352 74974.900939941 36501530.980221
vector 29099  IntersectionExampleScenario.node[78].veinsmobility  posx  ETV
vector 29100  IntersectionExampleScenario.node[78].veinsmobility  posy  ETV
vector 29101  IntersectionExampleScenario.node[78].veinsmobility  speed  ETV
vector 29102  IntersectionExampleScenario.node[78].veinsmobility  acceleration  ETV
vector 29103  IntersectionExampleScenario.node[78].veinsmobility  co2emission  ETV
28991	1817691 5420 14571 18171 173.75 213.25 159 0.973 11.450879080643 482.98063404393 2511.1167076133
28990	1823111 5258 14571 18171 173.75 213.25 159 -3.5384330749512 2.5 37.15309715271 229.0035887443
28989	1828369 5317 14554 18171 173.5 213.25 160 5.6500000953674 15.375 2203.6908473969 31191.966629292
28988	1833686 5626 14537 18171 173.25 213.25 161 483.14999389648 785.82187652588 92093.307151794 54469983.437176
28987	1839312 5621 14537 18171 173.25 213.25 161 483.14999389648 732.24243164062 86288.691268921 47209651.534684
28963	1844933 6365 14057 18372 166 215 197 0.973 11.648172402475 565.52485801418 2922.6487470886
28962	1851298 5908 14057 18372 166 215 197 -7.4922709465027 4 38.171613693237 481.23647987725
28961	1857206 6204 14042 18372 165.75 215 198 0 15.64999961853 2182.438724637 30768.03517872
28960	1863410 6954 14027 18372 165.5 215 199 483.14999389648 733.1785736084 104571.4927063 55998630.095078
28959	1870364 6935 14027 18372 165.5 215 199 184.17810058594 486.85000610352 82076.020233154 35792689.765957
vector 29106  IntersectionExampleScenario.node[79].veinsmobility  posx  ETV
vector 29107  IntersectionExampleScenario.node[79].veinsmobility  posy  ETV
vector 29108  IntersectionExampleScenario.node[79].veinsmobility  speed  ETV
vector 29109  IntersectionExampleScenario.node[79].veinsmobility  acceleration  ETV
vector 29110  IntersectionExampleScenario.node[79].veinsmobility  co2emission  ETV
28977	1877700 6240 14288 18484 169.5 216 187 0.973 11.648172402475 570.55597385961 2982.0024424928
28976	1883940 5780 14288 18484 169.5 216 187 -4.5 2.5000000596046 39.869146347046 450.8643940797
28975	1889720 6440 14271 18484 169.25 216 188 0 15.64999961853 2257.1891286653 32312.608320222
28974	1896160 6613 14254 18484 169 216 189 483.14999389648 483.14999389648 91315.348846436 44119010.237811
28973	1902773 6571 14254 18484 169 216 189 174.53436279297 733.99772644043 84458.152786255 42051841.72743
vector 29113  IntersectionExampleScenario.node[80].veinsmobility  posx  ETV
vector 29114  IntersectionExampleScenario.node[80].veinsmobility  posy  ETV
vector 29115  IntersectionExampleScenario.node[80].veinsmobility  speed  ETV
vector 29116  IntersectionExampleScenario.node[80].veinsmobility  acceleration  ETV
vector 29117  IntersectionExampleScenario.node[80].veinsmobility  co2emission  ETV
29012	1909745 5222 15207 18966 182 220.5 155 0.973 11.982836784984 523.09452155894 3114.5561010116
29011	1914967 4983 15207 18966 182 220.5 155 -3.9409675598145 2.5 39.529638290405 281.17323850774
29010	1919950 5172 15187 18966 181.75 220.5 156 5.6500000953674 16.114391326904 2199.4657611847 31994.851991596
29009	1925122 5477 15166 18966 181.5 220.5 157 483.14999389648 731.68389892578 84014.093978882 45884176.946018
29008	1930599 5467 15166 18966 181.5 220.5 157 184.17810058594 487.02526855469 62387.68447876 26545423.432361
vector 29120  IntersectionExampleScenario.node[81].veinsmobility  posx  ETV
vector 29121  IntersectionExampleScenario.node[81].veinsmobility  posy  ETV
vector 29122  IntersectionExampleScenario.node[81].veinsmobility  speed  ETV
vector 29123  IntersectionExampleScenario.node[81].veinsmobility  acceleration  ETV
vector 29124  IntersectionExampleScenario.node[81].veinsmobility  co2emission  ETV
vector 29127  IntersectionExampleScenario.node[82].veinsmobility  posx  ETV
vector 29128  IntersectionExampleScenario.node[82].veinsmobility  posy  ETV
vector 29129  IntersectionExampleScenario.node[82].veinsmobility  speed  ETV
vector 29130  IntersectionExampleScenario.node[82].veinsmobility  acceleration  ETV
vector 29131  IntersectionExampleScenario.node[82].veinsmobility  co2emission  ETV
vector 29134  IntersectionExampleScenario.node[83].veinsmobility  posx  ETV
vector 29135  IntersectionExampleScenario.node[83].veinsmobility  posy  ETV
vector 29136  IntersectionExampleScenario.node[83].veinsmobility  speed  ETV
29005	1937100 6915 14797 20011 176.75 230.5 216 0.973 11.450879080643 582.8461639899 2853.9334386634
29004	1944015 6121 14797 20011 176.75 230.5 216 -8.5797557830811 4 37.32285118103 547.56428205446
29003	1950136 6649 14776 20011 176.5 230.5 217 0 15.375 2213.052482605 31144.754451189
29002	1956785 7597 14755 20011 176.25 230.5 218 184.17810058594 733.81198120117 99248.063796997 49411528.763671
29001	1964382 7631 14755 20011 176.25 230.5 218 486.85000610352 486.85000610352 106133.30133057 51670998.400572
vector 29137  IntersectionExampleScenario.node[83].veinsmobility  acceleration  ETV
vector 29138  IntersectionExampleScenario.node[83].veinsmobility  co2emission  ETV
28998	1972182 7129 14660 20034 175 230.75 224 0.973 11.36141391502 602.41897794791 3017.6712905401
28997	1979311 6587 14660 20034 175 230.75 224 -7.3659982681274 4 36.134572982788 532.80688927267
28996	1985898 6877 14641 20034 174.75 230.75 225 0 15.25 2264.7684071064 31075.778484516
28995	1992775 7903 14622 20034 174.5 230.75 226 486.63604736328 807.09531402588 126759.18457031 73488697.121907
28994	2000678 7846 14622 20034 174.5 230.75 226 236.32275390625 483.14999389648 100687.77935791 45935699.139041
29026	2008524 5915 15787 20284 189.25 233.75 179 0.973 11.990504229548 546.05498184181 2842.6789360515
29025	2014439 5847 15787 20284 189.25 233.75 179 -4.5 2.5 40.038900375366 308.76660958433
29024	2020286 6058 15766 20284 189 233.75 180 4.5773487091064 16.125 2222.309340477 30394.401493634
29023	2026344 6325 15745 20284 188.75 233.75 181 235.54901123047 785.82187652588 95086.963859558 54084043.262978
29022	2032669 6336 15745 20284 188.75 233.75 181 483.14999389648 483.14999389648 87450.148895264 42251538.904993
29019	2039005 6465 15382 20303 184.25 234 200 0.973 10.916047529558 524.45749948248 2447.4350333522
29018	2045470 6601 15382 20303 184.25 234 200 -2.1141128540039 2.5 34.437047958374 263.47033549055
29017	2052071 6777 15361 20303 184 234 201 2.0798811912537 14.625 2189.6799967289 27511.100170321
29016	2058848 7053 15340 20303 183.75 234 202 486.85000610352 785.82187652588 113919.17739868 66128106.04066
29015	2065901 7061 15340 20303 183.75 234 202 235.27319335938 483.14999389648 88776.469512939 40087220.774237
vector 29141  IntersectionExampleScenario.node[84].veinsmobility  posx  ETV
vector 29142  IntersectionExampleScenario.node[84].veinsmobility  posy  ETV
vector 29143  IntersectionExampleScenario.node[84].veinsmobility  speed  ETV
vector 29148  IntersectionExampleScenario.node[85].veinsmobility  posx  ETV
vector 29149  IntersectionExampleScenario.node[85].veinsmobility  posy  ETV
vector 29144  IntersectionExampleScenario.node[84].veinsmobility  acceleration  ETV
vector 29145  IntersectionExampleScenario.node[84].veinsmobility  co2emission  ETV
vector 29150  IntersectionExampleScenario.node[85].veinsmobility  speed  ETV
vector 29151  IntersectionExampleScenario.node[85].veinsmobility  acceleration  ETV
vector 29152  IntersectionExampleScenario.node[85].veinsmobility  co2emission  ETV
vector 29155  IntersectionExampleScenario.node[86].veinsmobility  posx  ETV
vector 29156  IntersectionExampleScenario.node[86].veinsmobility  posy  ETV
vector 29157  IntersectionExampleScenario.node[86].veinsmobility  speed  ETV
vector 29158  IntersectionExampleScenario.node[86].veinsmobility  acceleration  ETV
vector 29159  IntersectionExampleScenario.node[86].veinsmobility  co2emission  ETV
29033	2074165 6274 15872 20588 190.25 237.25 189 0.973 11.200708441096 586.03672261129 3006.9539462361
29032	2080439 6045 15872 20588 190.25 237.25 189 -4.5 2.5 37.832105636597 418.41838978954
29031	2086484 6337 15851 20588 190 237.25 190 3.4650228023529 15.164114952087 2268.8027935028 29772.291202728
29030	2092821 6664 15829 20588 189.75 237.25 191 486.85000610352 807.99687957764 110356.26167297 65887863.301128
29029	2099485 6681 15829 20588 189.75 237.25 191 237.98278808594 483.14999389648 84090.794647217 38004164.885201
vector 29162  IntersectionExampleScenario.node[87].veinsmobility  posx  ETV
vector 29163  IntersectionExampleScenario.node[87].veinsmobility  posy  ETV
vector 29164  IntersectionExampleScenario.node[87].veinsmobility  speed  ETV
vector 29165  IntersectionExampleScenario.node[87].veinsmobility  acceleration  ETV
vector 29166  IntersectionExampleScenario.node[87].veinsmobility  co2emission  ETV
29075	2106567 5543 17156 21133 204.25 244.5 162 0.973 11.200708441096 474.80183378192 2379.8095437285
29074	2112110 5346 17156 21133 204.25 244.5 162 -3.8957138061523 2.5 35.625318527222 223.0810682663
29073	2117456 5428 17131 21133 204 244.5 163 5.6500000953674 15.02499961853 2205.9455633163 30589.816036483
29072	2122884 5719 17106 21133 203.75 244.5 164 184.17810058594 487.05645751953 65323.660766602 27833626.382842
29071	2128603 5731 17106 21133 203.75 244.5 164 236.57452392578 486.85000610352 71048.257904053 31776388.804495
vector 29169  IntersectionExampleScenario.node[88].veinsmobility  posx  ETV
vector 29170  IntersectionExampleScenario.node[88].veinsmobility  posy  ETV
29047	2134488 6545 16190 21167 194 245 205 0.973 11.810082123732 577.92290450783 3035.5086515813
29046	2141033 6146 16190 21167 194 245 205 -6.8118047714233 4 38.850629806519 475.00786158077
29045	2147179 6327 16167 21167 193.75 245 206 0 15.875 2171.3404200077 30734.835105054
29044	2153506 7170 16144 21167 193.5 245 207 238.59930419922 483.14999389648 92008.537567139 41887878.43846
29043	2160676 7221 16144 21167 193.5 245 207 184.17810058594 483.36395263672 85676.928283691 37391285.738062
vector 29171  IntersectionExampleScenario.node[88].veinsmobility  speed  ETV
vector 29172  IntersectionExampleScenario.node[88].veinsmobility  acceleration  ETV
vector 29173  IntersectionExampleScenario.node[88].veinsmobility  co2emission  ETV
29061	2168144 6288 16411 21205 196.25 245.5 198 0.973 12.099024792222 587.79145999045 3155.2493860135
29060	2174432 6250 16411 21205 196.25 245.5 198 -6.9676837921143 4 41.125211715698 495.95124214027
29059	2180682 6242 16384 21205 196 245.5 199 0 16.27499961853 2070.9613363743 29523.94431049
29058	2186924 7000 16357 21205 195.75 245.5 200 486.85000610352 486.85000610352 97370.001220703 47404585.688598
29057	2193924 6961 16357 21205 195.75 245.5 200 238.65362548828 752.70781707764 100325.48614502 53754034.18435
29040	2200885 6729 16190 21262 194 246.25 210 0.973 12.171901043613 630.13689239755 3466.2391610268
29039	2207614 6263 16190 21262 194 246.25 210 -4.5 2.5000038146973 40.717908859253 615.81299335205
29038	2213877 6567 16167 21262 193.75 246.25 211 0 16.375553131104 2183.8565745354 30222.549895664
29037	2220444 7412 16144 21262 193.5 246.25 212 486.85000610352 732.93339538574 111097.137146 59214364.680413
29036	2227856 7404 16144 21262 193.5 246.25 212 486.85000610352 785.82187652588 119890.09461975 69978471.050406
29068	2235260 5840 17083 21384 203.5 248 179 0.97223939240464 11.810082123732 535.51910531877 2960.9002779737
29067	2241100 5889 17083 21384 203.5 248 179 -2.1208915710449 2.5 38.680875778198 290.79163865624
29066	2246989 5976 17060 21384 203.25 248 180 4.0849227905273 15.875 2191.0218410492 29384.501245692
29065	2252965 6317 17037 21384 203 248 181 235.416015625 483.14999389648 79223.664031982 35657682.976692
29064	2259282 6311 17037 21384 203 248 181 184.17810058594 483.14999389648 72743.117584229 31008416.277048
29054	2265593 6931 16332 21401 195.5 248.25 212 0.973 11.876203220997 613.56671521587 3147.9182996058
29053	2272524 7006 16332 21401 195.5 248.25 212 -4.5 2.5000019073486 40.717908859253 428.51695930824
29052	2279530 7224 16307 21401 195.25 248.25 213 0 15.966709136963 2294.4111106675 31714.527252253
29051	2286754 7489 16282 21401 195 248.25 214 486.85000610352 486.85000610352 104185.90130615 50722906.6868
29050	2294243 7469 16282 21401 195 248.25 214 237.36859130859 806.11563110352 114437.46191406 65987969.716361
vector 29176  IntersectionExampleScenario.node[89].veinsmobility  posx  ETV
vector 29177  IntersectionExampleScenario.node[89].veinsmobility  posy  ETV
29089	2301866 5908 17311 21596 205.75 251.25 183 0.973 11.810082123732 564.41099255967 3164.229644171
29088	2307774 5897 17311 21596 205.75 251.25 183 -3.8139247894287 2.5 39.869146347046 355.48514972221
29087	2313671 6108 17284 21596 205.5 251.25 184 3.967670917511 15.875 2179.7409453392 28887.855342211
29086	2319779 6458 17257 21596 205.25 251.25 185 486.85000610352 731.62348937988 97974.949386597 52833296.921972
29085	2326237 6466 17257 21596 205.25 251.25 185 486.79373168945 785.82187652588 105208.43929291 61587583.051197
vector 29178  IntersectionExampleScenario.node[89].veinsmobility  speed  ETV
vector 29179  IntersectionExampleScenario.node[89].veinsmobility  acceleration  ETV
vector 29180  IntersectionExampleScenario.node[89].veinsmobility  co2emission  ETV
29096	2332950 5883 17639 21715 208.75 253 178 0.973 11.810082123732 558.8777009952 3069.7818056336
29095	2338833 5778 17639 21715 208.75 253 178 -4.5 2.5 41.227170944214 367.76101793028
29094	2344611 5926 17610 21715 208.5 253 179 4.8115267753601 16.012506484985 2231.1761956215 30609.49378528
29093	2350537 6296 17581 21715 208.25 253 180 486.85000610352 731.75372314453 95396.852996826 51483949.811813
29092	2356833 6282 17581 21715 208.25 253 180 486.697265625 798.59687805176 103345.72019196 61262882.171021
29103	2363115 5407 18078 21763 212.5 253.75 166 0.973 11.990504229548 501.4551325705 2841.5740973998
29102	2368522 5490 18078 21763 212.5 253.75 166 -3.3092727661133 2.5 39.869146347046 212.98369859657
29101	2374012 5586 18047 21763 212.25 253.75 167 5.6500000953674 16.125 2267.3846635818 31851.902593763
29100	2379598 5880 18016 21763 212 253.75 168 486.85000610352 486.85000610352 81790.801025391 39819851.978423
29099	2385478 5858 18016 21763 212 253.75 168 238.74768066406 800.17032623291 89316.708557129 51846111.162348
vector 29183  IntersectionExampleScenario.node[90].veinsmobility  posx  ETV
vector 29184  IntersectionExampleScenario.node[90].veinsmobility  posy  ETV
vector 29185  IntersectionExampleScenario.node[90].veinsmobility  speed  ETV
vector 29186  IntersectionExampleScenario.node[90].veinsmobility  acceleration  ETV
vector 29187  IntersectionExampleScenario.node[90].veinsmobility  co2emission  ETV
29110	2391737 5429 18484 21906 216 256 161 0.973 11.200708441096 486.00891093815 2495.5620471938
29109	2397166 5375 18484 21906 216 256 161 -3.2855262756348 2.5 36.98334312439 225.8028437309
29108	2402541 5618 18455 21906 215.75 256 162 5.6500000953674 15.324325561523 2212.5235385895 31119.931060217
29107	2408159 5684 18426 21906 215.5 256 163 483.14999389648 734.53451538086 87456.491333008 47914986.162188
29106	2413843 5672 18426 21906 215.5 256 163 184.17810058594 486.92459106445 65023.059936523 27745588.675287
vector 29190  IntersectionExampleScenario.node[91].veinsmobility  posx  ETV
vector 29191  IntersectionExampleScenario.node[91].veinsmobility  posy  ETV
vector 29192  IntersectionExampleScenario.node[91].veinsmobility  speed  ETV
vector 29193  IntersectionExampleScenario.node[91].veinsmobility  acceleration  ETV
vector 29194  IntersectionExampleScenario.node[91].veinsmobility  co2emission  ETV
vector 29197  IntersectionExampleScenario.node[92].veinsmobility  posx  ETV
vector 29198  IntersectionExampleScenario.node[92].veinsmobility  posy  ETV
vector 29199  IntersectionExampleScenario.node[92].veinsmobility  speed  ETV
vector 29200  IntersectionExampleScenario.node[92].veinsmobility  acceleration  ETV
vector 29201  IntersectionExampleScenario.node[92].veinsmobility  co2emission  ETV
[...]
31878	14832768 6593 116738 119943 1672.25 1716.75 179 184.17810058594 486.85000610352 72163.355163574 30878780.424171
31903	14839361 5607 117157 119997 1679 1718.25 158 0.97223939240464 11.648172402475 517.48888300477 3064.2752022127
31902	14844968 5365 117157 119997 1679 1718.25 158 -2.9493408203125 2.5 38.680875778198 253.91350296827
31901	14850333 5653 117140 119997 1678.75 1718.25 159 5.6500000953674 15.64999961853 2218.3980674744 31683.362968998
31900	14855986 5920 117123 119997 1678.5 1718.25 160 486.85000610352 486.85000610352 77896.000976562 37923668.550879
31899	14861906 5913 117123 119997 1678.5 1718.25 160 236.28424072266 785.82187652588 83570.065895081 47789995.609639
31917	14867819 5699 117253 120087 1680.25 1720.75 163 0.973 11.522969950332 540.52378557384 3265.2489863844
31916	14873518 5507 117253 120087 1680.25 1720.75 163 -3.1308822631836 2.5 37.32285118103 304.54521067421
31915	14879025 5781 117232 120087 1680 1720.75 164 5.6500000953674 15.475589752197 2203.1516485214 30461.446983826
31914	14884806 6098 117210 120087 1679.75 1720.75 165 483.14999389648 732.12065124512 88188.685958862 48105901.59787
31913	14890904 6079 117210 120087 1679.75 1720.75 165 184.17810058594 486.87869262695 65601.513885498 27873359.397128
vector 31962  IntersectionExampleScenario.node[487].veinsmobility  posx  ETV
vector 31963  IntersectionExampleScenario.node[487].veinsmobility  posy  ETV
vector 31964  IntersectionExampleScenario.node[487].veinsmobility  speed  ETV
vector 31965  IntersectionExampleScenario.node[487].veinsmobility  acceleration  ETV
vector 31966  IntersectionExampleScenario.node[487].veinsmobility  co2emission  ETV
31924	14897389 7049 117322 120486 1681 1731.5 203 0.973 10.756497587458 534.11621146041 2416.2627936595
31923	14904438 6432 117322 120486 1681 1731.5 203 -8.9238519668579 4 33.248777389526 450.10214647415
31922	14910870 6929 117297 120486 1680.75 1731.5 204 0 14.39999961853 2198.6036641598 28827.326359595
31921	14917799 7553 117274 120486 1680.5 1731.5 205 184.17810058594 486.85000610352 84282.625793457 36660788.800324
31920	14925352 7580 117274 120486 1680.5 1731.5 205 237.39819335938 486.85000610352 90709.794891357 41248680.496679
31896	14932932 7819 116878 120493 1674.5 1731.75 230 0.973 10.756497587458 563.56085002997 2450.2602528258
31895	14940751 6879 116878 120493 1674.5 1731.75 230 -31.760231018066 4 32.909269332886 1338.2414021616
31894	14947630 7488 116861 120493 1674.25 1731.75 231 0 14.39999961853 2205.3761491776 29191.077364897
31893	14955118 8576 116844 120493 1674 1731.75 232 483.14999389648 785.82187652588 128016.11470795 72743386.501345
31892	14963694 8575 116844 120493 1674 1731.75 232 483.14999389648 734.84803771973 121400.96772766 64717539.771368
vector 31969  IntersectionExampleScenario.node[488].veinsmobility  posx  ETV
vector 31970  IntersectionExampleScenario.node[488].veinsmobility  posy  ETV
vector 31971  IntersectionExampleScenario.node[488].veinsmobility  speed  ETV
31910	14972504 7433 117232 120527 1680 1733 213 0.973 12.005377743579 619.43313536102 3058.8929245597
31909	14979937 7715 117232 120527 1680 1733 213 -4.5 2.5 41.982381820679 434.74055848812
31908	14987652 7727 117210 120527 1679.75 1733 214 0 16.145595550537 2211.8916923404 30438.316961044
31907	14995379 7935 117191 120527 1679.5 1733 215 482.97640991211 785.82187652588 119236.57841492 68090839.845197
31906	15003314 7949 117191 120527 1679.5 1733 215 483.14999389648 734.90431213379 112763.61062622 60277635.331648
vector 31972  IntersectionExampleScenario.node[488].veinsmobility  acceleration  ETV
vector 31973  IntersectionExampleScenario.node[488].veinsmobility  co2emission  ETV
31931	15011434 7497 117347 120541 1681.25 1733.5 210 0.973 9.7816405154913 556.66781246903 2256.4543326267
31930	15018931 7141 117347 120541 1681.25 1733.5 210 -4.5 2.5 34.606801986694 370.91808584777
31929	15026072 7666 117322 120541 1681 1733.5 211 0 14.342810630798 2300.2338853534 30092.353594391
31928	15033738 7808 117297 120541 1680.75 1733.5 212 159.76721191406 487.01281738281 84828.971923828 36415902.369382
31927	15041546 7839 117297 120541 1680.75 1733.5 212 237.25140380859 486.85000610352 94308.24822998 43061216.992886
vector 31976  IntersectionExampleScenario.node[489].veinsmobility  posx  ETV
vector 31977  IntersectionExampleScenario.node[489].veinsmobility  posy  ETV
vector 31978  IntersectionExampleScenario.node[489].veinsmobility  speed  ETV
vector 31979  IntersectionExampleScenario.node[489].veinsmobility  acceleration  ETV
vector 31980  IntersectionExampleScenario.node[489].veinsmobility  co2emission  ETV
vector 31983  IntersectionExampleScenario.node[490].veinsmobility  posx  ETV
vector 31984  IntersectionExampleScenario.node[490].veinsmobility  posy  ETV
vector 31985  IntersectionExampleScenario.node[490].veinsmobility  speed  ETV
vector 31986  IntersectionExampleScenario.node[490].veinsmobility  acceleration  ETV
vector 31987  IntersectionExampleScenario.node[490].veinsmobility  co2emission  ETV
vector 31990  IntersectionExampleScenario.node[491].veinsmobility  posx  ETV
vector 31991  IntersectionExampleScenario.node[491].veinsmobility  posy  ETV
vector 31992  IntersectionExampleScenario.node[491].veinsmobility  speed  ETV
vector 31993  IntersectionExampleScenario.node[491].veinsmobility  acceleration  ETV
vector 31994  IntersectionExampleScenario.node[491].veinsmobility  co2emission  ETV
31938	15050603 7332 118250 120930 1691.5 1745.25 216 0.973 11.450879080643 580.11674130364 2824.6643190766
31937	15057935 6480 118250 120930 1691.5 1745.25 216 -19.25309753418 4 37.15309715271 803.38490429803
31936	15064415 7016 118227 120930 1691.25 1745.25 217 0 15.375 2183.3162298203 30631.217629806
31935	15071431 8060 118204 120930 1691 1745.25 218 483.14999389648 733.74011230469 113920.84291077 60630211.184271
31934	15079491 8043 118204 120930 1691 1745.25 218 184.17810058594 486.85000610352 90932.453369141 39947120.806824
31945	15087534 5607 119353 120930 1706.75 1745.25 155 0.973 11.648172402475 496.3714292769 2741.9369176507
31944	15093141 5161 119353 120930 1706.75 1745.25 155 -4.5 2.5 38.511121749878 243.87568065958
31943	15098302 5537 119340 120930 1706.5 1745.25 156 5.6500000953674 15.64999961853 2219.8765268326 32246.082964542
31942	15103839 5810 119327 120930 1706.25 1745.25 157 486.85000610352 486.85000610352 76435.450958252 37212599.76555
31941	15109649 5796 119327 120930 1706.25 1745.25 157 236.16333007812 785.82187652588 81828.970863342 46793382.244655
31952	15115445 5708 119487 121073 1709.25 1748.5 158 0.973 11.90022389248 510.04504732051 2825.5960573449
31951	15121153 5319 119487 121073 1709.25 1748.5 158 -3.8890571594238 2.5 39.869146347046 251.01645678387
31950	15126472 5579 119472 121073 1709 1748.5 159 5.6500000953674 16 2267.4283285141 33363.149966018
31949	15132051 5916 119457 121073 1708.75 1748.5 160 236.98120117188 486.85000610352 69696.508911133 31304465.901425
31948	15137967 5911 119457 121073 1708.75 1748.5 160 482.96051025391 801.41563415527 92584.086166382 55563266.481355
31959	15143878 5664 119581 121132 1710.75 1750 158 0.97223939240464 11.648172402475 523.69779077766 3062.1616547184
31958	15149542 5326 119581 121132 1710.75 1750 158 -3.5630149841309 2.5 38.680875778198 282.8512290798
31957	15154868 5598 119564 121132 1710.5 1750 159 5.6500000953674 15.64999961853 2211.9288845062 31712.105123832
31956	15160466 5915 119547 121132 1710.25 1750 160 483.14999389648 733.85636901855 85719.099151611 46885653.130228
31955	15166381 5892 119547 121132 1710.25 1750 160 184.17810058594 486.85000610352 63713.998779297 27145481.173593
vector 31997  IntersectionExampleScenario.node[492].veinsmobility  posx  ETV
vector 31998  IntersectionExampleScenario.node[492].veinsmobility  posy  ETV
vector 31999  IntersectionExampleScenario.node[492].veinsmobility  speed  ETV
vector 32000  IntersectionExampleScenario.node[492].veinsmobility  acceleration  ETV
vector 32001  IntersectionExampleScenario.node[492].veinsmobility  co2emission  ETV
vector 32004  IntersectionExampleScenario.node[493].veinsmobility  posx  ETV
vector 32005  IntersectionExampleScenario.node[493].veinsmobility  posy  ETV
vector 32006  IntersectionExampleScenario.node[493].veinsmobility  speed  ETV
vector 32007  IntersectionExampleScenario.node[493].veinsmobility  acceleration  ETV
vector 32008  IntersectionExampleScenario.node[493].veinsmobility  co2emission  ETV
vector 32011  IntersectionExampleScenario.node[494].veinsmobility  posx  ETV
vector 32012  IntersectionExampleScenario.node[494].veinsmobility  posy  ETV
vector 32013  IntersectionExampleScenario.node[494].veinsmobility  speed  ETV
31966	15173320 5805 120271 121659 1725.75 1765.75 161 0.973 11.36141391502 499.34038570949 2614.2275838502
31965	15179125 5143 120271 121659 1725.75 1765.75 161 -3.4165802001953 2.5 37.492597579956 268.68036002663
31964	15184268 5673 120260 121659 1725.5 1765.75 162 5.6500000953674 15.25 2177.7739219666 30562.390161318
31963	15189941 6028 120249 121659 1725.25 1765.75 163 486.79116821289 785.82187652588 93318.304298401 55181264.091198
31962	15195969 6030 120249 121659 1725.25 1765.75 163 238.38116455078 483.14999389648 70553.45489502 31459534.191703
vector 32014  IntersectionExampleScenario.node[494].veinsmobility  acceleration  ETV
vector 32015  IntersectionExampleScenario.node[494].veinsmobility  co2emission  ETV
31980	15202170 5411 120563 121820 1734.25 1771.5 150 0.973 12.099024792222 515.94328077107 2901.3428434026
31979	15207581 5347 120563 121820 1734.25 1771.5 150 -3.5234870910645 2.5 42.415441513062 254.87253361295
31978	15212928 5297 120556 121820 1734 1771.5 151 5.6500000953674 16.348613739014 2200.7938299179 33276.23376001
31977	15218225 5591 120548 121820 1733.75 1771.5 152 184.17810058594 487.06762695312 60398.751861572 25720678.771263
31976	15223816 5619 120548 121820 1733.75 1771.5 152 238.74035644531 486.85000610352 66187.808380127 29706606.220737
31973	15229435 6025 120534 121925 1733.25 1775.25 169 0.973 11.648172402475 534.47922305274 2878.663054925
31972	15235460 5823 120534 121925 1733.25 1775.25 169 -3.5652666091919 2.5000009536743 37.832105636597 392.45402788914
31971	15241283 6128 120527 121925 1733 1775.25 170 1.6881883144379 15.64999961853 2197.0676944256 30800.673240324
31970	15247411 6319 120520 121925 1732.75 1775.25 171 238.27514648438 486.85000610352 74873.982849121 33761489.021502
31969	15253730 6315 120520 121925 1732.75 1775.25 171 483.14999389648 785.82187652588 97020.341056824 56876894.327725
vector 32018  IntersectionExampleScenario.node[495].veinsmobility  posx  ETV
vector 32019  IntersectionExampleScenario.node[495].veinsmobility  posy  ETV
vector 32020  IntersectionExampleScenario.node[495].veinsmobility  speed  ETV
vector 32021  IntersectionExampleScenario.node[495].veinsmobility  acceleration  ETV
vector 32022  IntersectionExampleScenario.node[495].veinsmobility  co2emission  ETV
vector 32025  IntersectionExampleScenario.node[496].veinsmobility  posx  ETV
vector 32026  IntersectionExampleScenario.node[496].veinsmobility  posy  ETV
vector 32027  IntersectionExampleScenario.node[496].veinsmobility  speed  ETV
31987	15260686 5459 120771 122071 1741.5 1779.75 154 0.96333723109819 12.099024792222 518.50156581604 3140.1911499726
31986	15266145 5230 120771 122071 1741.5 1779.75 154 -3.9988555908203 2.5000038146973 40.208654403687 275.4253190757
31985	15271375 5453 120762 122071 1741.25 1779.75 155 5.6500000953674 16.27499961853 2207.6033687592 32478.767111514
31984	15276828 5769 120753 122071 1741 1779.75 156 236.28369140625 486.85000610352 67739.497802734 30351578.279401
31983	15282597 5755 120753 122071 1741 1779.75 156 482.9714050293 785.82187652588 89267.160484314 52826956.963366
vector 32028  IntersectionExampleScenario.node[496].veinsmobility  acceleration  ETV
vector 32029  IntersectionExampleScenario.node[496].veinsmobility  co2emission  ETV
vector 32032  IntersectionExampleScenario.node[497].veinsmobility  posx  ETV
vector 32033  IntersectionExampleScenario.node[497].veinsmobility  posy  ETV
vector 32034  IntersectionExampleScenario.node[497].veinsmobility  speed  ETV
vector 32035  IntersectionExampleScenario.node[497].veinsmobility  acceleration  ETV
vector 32036  IntersectionExampleScenario.node[497].veinsmobility  co2emission  ETV
31994	15288929 5647 120820 122169 1742.75 1781.75 157 0.973 11.648172402475 515.33710842778 2860.2051829477
31993	15294576 5157 120820 122169 1742.75 1781.75 157 -3.4797992706299 2.5 39.869146347046 286.62411236147
31992	15299733 5545 120809 122169 1742.5 1781.75 158 5.6500000953674 15.786576271057 2188.0113911629 31758.634129279
31991	15305278 5841 120798 122169 1742.25 1781.75 159 235.87658691406 483.14999389648 68763.413330078 30653624.456167
31990	15311119 5862 120798 122169 1742.25 1781.75 159 184.17810058594 483.14999389648 63186.488616943 26835570.35997
vector 32039  IntersectionExampleScenario.node[498].veinsmobility  posx  ETV
vector 32040  IntersectionExampleScenario.node[498].veinsmobility  posy  ETV
vector 32041  IntersectionExampleScenario.node[498].veinsmobility  speed  ETV
vector 32042  IntersectionExampleScenario.node[498].veinsmobility  acceleration  ETV
vector 32043  IntersectionExampleScenario.node[498].veinsmobility  co2emission  ETV
vector 32046  IntersectionExampleScenario.node[499].veinsmobility  posx  ETV
vector 32047  IntersectionExampleScenario.node[499].veinsmobility  posy  ETV
vector 32053  IntersectionExampleScenario.node[500].veinsmobility  posx  ETV
vector 32054  IntersectionExampleScenario.node[500].veinsmobility  posy  ETV
vector 32048  IntersectionExampleScenario.node[499].veinsmobility  speed  ETV
vector 32049  IntersectionExampleScenario.node[499].veinsmobility  acceleration  ETV
vector 32050  IntersectionExampleScenario.node[499].veinsmobility  co2emission  ETV
vector 32055  IntersectionExampleScenario.node[500].veinsmobility  speed  ETV
vector 32056  IntersectionExampleScenario.node[500].veinsmobility  acceleration  ETV
vector 32057  IntersectionExampleScenario.node[500].veinsmobility  co2emission  ETV
vector 32060  IntersectionExampleScenario.node[501].veinsmobility  posx  ETV
vector 32061  IntersectionExampleScenario.node[501].veinsmobility  posy  ETV
vector 32062  IntersectionExampleScenario.node[501].veinsmobility  speed  ETV
vector 32063  IntersectionExampleScenario.node[501].veinsmobility  acceleration  ETV
vector 32064  IntersectionExampleScenario.node[501].veinsmobility  co2emission  ETV
32001	15318605 5739 121430 123220 1758.75 1800 166 0.973 11.36141391502 498.58701214454 2658.7065044504
32000	15324344 5410 121430 123220 1758.75 1800 166 -6.7711095809937 4 36.983480453491 450.59377063104
31999	15329754 5608 121421 123220 1758.5 1800 167 0 15.25 1848.0433430672 25103.562913224
31998	15335362 6154 121412 123220 1758.25 1800 168 319.29699707031 483.14999389648 77392.278503418 35975976.656701
31997	15341516 6189 121412 123220 1758.25 1800 168 184.17810058594 483.36395263672 66798.968292236 28299373.419876
32008	15347705 5527 121486 123220 1760.5 1800 159 0.973 11.648172402475 497.713889336 2689.1024662471
32007	15353232 5531 121486 123220 1760.5 1800 159 -7.7750473022461 4 38.511247634888 473.54690669904
32006	15358763 5658 121477 123220 1760.25 1800 160 0 15.64999961853 1765.930742383 24347.172768825
32005	15364421 5951 121468 123220 1760 1800 161 345.44305419922 486.85000610352 75593.341705322 35703137.671775
32004	15370372 5942 121468 123220 1760 1800 161 483.14999389648 785.82187652588 92380.364967346 54717402.025632
32015	15376314 4735 121666 123220 1766 1800 137 0.973 11.450879080643 459.7405710625 2802.5523477291
32014	15381049 4717 121666 123220 1766 1800 137 -3.2394485473633 2.5 36.648008346558 304.8797917099
32013	15385766 4813 121659 123220 1765.75 1800 138 5.6500000953674 15.375 1711.7977347374 22372.159325086
32012	15390579 5140 121652 123220 1765.5 1800 139 483.14999389648 608.86535644531 69421.582794189 34822528.296843
32011	15395719 5122 121652 123220 1765.5 1800 139 184.17810058594 486.85000610352 52714.999206543 21492715.07183
32022	15400841 3153 122006 123220 1778 1800 89 0.973 11.648172402475 283.05567941371 1587.2916021578
32021	15403994 3151 122006 123220 1778 1800 89 -3.9490737915039 2.5 13.39999961853 195.45935186852
32020	15407145 3172 121997 123220 1777.75 1800 90 5.6500000953674 16.05216217041 1232.8625497818 17658.986288018
32019	15410317 3366 121988 123220 1777.5 1800 91 478.02572631836 486.85000610352 44272.950012207 21539663.246965
32018	15413683 3356 121988 123220 1777.5 1800 91 483.58367919922 785.82187652588 57897.09438324 37700073.493771
32029	15417039 2870 122082 123220 1780 1800 81 0.973 11.648172402475 256.52141764437 1433.5217278582
32028	15419909 2823 122082 123220 1780 1800 81 -3.2399711608887 2.5 5.0943508148193 201.04344625413
32027	15422732 3018 122071 123220 1779.75 1800 82 5.6500000953674 15.64999961853 1123.7710142136 16005.645470089
32026	15425750 3044 122060 123220 1779.5 1800 83 184.17810058594 462.93212890625 26336.86895752 8999570.9636435
32025	15428794 3070 122060 123220 1779.5 1800 83 486.85000610352 486.85000610352 40408.550506592 19672903.060768
32036	15431864 2838 122130 123220 1781 1800 77 1.6778656626784 11.200708441096 253.08535931349 1328.2040409986
32035	15434702 2494 122130 123220 1781 1800 77 -0.12916564941406 2.5 36.98334312439 93.788124843824
32034	15437196 2870 122117 123220 1780.75 1800 78 5.6500000953674 15.02499961853 1089.3292379379 15611.125612131
32033	15440066 2922 122104 123220 1780.5 1800 79 483.14999389648 483.14999389648 38168.849517822 18441279.411572
32032	15442988 2896 122104 123220 1780.5 1800 79 184.17810058594 451.54577636719 24332.047332764 8030561.5698573
32043	15445884 2227 122342 123220 1785 1800 61 0.973 11.200708441096 216.6004685373 1248.2045767549
32042	15448111 2158 122342 123220 1785 1800 61 -0.48291015625 2.5 36.125482559204 94.134742078797
32041	15450269 2280 122327 123220 1784.75 1800 62 5.6500000953674 15.02499961853 852.35798549652 12101.672463066
32040	15452549 2311 122312 123220 1784.5 1800 63 184.17810058594 392.3703918457 17563.663360596 5161091.1939103
32039	15454860 2330 122312 123220 1784.5 1800 63 486.85000610352 486.85000610352 30671.550384521 14932444.491909
32050	15457190 1695 122572 123220 1788.75 1800 46 0.97223939240464 11.648172402475 194.88535890804 1313.9526882205
32049	15458885 1627 122572 123220 1788.75 1800 46 -0.32978057861328 2.5 38.681104660034 100.24857608162
32048	15460512 1724 122554 123220 1788.5 1800 47 5.6500000953674 15.64999961853 641.64567947388 9159.2774075539
32047	15462236 1776 122537 123220 1788.25 1800 48 630.55126953125 785.82187652588 34440.789421082 24826618.744277
32046	15464012 1776 122537 123220 1788.25 1800 48 483.14999389648 483.14999389648 23191.199707031 11204827.996904
32057	15465788 1658 122589 123220 1789 1800 45 1.8321577376031 11.200708441096 185.53627283958 1185.3605187737
32056	15467446 1598 122589 123220 1789 1800 45 -0.086727142333984 2.5 37.153150558472 93.76718262531
32055	15469044 1690 122572 123220 1788.75 1800 46 5.6500000953674 15.02499961853 613.80831336975 8544.9762892009
32054	15470734 1711 122554 123220 1788.5 1800 47 177.97814941406 326.45227050781 11441.997802734 2888161.0860126
32053	15472445 1738 122554 123220 1788.5 1800 47 486.85000610352 486.85000610352 22881.950286865 11140077.636821
32064	15474183 329 123099 123220 1798 1800 9 5.2162187258585 8.5795037135332 62.00095089838 437.72442123158
32063	15474512 235 123099 123220 1798 1800 9 2.4999980926514 2.5 22.499998092651 56.24999046326
32062	15474747 366 123084 123220 1797.75 1800 10 5.6500000953674 11.27499961853 84.624998092651 748.36558556557
32061	15475113 406 123069 123220 1797.5 1800 11 768.18751525879 785.82187652588 8565.2438354492 6669776.5751947
32060	15475519 406 123069 123220 1797.5 1800 11 483.14999389648 483.14999389648 5314.6499328613 2567773.0826239
28549	15475925 622 0 123219 0 1800 31 0 22 370 5052
28550	15476547 639 0 123219 0 1800 31 0 137 2233 209227
