version 2
run nodebug-3-20200606-15:34:27-20656
attr configname nodebug
attr datetime 20200606-15:34:27
attr experiment nodebug
attr inifile omnetpp.ini
attr iterationvars ""
attr iterationvars2 $repetition=3
attr measurement ""
attr network "\"org.car2x.veins.modules.application.ExtTraCIScenarioManagerLaunchd.IntersectionExampleScenario\""
attr processid 20656
attr repetition 3
attr replication #3
attr resultdir results
attr runnumber 3
attr seedset 3
param **.coreDebug false
param **.debug false
param *.**.nic.mac1609_4.bitrate 18Mbps
param *.**.nic.mac1609_4.txPower 20mW
param *.**.nic.mac1609_4.useServiceChannel false
param *.**.nic.phy80211p.analogueModels "xmldoc(\"config.xml\")"
param *.**.nic.phy80211p.decider "xmldoc(\"config.xml\")"
param *.**.nic.phy80211p.sensitivity -89dBm
param *.**.nic.phy80211p.thermalNoise -110dBm
param *.**.nic.phy80211p.usePropagationDelay true
param *.**.nic.phy80211p.useThermalNoise true
param *.annotations.draw false
param *.connectionManager.alpha 2.0
param *.connectionManager.carrierFrequency "5.890e9 Hz"
param *.connectionManager.pMax 20mW
param *.connectionManager.sat -89dBm
param *.connectionManager.sendDirect true
param *.manager.autoShutdown true
param *.manager.host "\"localhost\""
param *.manager.launchConfig "xmldoc(\"paramics.launchd.xml\")"
param *.manager.margin 25
param *.manager.moduleDisplayString "\"\""
param *.manager.moduleName "\"node\""
param *.manager.moduleType "\"org.car2x.veins.nodes.Car\""
param *.manager.port 9999
param *.manager.updateInterval 250ms
param *.node[*0].veinsmobility.accidentCount 0
param *.node[*0].veinsmobility.accidentDuration 30s
param *.node[*0].veinsmobility.accidentStart 75s
param *.node[*].appl.LiderSelectZoneRadio 55.0
param *.node[*].appl.ShareDataZoneRadio 110.0
param *.node[*].appl.TiempoSemaforo 30.0
param *.node[*].appl.beaconInterval 1s
param *.node[*].appl.beaconPriority 3
param *.node[*].appl.dataOnSch false
param *.node[*].appl.dataPriority 2
param *.node[*].appl.debug false
param *.node[*].appl.headerLength "256 bit"
param *.node[*].appl.maxOffset 0.005s
param *.node[*].appl.sendBeacons false
param *.node[*].appl.sendData true
param *.node[*].applType "\"Dummy\""
param *.node[*].mobilityType "\"TraCIMobility\""
param *.node[*].mobilityType.debug true
param *.node[*].veinsmobility.x 0
param *.node[*].veinsmobility.y 0
param *.node[*].veinsmobility.z 1.895
param *.node[*].veinsmobilityType "\"org.car2x.veins.modules.mobility.traci.TraCIMobility\""
param *.node[*].veinsmobilityType.debug true
param *.playgroundSizeX 8500m
param *.playgroundSizeY 8500m
param *.playgroundSizeZ 50m
param *.world.use2D false
param *.world.useTorus false

scalar IntersectionExampleScenario.node[2].appl 	VehicleRemoved 	0
scalar IntersectionExampleScenario.node[2].appl 	ArrivedAtDest 	1
scalar IntersectionExampleScenario.node[2].appl 	IntersectionEnterTime 	8.5
scalar IntersectionExampleScenario.node[2].appl 	IntersectionExitTime 	32.057104152831
scalar IntersectionExampleScenario.node[2].appl 	NumberOfCollisions 	0
scalar IntersectionExampleScenario.node[2].nic.phy80211p 	busyTime 	0
scalar IntersectionExampleScenario.node[2].nic.mac1609_4 	ReceivedUnicastPackets 	0
scalar IntersectionExampleScenario.node[2].nic.mac1609_4 	ReceivedBroadcasts 	0
scalar IntersectionExampleScenario.node[2].nic.mac1609_4 	SentPackets 	0
scalar IntersectionExampleScenario.node[2].nic.mac1609_4 	SNIRLostPackets 	0
scalar IntersectionExampleScenario.node[2].nic.mac1609_4 	RXTXLostPackets 	0
scalar IntersectionExampleScenario.node[2].nic.mac1609_4 	TotalLostPackets 	0
scalar IntersectionExampleScenario.node[2].nic.mac1609_4 	DroppedPacketsInMac 	0
scalar IntersectionExampleScenario.node[2].nic.mac1609_4 	TooLittleTime 	0
scalar IntersectionExampleScenario.node[2].nic.mac1609_4 	TimesIntoBackoff 	0
scalar IntersectionExampleScenario.node[2].nic.mac1609_4 	SlotsBackoff 	0
scalar IntersectionExampleScenario.node[2].nic.mac1609_4 	NumInternalContention 	0
scalar IntersectionExampleScenario.node[2].nic.mac1609_4 	totalBusyTime 	0
scalar IntersectionExampleScenario.node[2].veinsmobility 	startTime 	8.5
scalar IntersectionExampleScenario.node[2].veinsmobility 	totalTime 	40.25
scalar IntersectionExampleScenario.node[2].veinsmobility 	stopTime 	49
scalar IntersectionExampleScenario.node[2].veinsmobility 	minSpeed 	5.6500000953674
scalar IntersectionExampleScenario.node[2].veinsmobility 	maxSpeed 	15.375
scalar IntersectionExampleScenario.node[2].veinsmobility 	totalDistance 	551.98641173244
scalar IntersectionExampleScenario.node[2].veinsmobility 	totalCO2Emission 	120.88968681036
scalar IntersectionExampleScenario.node[0].appl 	VehicleRemoved 	0
scalar IntersectionExampleScenario.node[0].appl 	ArrivedAtDest 	1
scalar IntersectionExampleScenario.node[0].appl 	IntersectionEnterTime 	1
scalar IntersectionExampleScenario.node[0].appl 	IntersectionExitTime 	34.313853450119
scalar IntersectionExampleScenario.node[0].appl 	NumberOfCollisions 	0
scalar IntersectionExampleScenario.node[0].nic.phy80211p 	busyTime 	0
scalar IntersectionExampleScenario.node[0].nic.mac1609_4 	ReceivedUnicastPackets 	0
scalar IntersectionExampleScenario.node[0].nic.mac1609_4 	ReceivedBroadcasts 	0
scalar IntersectionExampleScenario.node[0].nic.mac1609_4 	SentPackets 	0
scalar IntersectionExampleScenario.node[0].nic.mac1609_4 	SNIRLostPackets 	0
scalar IntersectionExampleScenario.node[0].nic.mac1609_4 	RXTXLostPackets 	0
scalar IntersectionExampleScenario.node[0].nic.mac1609_4 	TotalLostPackets 	0
scalar IntersectionExampleScenario.node[0].nic.mac1609_4 	DroppedPacketsInMac 	0
scalar IntersectionExampleScenario.node[0].nic.mac1609_4 	TooLittleTime 	0
scalar IntersectionExampleScenario.node[0].nic.mac1609_4 	TimesIntoBackoff 	0
scalar IntersectionExampleScenario.node[0].nic.mac1609_4 	SlotsBackoff 	0
scalar IntersectionExampleScenario.node[0].nic.mac1609_4 	NumInternalContention 	0
scalar IntersectionExampleScenario.node[0].nic.mac1609_4 	totalBusyTime 	0
scalar IntersectionExampleScenario.node[0].veinsmobility 	startTime 	1
scalar IntersectionExampleScenario.node[0].veinsmobility 	totalTime 	49.25
scalar IntersectionExampleScenario.node[0].veinsmobility 	stopTime 	50.5
scalar IntersectionExampleScenario.node[0].veinsmobility 	minSpeed 	0
scalar IntersectionExampleScenario.node[0].veinsmobility 	maxSpeed 	15.64999961853
scalar IntersectionExampleScenario.node[0].veinsmobility 	totalDistance 	553.8377456665
scalar IntersectionExampleScenario.node[0].veinsmobility 	totalCO2Emission 	142.54787340269
scalar IntersectionExampleScenario.node[1].appl 	VehicleRemoved 	0
scalar IntersectionExampleScenario.node[1].appl 	ArrivedAtDest 	1
scalar IntersectionExampleScenario.node[1].appl 	IntersectionEnterTime 	6.75
scalar IntersectionExampleScenario.node[1].appl 	IntersectionExitTime 	34.275905359827
scalar IntersectionExampleScenario.node[1].appl 	NumberOfCollisions 	0
scalar IntersectionExampleScenario.node[1].nic.phy80211p 	busyTime 	0
scalar IntersectionExampleScenario.node[1].nic.mac1609_4 	ReceivedUnicastPackets 	0
scalar IntersectionExampleScenario.node[1].nic.mac1609_4 	ReceivedBroadcasts 	0
scalar IntersectionExampleScenario.node[1].nic.mac1609_4 	SentPackets 	0
scalar IntersectionExampleScenario.node[1].nic.mac1609_4 	SNIRLostPackets 	0
scalar IntersectionExampleScenario.node[1].nic.mac1609_4 	RXTXLostPackets 	0
scalar IntersectionExampleScenario.node[1].nic.mac1609_4 	TotalLostPackets 	0
scalar IntersectionExampleScenario.node[1].nic.mac1609_4 	DroppedPacketsInMac 	0
scalar IntersectionExampleScenario.node[1].nic.mac1609_4 	TooLittleTime 	0
scalar IntersectionExampleScenario.node[1].nic.mac1609_4 	TimesIntoBackoff 	0
scalar IntersectionExampleScenario.node[1].nic.mac1609_4 	SlotsBackoff 	0
scalar IntersectionExampleScenario.node[1].nic.mac1609_4 	NumInternalContention 	0
scalar IntersectionExampleScenario.node[1].nic.mac1609_4 	totalBusyTime 	0
scalar IntersectionExampleScenario.node[1].veinsmobility 	startTime 	6.75
scalar IntersectionExampleScenario.node[1].veinsmobility 	totalTime 	44.5
scalar IntersectionExampleScenario.node[1].veinsmobility 	stopTime 	51.5
scalar IntersectionExampleScenario.node[1].veinsmobility 	minSpeed 	1.7496328353882
scalar IntersectionExampleScenario.node[1].veinsmobility 	maxSpeed 	14.75
scalar IntersectionExampleScenario.node[1].veinsmobility 	totalDistance 	552.66940307617
scalar IntersectionExampleScenario.node[1].veinsmobility 	totalCO2Emission 	128.36433992096
scalar IntersectionExampleScenario.node[5].appl 	VehicleRemoved 	0
scalar IntersectionExampleScenario.node[5].appl 	ArrivedAtDest 	1
scalar IntersectionExampleScenario.node[5].appl 	IntersectionEnterTime 	21.25
scalar IntersectionExampleScenario.node[5].appl 	IntersectionExitTime 	44.269608467584
scalar IntersectionExampleScenario.node[5].appl 	NumberOfCollisions 	0
scalar IntersectionExampleScenario.node[5].nic.phy80211p 	busyTime 	0
scalar IntersectionExampleScenario.node[5].nic.mac1609_4 	ReceivedUnicastPackets 	0
scalar IntersectionExampleScenario.node[5].nic.mac1609_4 	ReceivedBroadcasts 	0
scalar IntersectionExampleScenario.node[5].nic.mac1609_4 	SentPackets 	0
scalar IntersectionExampleScenario.node[5].nic.mac1609_4 	SNIRLostPackets 	0
scalar IntersectionExampleScenario.node[5].nic.mac1609_4 	RXTXLostPackets 	0
scalar IntersectionExampleScenario.node[5].nic.mac1609_4 	TotalLostPackets 	0
scalar IntersectionExampleScenario.node[5].nic.mac1609_4 	DroppedPacketsInMac 	0
scalar IntersectionExampleScenario.node[5].nic.mac1609_4 	TooLittleTime 	0
scalar IntersectionExampleScenario.node[5].nic.mac1609_4 	TimesIntoBackoff 	0
scalar IntersectionExampleScenario.node[5].nic.mac1609_4 	SlotsBackoff 	0
scalar IntersectionExampleScenario.node[5].nic.mac1609_4 	NumInternalContention 	0
scalar IntersectionExampleScenario.node[5].nic.mac1609_4 	totalBusyTime 	0
scalar IntersectionExampleScenario.node[5].veinsmobility 	startTime 	21.25
scalar IntersectionExampleScenario.node[5].veinsmobility 	totalTime 	39
scalar IntersectionExampleScenario.node[5].veinsmobility 	stopTime 	60.5
scalar IntersectionExampleScenario.node[5].veinsmobility 	minSpeed 	5.6500000953674
scalar IntersectionExampleScenario.node[5].veinsmobility 	maxSpeed 	16
scalar IntersectionExampleScenario.node[5].veinsmobility 	totalDistance 	551.52601923906
scalar IntersectionExampleScenario.node[5].veinsmobility 	totalCO2Emission 	125.03908155005
scalar IntersectionExampleScenario.node[6].appl 	VehicleRemoved 	0
scalar IntersectionExampleScenario.node[6].appl 	ArrivedAtDest 	1
scalar IntersectionExampleScenario.node[6].appl 	IntersectionEnterTime 	21.75
scalar IntersectionExampleScenario.node[6].appl 	IntersectionExitTime 	46.027744735533
scalar IntersectionExampleScenario.node[6].appl 	NumberOfCollisions 	0
scalar IntersectionExampleScenario.node[6].nic.phy80211p 	busyTime 	0
scalar IntersectionExampleScenario.node[6].nic.mac1609_4 	ReceivedUnicastPackets 	0
scalar IntersectionExampleScenario.node[6].nic.mac1609_4 	ReceivedBroadcasts 	0
scalar IntersectionExampleScenario.node[6].nic.mac1609_4 	SentPackets 	0
scalar IntersectionExampleScenario.node[6].nic.mac1609_4 	SNIRLostPackets 	0
scalar IntersectionExampleScenario.node[6].nic.mac1609_4 	RXTXLostPackets 	0
scalar IntersectionExampleScenario.node[6].nic.mac1609_4 	TotalLostPackets 	0
scalar IntersectionExampleScenario.node[6].nic.mac1609_4 	DroppedPacketsInMac 	0
scalar IntersectionExampleScenario.node[6].nic.mac1609_4 	TooLittleTime 	0
scalar IntersectionExampleScenario.node[6].nic.mac1609_4 	TimesIntoBackoff 	0
scalar IntersectionExampleScenario.node[6].nic.mac1609_4 	SlotsBackoff 	0
scalar IntersectionExampleScenario.node[6].nic.mac1609_4 	NumInternalContention 	0
scalar IntersectionExampleScenario.node[6].nic.mac1609_4 	totalBusyTime 	0
scalar IntersectionExampleScenario.node[6].veinsmobility 	startTime 	21.75
scalar IntersectionExampleScenario.node[6].veinsmobility 	totalTime 	41.75
scalar IntersectionExampleScenario.node[6].veinsmobility 	stopTime 	63.75
scalar IntersectionExampleScenario.node[6].veinsmobility 	minSpeed 	5.6500000953674
scalar IntersectionExampleScenario.node[6].veinsmobility 	maxSpeed 	14.625
scalar IntersectionExampleScenario.node[6].veinsmobility 	totalDistance 	543.54281384225
scalar IntersectionExampleScenario.node[6].veinsmobility 	totalCO2Emission 	120.8827156662
scalar IntersectionExampleScenario.node[3].appl 	VehicleRemoved 	0
scalar IntersectionExampleScenario.node[3].appl 	ArrivedAtDest 	1
scalar IntersectionExampleScenario.node[3].appl 	IntersectionEnterTime 	10.75
scalar IntersectionExampleScenario.node[3].appl 	IntersectionExitTime 	48.573857851385
scalar IntersectionExampleScenario.node[3].appl 	NumberOfCollisions 	0
scalar IntersectionExampleScenario.node[3].nic.phy80211p 	busyTime 	0
scalar IntersectionExampleScenario.node[3].nic.mac1609_4 	ReceivedUnicastPackets 	0
scalar IntersectionExampleScenario.node[3].nic.mac1609_4 	ReceivedBroadcasts 	0
scalar IntersectionExampleScenario.node[3].nic.mac1609_4 	SentPackets 	0
scalar IntersectionExampleScenario.node[3].nic.mac1609_4 	SNIRLostPackets 	0
scalar IntersectionExampleScenario.node[3].nic.mac1609_4 	RXTXLostPackets 	0
scalar IntersectionExampleScenario.node[3].nic.mac1609_4 	TotalLostPackets 	0
scalar IntersectionExampleScenario.node[3].nic.mac1609_4 	DroppedPacketsInMac 	0
scalar IntersectionExampleScenario.node[3].nic.mac1609_4 	TooLittleTime 	0
scalar IntersectionExampleScenario.node[3].nic.mac1609_4 	TimesIntoBackoff 	0
scalar IntersectionExampleScenario.node[3].nic.mac1609_4 	SlotsBackoff 	0
scalar IntersectionExampleScenario.node[3].nic.mac1609_4 	NumInternalContention 	0
scalar IntersectionExampleScenario.node[3].nic.mac1609_4 	totalBusyTime 	0
scalar IntersectionExampleScenario.node[3].veinsmobility 	startTime 	10.75
scalar IntersectionExampleScenario.node[3].veinsmobility 	totalTime 	54.75
scalar IntersectionExampleScenario.node[3].veinsmobility 	stopTime 	65.75
scalar IntersectionExampleScenario.node[3].veinsmobility 	minSpeed 	0
scalar IntersectionExampleScenario.node[3].veinsmobility 	maxSpeed 	15.25
scalar IntersectionExampleScenario.node[3].veinsmobility 	totalDistance 	562.42748929412
scalar IntersectionExampleScenario.node[3].veinsmobility 	totalCO2Emission 	146.4051496667
scalar IntersectionExampleScenario.node[4].appl 	VehicleRemoved 	0
scalar IntersectionExampleScenario.node[4].appl 	ArrivedAtDest 	1
scalar IntersectionExampleScenario.node[4].appl 	IntersectionEnterTime 	13
scalar IntersectionExampleScenario.node[4].appl 	IntersectionExitTime 	48.551887649519
scalar IntersectionExampleScenario.node[4].appl 	NumberOfCollisions 	0
scalar IntersectionExampleScenario.node[4].nic.phy80211p 	busyTime 	0
scalar IntersectionExampleScenario.node[4].nic.mac1609_4 	ReceivedUnicastPackets 	0
scalar IntersectionExampleScenario.node[4].nic.mac1609_4 	ReceivedBroadcasts 	0
scalar IntersectionExampleScenario.node[4].nic.mac1609_4 	SentPackets 	0
scalar IntersectionExampleScenario.node[4].nic.mac1609_4 	SNIRLostPackets 	0
scalar IntersectionExampleScenario.node[4].nic.mac1609_4 	RXTXLostPackets 	0
scalar IntersectionExampleScenario.node[4].nic.mac1609_4 	TotalLostPackets 	0
scalar IntersectionExampleScenario.node[4].nic.mac1609_4 	DroppedPacketsInMac 	0
scalar IntersectionExampleScenario.node[4].nic.mac1609_4 	TooLittleTime 	0
scalar IntersectionExampleScenario.node[4].nic.mac1609_4 	TimesIntoBackoff 	0
scalar IntersectionExampleScenario.node[4].nic.mac1609_4 	SlotsBackoff 	0
scalar IntersectionExampleScenario.node[4].nic.mac1609_4 	NumInternalContention 	0
scalar IntersectionExampleScenario.node[4].nic.mac1609_4 	totalBusyTime 	0
scalar IntersectionExampleScenario.node[4].veinsmobility 	startTime 	13
scalar IntersectionExampleScenario.node[4].veinsmobility 	totalTime 	52.5
scalar IntersectionExampleScenario.node[4].veinsmobility 	stopTime 	65.75
scalar IntersectionExampleScenario.node[4].veinsmobility 	minSpeed 	0
scalar IntersectionExampleScenario.node[4].veinsmobility 	maxSpeed 	15.25
scalar IntersectionExampleScenario.node[4].veinsmobility 	totalDistance 	543.38603879363
scalar IntersectionExampleScenario.node[4].veinsmobility 	totalCO2Emission 	141.39476551698
scalar IntersectionExampleScenario.node[7].appl 	VehicleRemoved 	0
scalar IntersectionExampleScenario.node[7].appl 	ArrivedAtDest 	1
scalar IntersectionExampleScenario.node[7].appl 	IntersectionEnterTime 	23.25
scalar IntersectionExampleScenario.node[7].appl 	IntersectionExitTime 	51.084047959826
scalar IntersectionExampleScenario.node[7].appl 	NumberOfCollisions 	0
scalar IntersectionExampleScenario.node[7].nic.phy80211p 	busyTime 	0
scalar IntersectionExampleScenario.node[7].nic.mac1609_4 	ReceivedUnicastPackets 	0
scalar IntersectionExampleScenario.node[7].nic.mac1609_4 	ReceivedBroadcasts 	0
scalar IntersectionExampleScenario.node[7].nic.mac1609_4 	SentPackets 	0
scalar IntersectionExampleScenario.node[7].nic.mac1609_4 	SNIRLostPackets 	0
scalar IntersectionExampleScenario.node[7].nic.mac1609_4 	RXTXLostPackets 	0
scalar IntersectionExampleScenario.node[7].nic.mac1609_4 	TotalLostPackets 	0
scalar IntersectionExampleScenario.node[7].nic.mac1609_4 	DroppedPacketsInMac 	0
scalar IntersectionExampleScenario.node[7].nic.mac1609_4 	TooLittleTime 	0
scalar IntersectionExampleScenario.node[7].nic.mac1609_4 	TimesIntoBackoff 	0
scalar IntersectionExampleScenario.node[7].nic.mac1609_4 	SlotsBackoff 	0
scalar IntersectionExampleScenario.node[7].nic.mac1609_4 	NumInternalContention 	0
scalar IntersectionExampleScenario.node[7].nic.mac1609_4 	totalBusyTime 	0
scalar IntersectionExampleScenario.node[7].veinsmobility 	startTime 	23.25
scalar IntersectionExampleScenario.node[7].veinsmobility 	totalTime 	44
scalar IntersectionExampleScenario.node[7].veinsmobility 	stopTime 	67.5
scalar IntersectionExampleScenario.node[7].veinsmobility 	minSpeed 	4.4383883476257
scalar IntersectionExampleScenario.node[7].veinsmobility 	maxSpeed 	15.02499961853
scalar IntersectionExampleScenario.node[7].veinsmobility 	totalDistance 	554.33072662354
scalar IntersectionExampleScenario.node[7].veinsmobility 	totalCO2Emission 	131.15480988309
scalar IntersectionExampleScenario.node[10].appl 	VehicleRemoved 	0
scalar IntersectionExampleScenario.node[10].appl 	ArrivedAtDest 	1
scalar IntersectionExampleScenario.node[10].appl 	IntersectionEnterTime 	33.5
scalar IntersectionExampleScenario.node[10].appl 	IntersectionExitTime 	56.326202958007
scalar IntersectionExampleScenario.node[10].appl 	NumberOfCollisions 	0
scalar IntersectionExampleScenario.node[10].nic.phy80211p 	busyTime 	0
scalar IntersectionExampleScenario.node[10].nic.mac1609_4 	ReceivedUnicastPackets 	0
scalar IntersectionExampleScenario.node[10].nic.mac1609_4 	ReceivedBroadcasts 	0
scalar IntersectionExampleScenario.node[10].nic.mac1609_4 	SentPackets 	0
scalar IntersectionExampleScenario.node[10].nic.mac1609_4 	SNIRLostPackets 	0
scalar IntersectionExampleScenario.node[10].nic.mac1609_4 	RXTXLostPackets 	0
scalar IntersectionExampleScenario.node[10].nic.mac1609_4 	TotalLostPackets 	0
scalar IntersectionExampleScenario.node[10].nic.mac1609_4 	DroppedPacketsInMac 	0
scalar IntersectionExampleScenario.node[10].nic.mac1609_4 	TooLittleTime 	0
scalar IntersectionExampleScenario.node[10].nic.mac1609_4 	TimesIntoBackoff 	0
scalar IntersectionExampleScenario.node[10].nic.mac1609_4 	SlotsBackoff 	0
scalar IntersectionExampleScenario.node[10].nic.mac1609_4 	NumInternalContention 	0
scalar IntersectionExampleScenario.node[10].nic.mac1609_4 	totalBusyTime 	0
scalar IntersectionExampleScenario.node[10].veinsmobility 	startTime 	33.5
scalar IntersectionExampleScenario.node[10].veinsmobility 	totalTime 	38.75
scalar IntersectionExampleScenario.node[10].veinsmobility 	stopTime 	72.5
scalar IntersectionExampleScenario.node[10].veinsmobility 	minSpeed 	5.6500000953674
scalar IntersectionExampleScenario.node[10].veinsmobility 	maxSpeed 	15.773982048035
scalar IntersectionExampleScenario.node[10].veinsmobility 	totalDistance 	550.00254935826
scalar IntersectionExampleScenario.node[10].veinsmobility 	totalCO2Emission 	127.07101646307
scalar IntersectionExampleScenario.node[9].appl 	VehicleRemoved 	0
scalar IntersectionExampleScenario.node[9].appl 	ArrivedAtDest 	1
scalar IntersectionExampleScenario.node[9].appl 	IntersectionEnterTime 	30.25
scalar IntersectionExampleScenario.node[9].appl 	IntersectionExitTime 	64.27813181284
scalar IntersectionExampleScenario.node[9].appl 	NumberOfCollisions 	0
scalar IntersectionExampleScenario.node[9].nic.phy80211p 	busyTime 	0
scalar IntersectionExampleScenario.node[9].nic.mac1609_4 	ReceivedUnicastPackets 	0
scalar IntersectionExampleScenario.node[9].nic.mac1609_4 	ReceivedBroadcasts 	0
scalar IntersectionExampleScenario.node[9].nic.mac1609_4 	SentPackets 	0
scalar IntersectionExampleScenario.node[9].nic.mac1609_4 	SNIRLostPackets 	0
scalar IntersectionExampleScenario.node[9].nic.mac1609_4 	RXTXLostPackets 	0
scalar IntersectionExampleScenario.node[9].nic.mac1609_4 	TotalLostPackets 	0
scalar IntersectionExampleScenario.node[9].nic.mac1609_4 	DroppedPacketsInMac 	0
scalar IntersectionExampleScenario.node[9].nic.mac1609_4 	TooLittleTime 	0
scalar IntersectionExampleScenario.node[9].nic.mac1609_4 	TimesIntoBackoff 	0
scalar IntersectionExampleScenario.node[9].nic.mac1609_4 	SlotsBackoff 	0
scalar IntersectionExampleScenario.node[9].nic.mac1609_4 	NumInternalContention 	0
scalar IntersectionExampleScenario.node[9].nic.mac1609_4 	totalBusyTime 	0
scalar IntersectionExampleScenario.node[9].veinsmobility 	startTime 	30.25
scalar IntersectionExampleScenario.node[9].veinsmobility 	totalTime 	50
scalar IntersectionExampleScenario.node[9].veinsmobility 	stopTime 	80.5
scalar IntersectionExampleScenario.node[9].veinsmobility 	minSpeed 	0
scalar IntersectionExampleScenario.node[9].veinsmobility 	maxSpeed 	15.64999961853
scalar IntersectionExampleScenario.node[9].veinsmobility 	totalDistance 	553.04893493652
scalar IntersectionExampleScenario.node[9].veinsmobility 	totalCO2Emission 	142.85047809001
scalar IntersectionExampleScenario.node[8].appl 	VehicleRemoved 	0
scalar IntersectionExampleScenario.node[8].appl 	ArrivedAtDest 	1
scalar IntersectionExampleScenario.node[8].appl 	IntersectionEnterTime 	26.25
scalar IntersectionExampleScenario.node[8].appl 	IntersectionExitTime 	64.261527126422
scalar IntersectionExampleScenario.node[8].appl 	NumberOfCollisions 	0
scalar IntersectionExampleScenario.node[8].nic.phy80211p 	busyTime 	0
scalar IntersectionExampleScenario.node[8].nic.mac1609_4 	ReceivedUnicastPackets 	0
scalar IntersectionExampleScenario.node[8].nic.mac1609_4 	ReceivedBroadcasts 	0
scalar IntersectionExampleScenario.node[8].nic.mac1609_4 	SentPackets 	0
scalar IntersectionExampleScenario.node[8].nic.mac1609_4 	SNIRLostPackets 	0
scalar IntersectionExampleScenario.node[8].nic.mac1609_4 	RXTXLostPackets 	0
scalar IntersectionExampleScenario.node[8].nic.mac1609_4 	TotalLostPackets 	0
scalar IntersectionExampleScenario.node[8].nic.mac1609_4 	DroppedPacketsInMac 	0
scalar IntersectionExampleScenario.node[8].nic.mac1609_4 	TooLittleTime 	0
scalar IntersectionExampleScenario.node[8].nic.mac1609_4 	TimesIntoBackoff 	0
scalar IntersectionExampleScenario.node[8].nic.mac1609_4 	SlotsBackoff 	0
scalar IntersectionExampleScenario.node[8].nic.mac1609_4 	NumInternalContention 	0
scalar IntersectionExampleScenario.node[8].nic.mac1609_4 	totalBusyTime 	0
scalar IntersectionExampleScenario.node[8].veinsmobility 	startTime 	26.25
scalar IntersectionExampleScenario.node[8].veinsmobility 	totalTime 	54.25
scalar IntersectionExampleScenario.node[8].veinsmobility 	stopTime 	80.75
scalar IntersectionExampleScenario.node[8].veinsmobility 	minSpeed 	0
scalar IntersectionExampleScenario.node[8].veinsmobility 	maxSpeed 	15.375
scalar IntersectionExampleScenario.node[8].veinsmobility 	totalDistance 	553.37906646729
scalar IntersectionExampleScenario.node[8].veinsmobility 	totalCO2Emission 	146.08445966157
scalar IntersectionExampleScenario.node[11].appl 	VehicleRemoved 	0
scalar IntersectionExampleScenario.node[11].appl 	ArrivedAtDest 	1
scalar IntersectionExampleScenario.node[11].appl 	IntersectionEnterTime 	39.75
scalar IntersectionExampleScenario.node[11].appl 	IntersectionExitTime 	66.608884006331
scalar IntersectionExampleScenario.node[11].appl 	NumberOfCollisions 	0
scalar IntersectionExampleScenario.node[11].nic.phy80211p 	busyTime 	0
scalar IntersectionExampleScenario.node[11].nic.mac1609_4 	ReceivedUnicastPackets 	0
scalar IntersectionExampleScenario.node[11].nic.mac1609_4 	ReceivedBroadcasts 	0
scalar IntersectionExampleScenario.node[11].nic.mac1609_4 	SentPackets 	0
scalar IntersectionExampleScenario.node[11].nic.mac1609_4 	SNIRLostPackets 	0
scalar IntersectionExampleScenario.node[11].nic.mac1609_4 	RXTXLostPackets 	0
scalar IntersectionExampleScenario.node[11].nic.mac1609_4 	TotalLostPackets 	0
scalar IntersectionExampleScenario.node[11].nic.mac1609_4 	DroppedPacketsInMac 	0
scalar IntersectionExampleScenario.node[11].nic.mac1609_4 	TooLittleTime 	0
scalar IntersectionExampleScenario.node[11].nic.mac1609_4 	TimesIntoBackoff 	0
scalar IntersectionExampleScenario.node[11].nic.mac1609_4 	SlotsBackoff 	0
scalar IntersectionExampleScenario.node[11].nic.mac1609_4 	NumInternalContention 	0
scalar IntersectionExampleScenario.node[11].nic.mac1609_4 	totalBusyTime 	0
scalar IntersectionExampleScenario.node[11].veinsmobility 	startTime 	39.75
scalar IntersectionExampleScenario.node[11].veinsmobility 	totalTime 	42.75
scalar IntersectionExampleScenario.node[11].veinsmobility 	stopTime 	82.75
scalar IntersectionExampleScenario.node[11].veinsmobility 	minSpeed 	5.178373336792
scalar IntersectionExampleScenario.node[11].veinsmobility 	maxSpeed 	16.5
scalar IntersectionExampleScenario.node[11].veinsmobility 	totalDistance 	543.44045538549
scalar IntersectionExampleScenario.node[11].veinsmobility 	totalCO2Emission 	141.74956730846
scalar IntersectionExampleScenario.node[13].appl 	VehicleRemoved 	0
scalar IntersectionExampleScenario.node[13].appl 	ArrivedAtDest 	1
scalar IntersectionExampleScenario.node[13].appl 	IntersectionEnterTime 	43.25
scalar IntersectionExampleScenario.node[13].appl 	IntersectionExitTime 	67.805737555085
scalar IntersectionExampleScenario.node[13].appl 	NumberOfCollisions 	0
scalar IntersectionExampleScenario.node[13].nic.phy80211p 	busyTime 	0
scalar IntersectionExampleScenario.node[13].nic.mac1609_4 	ReceivedUnicastPackets 	0
scalar IntersectionExampleScenario.node[13].nic.mac1609_4 	ReceivedBroadcasts 	0
scalar IntersectionExampleScenario.node[13].nic.mac1609_4 	SentPackets 	0
scalar IntersectionExampleScenario.node[13].nic.mac1609_4 	SNIRLostPackets 	0
scalar IntersectionExampleScenario.node[13].nic.mac1609_4 	RXTXLostPackets 	0
scalar IntersectionExampleScenario.node[13].nic.mac1609_4 	TotalLostPackets 	0
scalar IntersectionExampleScenario.node[13].nic.mac1609_4 	DroppedPacketsInMac 	0
scalar IntersectionExampleScenario.node[13].nic.mac1609_4 	TooLittleTime 	0
scalar IntersectionExampleScenario.node[13].nic.mac1609_4 	TimesIntoBackoff 	0
scalar IntersectionExampleScenario.node[13].nic.mac1609_4 	SlotsBackoff 	0
scalar IntersectionExampleScenario.node[13].nic.mac1609_4 	NumInternalContention 	0
scalar IntersectionExampleScenario.node[13].nic.mac1609_4 	totalBusyTime 	0
scalar IntersectionExampleScenario.node[13].veinsmobility 	startTime 	43.25
scalar IntersectionExampleScenario.node[13].veinsmobility 	totalTime 	41.25
scalar IntersectionExampleScenario.node[13].veinsmobility 	stopTime 	84.75
scalar IntersectionExampleScenario.node[13].veinsmobility 	minSpeed 	5.6500000953674
scalar IntersectionExampleScenario.node[13].veinsmobility 	maxSpeed 	15.64999961853
scalar IntersectionExampleScenario.node[13].veinsmobility 	totalDistance 	545.12209305222
scalar IntersectionExampleScenario.node[13].veinsmobility 	totalCO2Emission 	140.77517110967
scalar IntersectionExampleScenario.node[15].appl 	VehicleRemoved 	0
scalar IntersectionExampleScenario.node[15].appl 	ArrivedAtDest 	1
scalar IntersectionExampleScenario.node[15].appl 	IntersectionEnterTime 	45.5
scalar IntersectionExampleScenario.node[15].appl 	IntersectionExitTime 	69.817514950177
scalar IntersectionExampleScenario.node[15].appl 	NumberOfCollisions 	0
scalar IntersectionExampleScenario.node[15].nic.phy80211p 	busyTime 	0
scalar IntersectionExampleScenario.node[15].nic.mac1609_4 	ReceivedUnicastPackets 	0
scalar IntersectionExampleScenario.node[15].nic.mac1609_4 	ReceivedBroadcasts 	0
scalar IntersectionExampleScenario.node[15].nic.mac1609_4 	SentPackets 	0
scalar IntersectionExampleScenario.node[15].nic.mac1609_4 	SNIRLostPackets 	0
scalar IntersectionExampleScenario.node[15].nic.mac1609_4 	RXTXLostPackets 	0
scalar IntersectionExampleScenario.node[15].nic.mac1609_4 	TotalLostPackets 	0
scalar IntersectionExampleScenario.node[15].nic.mac1609_4 	DroppedPacketsInMac 	0
scalar IntersectionExampleScenario.node[15].nic.mac1609_4 	TooLittleTime 	0
scalar IntersectionExampleScenario.node[15].nic.mac1609_4 	TimesIntoBackoff 	0
scalar IntersectionExampleScenario.node[15].nic.mac1609_4 	SlotsBackoff 	0
scalar IntersectionExampleScenario.node[15].nic.mac1609_4 	NumInternalContention 	0
scalar IntersectionExampleScenario.node[15].nic.mac1609_4 	totalBusyTime 	0
scalar IntersectionExampleScenario.node[15].veinsmobility 	startTime 	45.5
scalar IntersectionExampleScenario.node[15].veinsmobility 	totalTime 	40.5
scalar IntersectionExampleScenario.node[15].veinsmobility 	stopTime 	86.25
scalar IntersectionExampleScenario.node[15].veinsmobility 	minSpeed 	5.6500000953674
scalar IntersectionExampleScenario.node[15].veinsmobility 	maxSpeed 	15.890860557556
scalar IntersectionExampleScenario.node[15].veinsmobility 	totalDistance 	549.17527394845
scalar IntersectionExampleScenario.node[15].veinsmobility 	totalCO2Emission 	138.86425432632
scalar IntersectionExampleScenario.node[14].appl 	VehicleRemoved 	0
scalar IntersectionExampleScenario.node[14].appl 	ArrivedAtDest 	1
scalar IntersectionExampleScenario.node[14].appl 	IntersectionEnterTime 	44.25
scalar IntersectionExampleScenario.node[14].appl 	IntersectionExitTime 	72.351045279123
scalar IntersectionExampleScenario.node[14].appl 	NumberOfCollisions 	0
scalar IntersectionExampleScenario.node[14].nic.phy80211p 	busyTime 	0
scalar IntersectionExampleScenario.node[14].nic.mac1609_4 	ReceivedUnicastPackets 	0
scalar IntersectionExampleScenario.node[14].nic.mac1609_4 	ReceivedBroadcasts 	0
scalar IntersectionExampleScenario.node[14].nic.mac1609_4 	SentPackets 	0
scalar IntersectionExampleScenario.node[14].nic.mac1609_4 	SNIRLostPackets 	0
scalar IntersectionExampleScenario.node[14].nic.mac1609_4 	RXTXLostPackets 	0
scalar IntersectionExampleScenario.node[14].nic.mac1609_4 	TotalLostPackets 	0
scalar IntersectionExampleScenario.node[14].nic.mac1609_4 	DroppedPacketsInMac 	0
scalar IntersectionExampleScenario.node[14].nic.mac1609_4 	TooLittleTime 	0
scalar IntersectionExampleScenario.node[14].nic.mac1609_4 	TimesIntoBackoff 	0
scalar IntersectionExampleScenario.node[14].nic.mac1609_4 	SlotsBackoff 	0
scalar IntersectionExampleScenario.node[14].nic.mac1609_4 	NumInternalContention 	0
scalar IntersectionExampleScenario.node[14].nic.mac1609_4 	totalBusyTime 	0
scalar IntersectionExampleScenario.node[14].veinsmobility 	startTime 	44.25
scalar IntersectionExampleScenario.node[14].veinsmobility 	totalTime 	44.75
scalar IntersectionExampleScenario.node[14].veinsmobility 	stopTime 	89.25
scalar IntersectionExampleScenario.node[14].veinsmobility 	minSpeed 	0
scalar IntersectionExampleScenario.node[14].veinsmobility 	maxSpeed 	15.64999961853
scalar IntersectionExampleScenario.node[14].veinsmobility 	totalDistance 	566.64315309517
scalar IntersectionExampleScenario.node[14].veinsmobility 	totalCO2Emission 	140.10017874024
scalar IntersectionExampleScenario.node[19].appl 	VehicleRemoved 	0
scalar IntersectionExampleScenario.node[19].appl 	ArrivedAtDest 	1
scalar IntersectionExampleScenario.node[19].appl 	IntersectionEnterTime 	53.25
scalar IntersectionExampleScenario.node[19].appl 	IntersectionExitTime 	75.623787648568
scalar IntersectionExampleScenario.node[19].appl 	NumberOfCollisions 	0
scalar IntersectionExampleScenario.node[19].nic.phy80211p 	busyTime 	0
scalar IntersectionExampleScenario.node[19].nic.mac1609_4 	ReceivedUnicastPackets 	0
scalar IntersectionExampleScenario.node[19].nic.mac1609_4 	ReceivedBroadcasts 	0
scalar IntersectionExampleScenario.node[19].nic.mac1609_4 	SentPackets 	0
scalar IntersectionExampleScenario.node[19].nic.mac1609_4 	SNIRLostPackets 	0
scalar IntersectionExampleScenario.node[19].nic.mac1609_4 	RXTXLostPackets 	0
scalar IntersectionExampleScenario.node[19].nic.mac1609_4 	TotalLostPackets 	0
scalar IntersectionExampleScenario.node[19].nic.mac1609_4 	DroppedPacketsInMac 	0
scalar IntersectionExampleScenario.node[19].nic.mac1609_4 	TooLittleTime 	0
scalar IntersectionExampleScenario.node[19].nic.mac1609_4 	TimesIntoBackoff 	0
scalar IntersectionExampleScenario.node[19].nic.mac1609_4 	SlotsBackoff 	0
scalar IntersectionExampleScenario.node[19].nic.mac1609_4 	NumInternalContention 	0
scalar IntersectionExampleScenario.node[19].nic.mac1609_4 	totalBusyTime 	0
scalar IntersectionExampleScenario.node[19].veinsmobility 	startTime 	53.25
scalar IntersectionExampleScenario.node[19].veinsmobility 	totalTime 	37.5
scalar IntersectionExampleScenario.node[19].veinsmobility 	stopTime 	91
scalar IntersectionExampleScenario.node[19].veinsmobility 	minSpeed 	5.6500000953674
scalar IntersectionExampleScenario.node[19].veinsmobility 	maxSpeed 	16.27499961853
scalar IntersectionExampleScenario.node[19].veinsmobility 	totalDistance 	554.01829528809
scalar IntersectionExampleScenario.node[19].veinsmobility 	totalCO2Emission 	125.99245622019
scalar IntersectionExampleScenario.node[16].appl 	VehicleRemoved 	0
scalar IntersectionExampleScenario.node[16].appl 	ArrivedAtDest 	1
scalar IntersectionExampleScenario.node[16].appl 	IntersectionEnterTime 	46.75
scalar IntersectionExampleScenario.node[16].appl 	IntersectionExitTime 	79.287782951695
scalar IntersectionExampleScenario.node[16].appl 	NumberOfCollisions 	0
scalar IntersectionExampleScenario.node[16].nic.phy80211p 	busyTime 	0
scalar IntersectionExampleScenario.node[16].nic.mac1609_4 	ReceivedUnicastPackets 	0
scalar IntersectionExampleScenario.node[16].nic.mac1609_4 	ReceivedBroadcasts 	0
scalar IntersectionExampleScenario.node[16].nic.mac1609_4 	SentPackets 	0
scalar IntersectionExampleScenario.node[16].nic.mac1609_4 	SNIRLostPackets 	0
scalar IntersectionExampleScenario.node[16].nic.mac1609_4 	RXTXLostPackets 	0
scalar IntersectionExampleScenario.node[16].nic.mac1609_4 	TotalLostPackets 	0
scalar IntersectionExampleScenario.node[16].nic.mac1609_4 	DroppedPacketsInMac 	0
scalar IntersectionExampleScenario.node[16].nic.mac1609_4 	TooLittleTime 	0
scalar IntersectionExampleScenario.node[16].nic.mac1609_4 	TimesIntoBackoff 	0
scalar IntersectionExampleScenario.node[16].nic.mac1609_4 	SlotsBackoff 	0
scalar IntersectionExampleScenario.node[16].nic.mac1609_4 	NumInternalContention 	0
scalar IntersectionExampleScenario.node[16].nic.mac1609_4 	totalBusyTime 	0
scalar IntersectionExampleScenario.node[16].veinsmobility 	startTime 	46.75
scalar IntersectionExampleScenario.node[16].veinsmobility 	totalTime 	48.75
scalar IntersectionExampleScenario.node[16].veinsmobility 	stopTime 	95.75
scalar IntersectionExampleScenario.node[16].veinsmobility 	minSpeed 	0
scalar IntersectionExampleScenario.node[16].veinsmobility 	maxSpeed 	15.375
scalar IntersectionExampleScenario.node[16].veinsmobility 	totalDistance 	551.64488220215
scalar IntersectionExampleScenario.node[16].veinsmobility 	totalCO2Emission 	138.64293353381
scalar IntersectionExampleScenario.node[12].appl 	VehicleRemoved 	0
scalar IntersectionExampleScenario.node[12].appl 	ArrivedAtDest 	1
scalar IntersectionExampleScenario.node[12].appl 	IntersectionEnterTime 	42
scalar IntersectionExampleScenario.node[12].appl 	IntersectionExitTime 	79.345072311291
scalar IntersectionExampleScenario.node[12].appl 	NumberOfCollisions 	0
scalar IntersectionExampleScenario.node[12].nic.phy80211p 	busyTime 	0
scalar IntersectionExampleScenario.node[12].nic.mac1609_4 	ReceivedUnicastPackets 	0
scalar IntersectionExampleScenario.node[12].nic.mac1609_4 	ReceivedBroadcasts 	0
scalar IntersectionExampleScenario.node[12].nic.mac1609_4 	SentPackets 	0
scalar IntersectionExampleScenario.node[12].nic.mac1609_4 	SNIRLostPackets 	0
scalar IntersectionExampleScenario.node[12].nic.mac1609_4 	RXTXLostPackets 	0
scalar IntersectionExampleScenario.node[12].nic.mac1609_4 	TotalLostPackets 	0
scalar IntersectionExampleScenario.node[12].nic.mac1609_4 	DroppedPacketsInMac 	0
scalar IntersectionExampleScenario.node[12].nic.mac1609_4 	TooLittleTime 	0
scalar IntersectionExampleScenario.node[12].nic.mac1609_4 	TimesIntoBackoff 	0
scalar IntersectionExampleScenario.node[12].nic.mac1609_4 	SlotsBackoff 	0
scalar IntersectionExampleScenario.node[12].nic.mac1609_4 	NumInternalContention 	0
scalar IntersectionExampleScenario.node[12].nic.mac1609_4 	totalBusyTime 	0
scalar IntersectionExampleScenario.node[12].veinsmobility 	startTime 	42
scalar IntersectionExampleScenario.node[12].veinsmobility 	totalTime 	53.5
scalar IntersectionExampleScenario.node[12].veinsmobility 	stopTime 	95.75
scalar IntersectionExampleScenario.node[12].veinsmobility 	minSpeed 	0
scalar IntersectionExampleScenario.node[12].veinsmobility 	maxSpeed 	15.375
scalar IntersectionExampleScenario.node[12].veinsmobility 	totalDistance 	548.74360765567
scalar IntersectionExampleScenario.node[12].veinsmobility 	totalCO2Emission 	143.06552183564
scalar IntersectionExampleScenario.node[17].appl 	VehicleRemoved 	0
scalar IntersectionExampleScenario.node[17].appl 	ArrivedAtDest 	1
scalar IntersectionExampleScenario.node[17].appl 	IntersectionEnterTime 	47.5
scalar IntersectionExampleScenario.node[17].appl 	IntersectionExitTime 	80.560305725317
scalar IntersectionExampleScenario.node[17].appl 	NumberOfCollisions 	0
scalar IntersectionExampleScenario.node[17].nic.phy80211p 	busyTime 	0
scalar IntersectionExampleScenario.node[17].nic.mac1609_4 	ReceivedUnicastPackets 	0
scalar IntersectionExampleScenario.node[17].nic.mac1609_4 	ReceivedBroadcasts 	0
scalar IntersectionExampleScenario.node[17].nic.mac1609_4 	SentPackets 	0
scalar IntersectionExampleScenario.node[17].nic.mac1609_4 	SNIRLostPackets 	0
scalar IntersectionExampleScenario.node[17].nic.mac1609_4 	RXTXLostPackets 	0
scalar IntersectionExampleScenario.node[17].nic.mac1609_4 	TotalLostPackets 	0
scalar IntersectionExampleScenario.node[17].nic.mac1609_4 	DroppedPacketsInMac 	0
scalar IntersectionExampleScenario.node[17].nic.mac1609_4 	TooLittleTime 	0
scalar IntersectionExampleScenario.node[17].nic.mac1609_4 	TimesIntoBackoff 	0
scalar IntersectionExampleScenario.node[17].nic.mac1609_4 	SlotsBackoff 	0
scalar IntersectionExampleScenario.node[17].nic.mac1609_4 	NumInternalContention 	0
scalar IntersectionExampleScenario.node[17].nic.mac1609_4 	totalBusyTime 	0
scalar IntersectionExampleScenario.node[17].veinsmobility 	startTime 	47.5
scalar IntersectionExampleScenario.node[17].veinsmobility 	totalTime 	50.25
scalar IntersectionExampleScenario.node[17].veinsmobility 	stopTime 	98
scalar IntersectionExampleScenario.node[17].veinsmobility 	minSpeed 	0
scalar IntersectionExampleScenario.node[17].veinsmobility 	maxSpeed 	15.076906204224
scalar IntersectionExampleScenario.node[17].veinsmobility 	totalDistance 	566.14982100779
scalar IntersectionExampleScenario.node[17].veinsmobility 	totalCO2Emission 	139.86787242022
scalar IntersectionExampleScenario.node[18].appl 	VehicleRemoved 	0
scalar IntersectionExampleScenario.node[18].appl 	ArrivedAtDest 	1
scalar IntersectionExampleScenario.node[18].appl 	IntersectionEnterTime 	48
scalar IntersectionExampleScenario.node[18].appl 	IntersectionExitTime 	82.775870766956
scalar IntersectionExampleScenario.node[18].appl 	NumberOfCollisions 	0
scalar IntersectionExampleScenario.node[18].nic.phy80211p 	busyTime 	0
scalar IntersectionExampleScenario.node[18].nic.mac1609_4 	ReceivedUnicastPackets 	0
scalar IntersectionExampleScenario.node[18].nic.mac1609_4 	ReceivedBroadcasts 	0
scalar IntersectionExampleScenario.node[18].nic.mac1609_4 	SentPackets 	0
scalar IntersectionExampleScenario.node[18].nic.mac1609_4 	SNIRLostPackets 	0
scalar IntersectionExampleScenario.node[18].nic.mac1609_4 	RXTXLostPackets 	0
scalar IntersectionExampleScenario.node[18].nic.mac1609_4 	TotalLostPackets 	0
scalar IntersectionExampleScenario.node[18].nic.mac1609_4 	DroppedPacketsInMac 	0
scalar IntersectionExampleScenario.node[18].nic.mac1609_4 	TooLittleTime 	0
scalar IntersectionExampleScenario.node[18].nic.mac1609_4 	TimesIntoBackoff 	0
scalar IntersectionExampleScenario.node[18].nic.mac1609_4 	SlotsBackoff 	0
scalar IntersectionExampleScenario.node[18].nic.mac1609_4 	NumInternalContention 	0
scalar IntersectionExampleScenario.node[18].nic.mac1609_4 	totalBusyTime 	0
scalar IntersectionExampleScenario.node[18].veinsmobility 	startTime 	48
scalar IntersectionExampleScenario.node[18].veinsmobility 	totalTime 	52.25
scalar IntersectionExampleScenario.node[18].veinsmobility 	stopTime 	100.5
scalar IntersectionExampleScenario.node[18].veinsmobility 	minSpeed 	0.30111277103424
scalar IntersectionExampleScenario.node[18].veinsmobility 	maxSpeed 	14.39999961853
scalar IntersectionExampleScenario.node[18].veinsmobility 	totalDistance 	549.77195804016
scalar IntersectionExampleScenario.node[18].veinsmobility 	totalCO2Emission 	134.04118461657
scalar IntersectionExampleScenario.node[21].appl 	VehicleRemoved 	0
scalar IntersectionExampleScenario.node[21].appl 	ArrivedAtDest 	1
scalar IntersectionExampleScenario.node[21].appl 	IntersectionEnterTime 	59.5
scalar IntersectionExampleScenario.node[21].appl 	IntersectionExitTime 	93.588397575339
scalar IntersectionExampleScenario.node[21].appl 	NumberOfCollisions 	0
scalar IntersectionExampleScenario.node[21].nic.phy80211p 	busyTime 	0
scalar IntersectionExampleScenario.node[21].nic.mac1609_4 	ReceivedUnicastPackets 	0
scalar IntersectionExampleScenario.node[21].nic.mac1609_4 	ReceivedBroadcasts 	0
scalar IntersectionExampleScenario.node[21].nic.mac1609_4 	SentPackets 	0
scalar IntersectionExampleScenario.node[21].nic.mac1609_4 	SNIRLostPackets 	0
scalar IntersectionExampleScenario.node[21].nic.mac1609_4 	RXTXLostPackets 	0
scalar IntersectionExampleScenario.node[21].nic.mac1609_4 	TotalLostPackets 	0
scalar IntersectionExampleScenario.node[21].nic.mac1609_4 	DroppedPacketsInMac 	0
scalar IntersectionExampleScenario.node[21].nic.mac1609_4 	TooLittleTime 	0
scalar IntersectionExampleScenario.node[21].nic.mac1609_4 	TimesIntoBackoff 	0
scalar IntersectionExampleScenario.node[21].nic.mac1609_4 	SlotsBackoff 	0
scalar IntersectionExampleScenario.node[21].nic.mac1609_4 	NumInternalContention 	0
scalar IntersectionExampleScenario.node[21].nic.mac1609_4 	totalBusyTime 	0
scalar IntersectionExampleScenario.node[21].veinsmobility 	startTime 	59.5
scalar IntersectionExampleScenario.node[21].veinsmobility 	totalTime 	50.5
scalar IntersectionExampleScenario.node[21].veinsmobility 	stopTime 	110.25
scalar IntersectionExampleScenario.node[21].veinsmobility 	minSpeed 	0
scalar IntersectionExampleScenario.node[21].veinsmobility 	maxSpeed 	16.064094543457
scalar IntersectionExampleScenario.node[21].veinsmobility 	totalDistance 	545.84717465789
scalar IntersectionExampleScenario.node[21].veinsmobility 	totalCO2Emission 	151.18937073637
scalar IntersectionExampleScenario.node[20].appl 	VehicleRemoved 	0
scalar IntersectionExampleScenario.node[20].appl 	ArrivedAtDest 	1
scalar IntersectionExampleScenario.node[20].appl 	IntersectionEnterTime 	58.25
scalar IntersectionExampleScenario.node[20].appl 	IntersectionExitTime 	93.523476853123
scalar IntersectionExampleScenario.node[20].appl 	NumberOfCollisions 	0
scalar IntersectionExampleScenario.node[20].nic.phy80211p 	busyTime 	0
scalar IntersectionExampleScenario.node[20].nic.mac1609_4 	ReceivedUnicastPackets 	0
scalar IntersectionExampleScenario.node[20].nic.mac1609_4 	ReceivedBroadcasts 	0
scalar IntersectionExampleScenario.node[20].nic.mac1609_4 	SentPackets 	0
scalar IntersectionExampleScenario.node[20].nic.mac1609_4 	SNIRLostPackets 	0
scalar IntersectionExampleScenario.node[20].nic.mac1609_4 	RXTXLostPackets 	0
scalar IntersectionExampleScenario.node[20].nic.mac1609_4 	TotalLostPackets 	0
scalar IntersectionExampleScenario.node[20].nic.mac1609_4 	DroppedPacketsInMac 	0
scalar IntersectionExampleScenario.node[20].nic.mac1609_4 	TooLittleTime 	0
scalar IntersectionExampleScenario.node[20].nic.mac1609_4 	TimesIntoBackoff 	0
scalar IntersectionExampleScenario.node[20].nic.mac1609_4 	SlotsBackoff 	0
scalar IntersectionExampleScenario.node[20].nic.mac1609_4 	NumInternalContention 	0
scalar IntersectionExampleScenario.node[20].nic.mac1609_4 	totalBusyTime 	0
scalar IntersectionExampleScenario.node[20].veinsmobility 	startTime 	58.25
scalar IntersectionExampleScenario.node[20].veinsmobility 	totalTime 	52.25
scalar IntersectionExampleScenario.node[20].veinsmobility 	stopTime 	110.75
scalar IntersectionExampleScenario.node[20].veinsmobility 	minSpeed 	0
scalar IntersectionExampleScenario.node[20].veinsmobility 	maxSpeed 	15.25
scalar IntersectionExampleScenario.node[20].veinsmobility 	totalDistance 	544.46377469451
scalar IntersectionExampleScenario.node[20].veinsmobility 	totalCO2Emission 	141.64799564102
scalar IntersectionExampleScenario.node[22].appl 	VehicleRemoved 	0
scalar IntersectionExampleScenario.node[22].appl 	ArrivedAtDest 	1
scalar IntersectionExampleScenario.node[22].appl 	IntersectionEnterTime 	63.5
scalar IntersectionExampleScenario.node[22].appl 	IntersectionExitTime 	95.590789937269
scalar IntersectionExampleScenario.node[22].appl 	NumberOfCollisions 	0
scalar IntersectionExampleScenario.node[22].nic.phy80211p 	busyTime 	0
scalar IntersectionExampleScenario.node[22].nic.mac1609_4 	ReceivedUnicastPackets 	0
scalar IntersectionExampleScenario.node[22].nic.mac1609_4 	ReceivedBroadcasts 	0
scalar IntersectionExampleScenario.node[22].nic.mac1609_4 	SentPackets 	0
scalar IntersectionExampleScenario.node[22].nic.mac1609_4 	SNIRLostPackets 	0
scalar IntersectionExampleScenario.node[22].nic.mac1609_4 	RXTXLostPackets 	0
scalar IntersectionExampleScenario.node[22].nic.mac1609_4 	TotalLostPackets 	0
scalar IntersectionExampleScenario.node[22].nic.mac1609_4 	DroppedPacketsInMac 	0
scalar IntersectionExampleScenario.node[22].nic.mac1609_4 	TooLittleTime 	0
scalar IntersectionExampleScenario.node[22].nic.mac1609_4 	TimesIntoBackoff 	0
scalar IntersectionExampleScenario.node[22].nic.mac1609_4 	SlotsBackoff 	0
scalar IntersectionExampleScenario.node[22].nic.mac1609_4 	NumInternalContention 	0
scalar IntersectionExampleScenario.node[22].nic.mac1609_4 	totalBusyTime 	0
scalar IntersectionExampleScenario.node[22].veinsmobility 	startTime 	63.5
scalar IntersectionExampleScenario.node[22].veinsmobility 	totalTime 	47.25
scalar IntersectionExampleScenario.node[22].veinsmobility 	stopTime 	111
scalar IntersectionExampleScenario.node[22].veinsmobility 	minSpeed 	0
scalar IntersectionExampleScenario.node[22].veinsmobility 	maxSpeed 	16.125
scalar IntersectionExampleScenario.node[22].veinsmobility 	totalDistance 	558.89961242676
scalar IntersectionExampleScenario.node[22].veinsmobility 	totalCO2Emission 	144.79900356427
scalar IntersectionExampleScenario.node[23].appl 	VehicleRemoved 	0
scalar IntersectionExampleScenario.node[23].appl 	ArrivedAtDest 	1
scalar IntersectionExampleScenario.node[23].appl 	IntersectionEnterTime 	75
scalar IntersectionExampleScenario.node[23].appl 	IntersectionExitTime 	98.832540737814
scalar IntersectionExampleScenario.node[23].appl 	NumberOfCollisions 	0
scalar IntersectionExampleScenario.node[23].nic.phy80211p 	busyTime 	0
scalar IntersectionExampleScenario.node[23].nic.mac1609_4 	ReceivedUnicastPackets 	0
scalar IntersectionExampleScenario.node[23].nic.mac1609_4 	ReceivedBroadcasts 	0
scalar IntersectionExampleScenario.node[23].nic.mac1609_4 	SentPackets 	0
scalar IntersectionExampleScenario.node[23].nic.mac1609_4 	SNIRLostPackets 	0
scalar IntersectionExampleScenario.node[23].nic.mac1609_4 	RXTXLostPackets 	0
scalar IntersectionExampleScenario.node[23].nic.mac1609_4 	TotalLostPackets 	0
scalar IntersectionExampleScenario.node[23].nic.mac1609_4 	DroppedPacketsInMac 	0
scalar IntersectionExampleScenario.node[23].nic.mac1609_4 	TooLittleTime 	0
scalar IntersectionExampleScenario.node[23].nic.mac1609_4 	TimesIntoBackoff 	0
scalar IntersectionExampleScenario.node[23].nic.mac1609_4 	SlotsBackoff 	0
scalar IntersectionExampleScenario.node[23].nic.mac1609_4 	NumInternalContention 	0
scalar IntersectionExampleScenario.node[23].nic.mac1609_4 	totalBusyTime 	0
scalar IntersectionExampleScenario.node[23].veinsmobility 	startTime 	75
scalar IntersectionExampleScenario.node[23].veinsmobility 	totalTime 	40.5
scalar IntersectionExampleScenario.node[23].veinsmobility 	stopTime 	115.75
scalar IntersectionExampleScenario.node[23].veinsmobility 	minSpeed 	5.6500000953674
scalar IntersectionExampleScenario.node[23].veinsmobility 	maxSpeed 	15.64999961853
scalar IntersectionExampleScenario.node[23].veinsmobility 	totalDistance 	545.28238801877
scalar IntersectionExampleScenario.node[23].veinsmobility 	totalCO2Emission 	134.23605491312
scalar IntersectionExampleScenario.node[24].appl 	VehicleRemoved 	0
scalar IntersectionExampleScenario.node[24].appl 	ArrivedAtDest 	1
scalar IntersectionExampleScenario.node[24].appl 	IntersectionEnterTime 	77.75
scalar IntersectionExampleScenario.node[24].appl 	IntersectionExitTime 	101.06910557172
scalar IntersectionExampleScenario.node[24].appl 	NumberOfCollisions 	0
scalar IntersectionExampleScenario.node[24].nic.phy80211p 	busyTime 	0
scalar IntersectionExampleScenario.node[24].nic.mac1609_4 	ReceivedUnicastPackets 	0
scalar IntersectionExampleScenario.node[24].nic.mac1609_4 	ReceivedBroadcasts 	0
scalar IntersectionExampleScenario.node[24].nic.mac1609_4 	SentPackets 	0
scalar IntersectionExampleScenario.node[24].nic.mac1609_4 	SNIRLostPackets 	0
scalar IntersectionExampleScenario.node[24].nic.mac1609_4 	RXTXLostPackets 	0
scalar IntersectionExampleScenario.node[24].nic.mac1609_4 	TotalLostPackets 	0
scalar IntersectionExampleScenario.node[24].nic.mac1609_4 	DroppedPacketsInMac 	0
scalar IntersectionExampleScenario.node[24].nic.mac1609_4 	TooLittleTime 	0
scalar IntersectionExampleScenario.node[24].nic.mac1609_4 	TimesIntoBackoff 	0
scalar IntersectionExampleScenario.node[24].nic.mac1609_4 	SlotsBackoff 	0
scalar IntersectionExampleScenario.node[24].nic.mac1609_4 	NumInternalContention 	0
scalar IntersectionExampleScenario.node[24].nic.mac1609_4 	totalBusyTime 	0
scalar IntersectionExampleScenario.node[24].veinsmobility 	startTime 	77.75
scalar IntersectionExampleScenario.node[24].veinsmobility 	totalTime 	40
scalar IntersectionExampleScenario.node[24].veinsmobility 	stopTime 	118
scalar IntersectionExampleScenario.node[24].veinsmobility 	minSpeed 	5.6500000953674
scalar IntersectionExampleScenario.node[24].veinsmobility 	maxSpeed 	15.875
scalar IntersectionExampleScenario.node[24].veinsmobility 	totalDistance 	545.62874100726
scalar IntersectionExampleScenario.node[24].veinsmobility 	totalCO2Emission 	127.12384671915
scalar IntersectionExampleScenario.node[25].appl 	VehicleRemoved 	0
scalar IntersectionExampleScenario.node[25].appl 	ArrivedAtDest 	1
scalar IntersectionExampleScenario.node[25].appl 	IntersectionEnterTime 	78.5
scalar IntersectionExampleScenario.node[25].appl 	IntersectionExitTime 	102.84811708741
scalar IntersectionExampleScenario.node[25].appl 	NumberOfCollisions 	0
scalar IntersectionExampleScenario.node[25].nic.phy80211p 	busyTime 	0
scalar IntersectionExampleScenario.node[25].nic.mac1609_4 	ReceivedUnicastPackets 	0
scalar IntersectionExampleScenario.node[25].nic.mac1609_4 	ReceivedBroadcasts 	0
scalar IntersectionExampleScenario.node[25].nic.mac1609_4 	SentPackets 	0
scalar IntersectionExampleScenario.node[25].nic.mac1609_4 	SNIRLostPackets 	0
scalar IntersectionExampleScenario.node[25].nic.mac1609_4 	RXTXLostPackets 	0
scalar IntersectionExampleScenario.node[25].nic.mac1609_4 	TotalLostPackets 	0
scalar IntersectionExampleScenario.node[25].nic.mac1609_4 	DroppedPacketsInMac 	0
scalar IntersectionExampleScenario.node[25].nic.mac1609_4 	TooLittleTime 	0
scalar IntersectionExampleScenario.node[25].nic.mac1609_4 	TimesIntoBackoff 	0
scalar IntersectionExampleScenario.node[25].nic.mac1609_4 	SlotsBackoff 	0
scalar IntersectionExampleScenario.node[25].nic.mac1609_4 	NumInternalContention 	0
scalar IntersectionExampleScenario.node[25].nic.mac1609_4 	totalBusyTime 	0
scalar IntersectionExampleScenario.node[25].veinsmobility 	startTime 	78.5
scalar IntersectionExampleScenario.node[25].veinsmobility 	totalTime 	40.75
scalar IntersectionExampleScenario.node[25].veinsmobility 	stopTime 	119.5
scalar IntersectionExampleScenario.node[25].veinsmobility 	minSpeed 	5.6500000953674
scalar IntersectionExampleScenario.node[25].veinsmobility 	maxSpeed 	15.64999961853
scalar IntersectionExampleScenario.node[25].veinsmobility 	totalDistance 	552.80561697917
scalar IntersectionExampleScenario.node[25].veinsmobility 	totalCO2Emission 	126.2705888884
scalar IntersectionExampleScenario.node[26].appl 	VehicleRemoved 	0
scalar IntersectionExampleScenario.node[26].appl 	ArrivedAtDest 	1
scalar IntersectionExampleScenario.node[26].appl 	IntersectionEnterTime 	78.5
scalar IntersectionExampleScenario.node[26].appl 	IntersectionExitTime 	104.51122385845
scalar IntersectionExampleScenario.node[26].appl 	NumberOfCollisions 	0
scalar IntersectionExampleScenario.node[26].nic.phy80211p 	busyTime 	0
scalar IntersectionExampleScenario.node[26].nic.mac1609_4 	ReceivedUnicastPackets 	0
scalar IntersectionExampleScenario.node[26].nic.mac1609_4 	ReceivedBroadcasts 	0
scalar IntersectionExampleScenario.node[26].nic.mac1609_4 	SentPackets 	0
scalar IntersectionExampleScenario.node[26].nic.mac1609_4 	SNIRLostPackets 	0
scalar IntersectionExampleScenario.node[26].nic.mac1609_4 	RXTXLostPackets 	0
scalar IntersectionExampleScenario.node[26].nic.mac1609_4 	TotalLostPackets 	0
scalar IntersectionExampleScenario.node[26].nic.mac1609_4 	DroppedPacketsInMac 	0
scalar IntersectionExampleScenario.node[26].nic.mac1609_4 	TooLittleTime 	0
scalar IntersectionExampleScenario.node[26].nic.mac1609_4 	TimesIntoBackoff 	0
scalar IntersectionExampleScenario.node[26].nic.mac1609_4 	SlotsBackoff 	0
scalar IntersectionExampleScenario.node[26].nic.mac1609_4 	NumInternalContention 	0
scalar IntersectionExampleScenario.node[26].nic.mac1609_4 	totalBusyTime 	0
scalar IntersectionExampleScenario.node[26].veinsmobility 	startTime 	78.5
scalar IntersectionExampleScenario.node[26].veinsmobility 	totalTime 	43
scalar IntersectionExampleScenario.node[26].veinsmobility 	stopTime 	121.75
scalar IntersectionExampleScenario.node[26].veinsmobility 	minSpeed 	5.6500000953674
scalar IntersectionExampleScenario.node[26].veinsmobility 	maxSpeed 	15.422836303711
scalar IntersectionExampleScenario.node[26].veinsmobility 	totalDistance 	572.95106481608
scalar IntersectionExampleScenario.node[26].veinsmobility 	totalCO2Emission 	136.06398285604
scalar IntersectionExampleScenario.node[27].appl 	VehicleRemoved 	0
scalar IntersectionExampleScenario.node[27].appl 	ArrivedAtDest 	1
scalar IntersectionExampleScenario.node[27].appl 	IntersectionEnterTime 	79.25
scalar IntersectionExampleScenario.node[27].appl 	IntersectionExitTime 	108.81063677793
scalar IntersectionExampleScenario.node[27].appl 	NumberOfCollisions 	0
scalar IntersectionExampleScenario.node[27].nic.phy80211p 	busyTime 	0
scalar IntersectionExampleScenario.node[27].nic.mac1609_4 	ReceivedUnicastPackets 	0
scalar IntersectionExampleScenario.node[27].nic.mac1609_4 	ReceivedBroadcasts 	0
scalar IntersectionExampleScenario.node[27].nic.mac1609_4 	SentPackets 	0
scalar IntersectionExampleScenario.node[27].nic.mac1609_4 	SNIRLostPackets 	0
scalar IntersectionExampleScenario.node[27].nic.mac1609_4 	RXTXLostPackets 	0
scalar IntersectionExampleScenario.node[27].nic.mac1609_4 	TotalLostPackets 	0
scalar IntersectionExampleScenario.node[27].nic.mac1609_4 	DroppedPacketsInMac 	0
scalar IntersectionExampleScenario.node[27].nic.mac1609_4 	TooLittleTime 	0
scalar IntersectionExampleScenario.node[27].nic.mac1609_4 	TimesIntoBackoff 	0
scalar IntersectionExampleScenario.node[27].nic.mac1609_4 	SlotsBackoff 	0
scalar IntersectionExampleScenario.node[27].nic.mac1609_4 	NumInternalContention 	0
scalar IntersectionExampleScenario.node[27].nic.mac1609_4 	totalBusyTime 	0
scalar IntersectionExampleScenario.node[27].veinsmobility 	startTime 	79.25
scalar IntersectionExampleScenario.node[27].veinsmobility 	totalTime 	45.75
scalar IntersectionExampleScenario.node[27].veinsmobility 	stopTime 	125.25
scalar IntersectionExampleScenario.node[27].veinsmobility 	minSpeed 	0
scalar IntersectionExampleScenario.node[27].veinsmobility 	maxSpeed 	15.64999961853
scalar IntersectionExampleScenario.node[27].veinsmobility 	totalDistance 	549.27567415666
scalar IntersectionExampleScenario.node[27].veinsmobility 	totalCO2Emission 	137.37122393014
scalar IntersectionExampleScenario.node[28].appl 	VehicleRemoved 	0
scalar IntersectionExampleScenario.node[28].appl 	ArrivedAtDest 	1
scalar IntersectionExampleScenario.node[28].appl 	IntersectionEnterTime 	83.25
scalar IntersectionExampleScenario.node[28].appl 	IntersectionExitTime 	108.50920295808
scalar IntersectionExampleScenario.node[28].appl 	NumberOfCollisions 	0
scalar IntersectionExampleScenario.node[28].nic.phy80211p 	busyTime 	0
scalar IntersectionExampleScenario.node[28].nic.mac1609_4 	ReceivedUnicastPackets 	0
scalar IntersectionExampleScenario.node[28].nic.mac1609_4 	ReceivedBroadcasts 	0
scalar IntersectionExampleScenario.node[28].nic.mac1609_4 	SentPackets 	0
scalar IntersectionExampleScenario.node[28].nic.mac1609_4 	SNIRLostPackets 	0
scalar IntersectionExampleScenario.node[28].nic.mac1609_4 	RXTXLostPackets 	0
scalar IntersectionExampleScenario.node[28].nic.mac1609_4 	TotalLostPackets 	0
scalar IntersectionExampleScenario.node[28].nic.mac1609_4 	DroppedPacketsInMac 	0
scalar IntersectionExampleScenario.node[28].nic.mac1609_4 	TooLittleTime 	0
scalar IntersectionExampleScenario.node[28].nic.mac1609_4 	TimesIntoBackoff 	0
scalar IntersectionExampleScenario.node[28].nic.mac1609_4 	SlotsBackoff 	0
scalar IntersectionExampleScenario.node[28].nic.mac1609_4 	NumInternalContention 	0
scalar IntersectionExampleScenario.node[28].nic.mac1609_4 	totalBusyTime 	0
scalar IntersectionExampleScenario.node[28].veinsmobility 	startTime 	83.25
scalar IntersectionExampleScenario.node[28].veinsmobility 	totalTime 	41.75
scalar IntersectionExampleScenario.node[28].veinsmobility 	stopTime 	125.25
scalar IntersectionExampleScenario.node[28].veinsmobility 	minSpeed 	3.9038696289062
scalar IntersectionExampleScenario.node[28].veinsmobility 	maxSpeed 	15.375
scalar IntersectionExampleScenario.node[28].veinsmobility 	totalDistance 	548.95503117015
scalar IntersectionExampleScenario.node[28].veinsmobility 	totalCO2Emission 	129.44321058438
scalar IntersectionExampleScenario.node[29].appl 	VehicleRemoved 	0
scalar IntersectionExampleScenario.node[29].appl 	ArrivedAtDest 	1
scalar IntersectionExampleScenario.node[29].appl 	IntersectionEnterTime 	83.75
scalar IntersectionExampleScenario.node[29].appl 	IntersectionExitTime 	110.30176586515
scalar IntersectionExampleScenario.node[29].appl 	NumberOfCollisions 	0
scalar IntersectionExampleScenario.node[29].nic.phy80211p 	busyTime 	0
scalar IntersectionExampleScenario.node[29].nic.mac1609_4 	ReceivedUnicastPackets 	0
scalar IntersectionExampleScenario.node[29].nic.mac1609_4 	ReceivedBroadcasts 	0
scalar IntersectionExampleScenario.node[29].nic.mac1609_4 	SentPackets 	0
scalar IntersectionExampleScenario.node[29].nic.mac1609_4 	SNIRLostPackets 	0
scalar IntersectionExampleScenario.node[29].nic.mac1609_4 	RXTXLostPackets 	0
scalar IntersectionExampleScenario.node[29].nic.mac1609_4 	TotalLostPackets 	0
scalar IntersectionExampleScenario.node[29].nic.mac1609_4 	DroppedPacketsInMac 	0
scalar IntersectionExampleScenario.node[29].nic.mac1609_4 	TooLittleTime 	0
scalar IntersectionExampleScenario.node[29].nic.mac1609_4 	TimesIntoBackoff 	0
scalar IntersectionExampleScenario.node[29].nic.mac1609_4 	SlotsBackoff 	0
scalar IntersectionExampleScenario.node[29].nic.mac1609_4 	NumInternalContention 	0
scalar IntersectionExampleScenario.node[29].nic.mac1609_4 	totalBusyTime 	0
scalar IntersectionExampleScenario.node[29].veinsmobility 	startTime 	83.75
scalar IntersectionExampleScenario.node[29].veinsmobility 	totalTime 	42.5
scalar IntersectionExampleScenario.node[29].veinsmobility 	stopTime 	126.5
scalar IntersectionExampleScenario.node[29].veinsmobility 	minSpeed 	5.5640244483948
scalar IntersectionExampleScenario.node[29].veinsmobility 	maxSpeed 	16.497207641602
scalar IntersectionExampleScenario.node[29].veinsmobility 	totalDistance 	575.33050030642
scalar IntersectionExampleScenario.node[29].veinsmobility 	totalCO2Emission 	143.54709095274
scalar IntersectionExampleScenario.node[32].appl 	VehicleRemoved 	0
scalar IntersectionExampleScenario.node[32].appl 	ArrivedAtDest 	1
scalar IntersectionExampleScenario.node[32].appl 	IntersectionEnterTime 	95.5
scalar IntersectionExampleScenario.node[32].appl 	IntersectionExitTime 	118.516207298
scalar IntersectionExampleScenario.node[32].appl 	NumberOfCollisions 	0
scalar IntersectionExampleScenario.node[32].nic.phy80211p 	busyTime 	0
scalar IntersectionExampleScenario.node[32].nic.mac1609_4 	ReceivedUnicastPackets 	0
scalar IntersectionExampleScenario.node[32].nic.mac1609_4 	ReceivedBroadcasts 	0
scalar IntersectionExampleScenario.node[32].nic.mac1609_4 	SentPackets 	0
scalar IntersectionExampleScenario.node[32].nic.mac1609_4 	SNIRLostPackets 	0
scalar IntersectionExampleScenario.node[32].nic.mac1609_4 	RXTXLostPackets 	0
scalar IntersectionExampleScenario.node[32].nic.mac1609_4 	TotalLostPackets 	0
scalar IntersectionExampleScenario.node[32].nic.mac1609_4 	DroppedPacketsInMac 	0
scalar IntersectionExampleScenario.node[32].nic.mac1609_4 	TooLittleTime 	0
scalar IntersectionExampleScenario.node[32].nic.mac1609_4 	TimesIntoBackoff 	0
scalar IntersectionExampleScenario.node[32].nic.mac1609_4 	SlotsBackoff 	0
scalar IntersectionExampleScenario.node[32].nic.mac1609_4 	NumInternalContention 	0
scalar IntersectionExampleScenario.node[32].nic.mac1609_4 	totalBusyTime 	0
scalar IntersectionExampleScenario.node[32].veinsmobility 	startTime 	95.5
scalar IntersectionExampleScenario.node[32].veinsmobility 	totalTime 	39.25
scalar IntersectionExampleScenario.node[32].veinsmobility 	stopTime 	135
scalar IntersectionExampleScenario.node[32].veinsmobility 	minSpeed 	5.6500000953674
scalar IntersectionExampleScenario.node[32].veinsmobility 	maxSpeed 	15.5
scalar IntersectionExampleScenario.node[32].veinsmobility 	totalDistance 	552.04515075684
scalar IntersectionExampleScenario.node[32].veinsmobility 	totalCO2Emission 	116.05476691069
scalar IntersectionExampleScenario.node[30].appl 	VehicleRemoved 	0
scalar IntersectionExampleScenario.node[30].appl 	ArrivedAtDest 	1
scalar IntersectionExampleScenario.node[30].appl 	IntersectionEnterTime 	85.5
scalar IntersectionExampleScenario.node[30].appl 	IntersectionExitTime 	124.28146768882
scalar IntersectionExampleScenario.node[30].appl 	NumberOfCollisions 	0
scalar IntersectionExampleScenario.node[30].nic.phy80211p 	busyTime 	0
scalar IntersectionExampleScenario.node[30].nic.mac1609_4 	ReceivedUnicastPackets 	0
scalar IntersectionExampleScenario.node[30].nic.mac1609_4 	ReceivedBroadcasts 	0
scalar IntersectionExampleScenario.node[30].nic.mac1609_4 	SentPackets 	0
scalar IntersectionExampleScenario.node[30].nic.mac1609_4 	SNIRLostPackets 	0
scalar IntersectionExampleScenario.node[30].nic.mac1609_4 	RXTXLostPackets 	0
scalar IntersectionExampleScenario.node[30].nic.mac1609_4 	TotalLostPackets 	0
scalar IntersectionExampleScenario.node[30].nic.mac1609_4 	DroppedPacketsInMac 	0
scalar IntersectionExampleScenario.node[30].nic.mac1609_4 	TooLittleTime 	0
scalar IntersectionExampleScenario.node[30].nic.mac1609_4 	TimesIntoBackoff 	0
scalar IntersectionExampleScenario.node[30].nic.mac1609_4 	SlotsBackoff 	0
scalar IntersectionExampleScenario.node[30].nic.mac1609_4 	NumInternalContention 	0
scalar IntersectionExampleScenario.node[30].nic.mac1609_4 	totalBusyTime 	0
scalar IntersectionExampleScenario.node[30].veinsmobility 	startTime 	85.5
scalar IntersectionExampleScenario.node[30].veinsmobility 	totalTime 	55
scalar IntersectionExampleScenario.node[30].veinsmobility 	stopTime 	140.75
scalar IntersectionExampleScenario.node[30].veinsmobility 	minSpeed 	0
scalar IntersectionExampleScenario.node[30].veinsmobility 	maxSpeed 	15.375
scalar IntersectionExampleScenario.node[30].veinsmobility 	totalDistance 	549.86316026797
scalar IntersectionExampleScenario.node[30].veinsmobility 	totalCO2Emission 	146.44613447284
scalar IntersectionExampleScenario.node[31].appl 	VehicleRemoved 	0
scalar IntersectionExampleScenario.node[31].appl 	ArrivedAtDest 	1
scalar IntersectionExampleScenario.node[31].appl 	IntersectionEnterTime 	88.25
scalar IntersectionExampleScenario.node[31].appl 	IntersectionExitTime 	126.62443039686
scalar IntersectionExampleScenario.node[31].appl 	NumberOfCollisions 	0
scalar IntersectionExampleScenario.node[31].nic.phy80211p 	busyTime 	0
scalar IntersectionExampleScenario.node[31].nic.mac1609_4 	ReceivedUnicastPackets 	0
scalar IntersectionExampleScenario.node[31].nic.mac1609_4 	ReceivedBroadcasts 	0
scalar IntersectionExampleScenario.node[31].nic.mac1609_4 	SentPackets 	0
scalar IntersectionExampleScenario.node[31].nic.mac1609_4 	SNIRLostPackets 	0
scalar IntersectionExampleScenario.node[31].nic.mac1609_4 	RXTXLostPackets 	0
scalar IntersectionExampleScenario.node[31].nic.mac1609_4 	TotalLostPackets 	0
scalar IntersectionExampleScenario.node[31].nic.mac1609_4 	DroppedPacketsInMac 	0
scalar IntersectionExampleScenario.node[31].nic.mac1609_4 	TooLittleTime 	0
scalar IntersectionExampleScenario.node[31].nic.mac1609_4 	TimesIntoBackoff 	0
scalar IntersectionExampleScenario.node[31].nic.mac1609_4 	SlotsBackoff 	0
scalar IntersectionExampleScenario.node[31].nic.mac1609_4 	NumInternalContention 	0
scalar IntersectionExampleScenario.node[31].nic.mac1609_4 	totalBusyTime 	0
scalar IntersectionExampleScenario.node[31].veinsmobility 	startTime 	88.25
scalar IntersectionExampleScenario.node[31].veinsmobility 	totalTime 	55.25
scalar IntersectionExampleScenario.node[31].veinsmobility 	stopTime 	143.75
scalar IntersectionExampleScenario.node[31].veinsmobility 	minSpeed 	0
scalar IntersectionExampleScenario.node[31].veinsmobility 	maxSpeed 	15.02499961853
scalar IntersectionExampleScenario.node[31].veinsmobility 	totalDistance 	566.32772355916
scalar IntersectionExampleScenario.node[31].veinsmobility 	totalCO2Emission 	143.36726639841
scalar IntersectionExampleScenario.node[37].appl 	VehicleRemoved 	0
scalar IntersectionExampleScenario.node[37].appl 	ArrivedAtDest 	1
scalar IntersectionExampleScenario.node[37].appl 	IntersectionEnterTime 	111.25
scalar IntersectionExampleScenario.node[37].appl 	IntersectionExitTime 	134.31730796146
scalar IntersectionExampleScenario.node[37].appl 	NumberOfCollisions 	0
scalar IntersectionExampleScenario.node[37].nic.phy80211p 	busyTime 	0
scalar IntersectionExampleScenario.node[37].nic.mac1609_4 	ReceivedUnicastPackets 	0
scalar IntersectionExampleScenario.node[37].nic.mac1609_4 	ReceivedBroadcasts 	0
scalar IntersectionExampleScenario.node[37].nic.mac1609_4 	SentPackets 	0
scalar IntersectionExampleScenario.node[37].nic.mac1609_4 	SNIRLostPackets 	0
scalar IntersectionExampleScenario.node[37].nic.mac1609_4 	RXTXLostPackets 	0
scalar IntersectionExampleScenario.node[37].nic.mac1609_4 	TotalLostPackets 	0
scalar IntersectionExampleScenario.node[37].nic.mac1609_4 	DroppedPacketsInMac 	0
scalar IntersectionExampleScenario.node[37].nic.mac1609_4 	TooLittleTime 	0
scalar IntersectionExampleScenario.node[37].nic.mac1609_4 	TimesIntoBackoff 	0
scalar IntersectionExampleScenario.node[37].nic.mac1609_4 	SlotsBackoff 	0
scalar IntersectionExampleScenario.node[37].nic.mac1609_4 	NumInternalContention 	0
scalar IntersectionExampleScenario.node[37].nic.mac1609_4 	totalBusyTime 	0
scalar IntersectionExampleScenario.node[37].veinsmobility 	startTime 	111.25
scalar IntersectionExampleScenario.node[37].veinsmobility 	totalTime 	39.25
scalar IntersectionExampleScenario.node[37].veinsmobility 	stopTime 	150.75
scalar IntersectionExampleScenario.node[37].veinsmobility 	minSpeed 	5.6500000953674
scalar IntersectionExampleScenario.node[37].veinsmobility 	maxSpeed 	15.64999961853
scalar IntersectionExampleScenario.node[37].veinsmobility 	totalDistance 	549.99317365903
scalar IntersectionExampleScenario.node[37].veinsmobility 	totalCO2Emission 	123.03689066274
scalar IntersectionExampleScenario.node[39].appl 	VehicleRemoved 	0
scalar IntersectionExampleScenario.node[39].appl 	ArrivedAtDest 	1
scalar IntersectionExampleScenario.node[39].appl 	IntersectionEnterTime 	113
scalar IntersectionExampleScenario.node[39].appl 	IntersectionExitTime 	138.87472654998
scalar IntersectionExampleScenario.node[39].appl 	NumberOfCollisions 	0
scalar IntersectionExampleScenario.node[39].nic.phy80211p 	busyTime 	0
scalar IntersectionExampleScenario.node[39].nic.mac1609_4 	ReceivedUnicastPackets 	0
scalar IntersectionExampleScenario.node[39].nic.mac1609_4 	ReceivedBroadcasts 	0
scalar IntersectionExampleScenario.node[39].nic.mac1609_4 	SentPackets 	0
scalar IntersectionExampleScenario.node[39].nic.mac1609_4 	SNIRLostPackets 	0
scalar IntersectionExampleScenario.node[39].nic.mac1609_4 	RXTXLostPackets 	0
scalar IntersectionExampleScenario.node[39].nic.mac1609_4 	TotalLostPackets 	0
scalar IntersectionExampleScenario.node[39].nic.mac1609_4 	DroppedPacketsInMac 	0
scalar IntersectionExampleScenario.node[39].nic.mac1609_4 	TooLittleTime 	0
scalar IntersectionExampleScenario.node[39].nic.mac1609_4 	TimesIntoBackoff 	0
scalar IntersectionExampleScenario.node[39].nic.mac1609_4 	SlotsBackoff 	0
scalar IntersectionExampleScenario.node[39].nic.mac1609_4 	NumInternalContention 	0
scalar IntersectionExampleScenario.node[39].nic.mac1609_4 	totalBusyTime 	0
scalar IntersectionExampleScenario.node[39].veinsmobility 	startTime 	113
scalar IntersectionExampleScenario.node[39].veinsmobility 	totalTime 	42
scalar IntersectionExampleScenario.node[39].veinsmobility 	stopTime 	155.25
scalar IntersectionExampleScenario.node[39].veinsmobility 	minSpeed 	3.2472681999207
scalar IntersectionExampleScenario.node[39].veinsmobility 	maxSpeed 	15.127731323242
scalar IntersectionExampleScenario.node[39].veinsmobility 	totalDistance 	551.57871246338
scalar IntersectionExampleScenario.node[39].veinsmobility 	totalCO2Emission 	130.32306451139
scalar IntersectionExampleScenario.node[33].appl 	VehicleRemoved 	0
scalar IntersectionExampleScenario.node[33].appl 	ArrivedAtDest 	1
scalar IntersectionExampleScenario.node[33].appl 	IntersectionEnterTime 	99.75
scalar IntersectionExampleScenario.node[33].appl 	IntersectionExitTime 	138.87478539057
scalar IntersectionExampleScenario.node[33].appl 	NumberOfCollisions 	0
scalar IntersectionExampleScenario.node[33].nic.phy80211p 	busyTime 	0
scalar IntersectionExampleScenario.node[33].nic.mac1609_4 	ReceivedUnicastPackets 	0
scalar IntersectionExampleScenario.node[33].nic.mac1609_4 	ReceivedBroadcasts 	0
scalar IntersectionExampleScenario.node[33].nic.mac1609_4 	SentPackets 	0
scalar IntersectionExampleScenario.node[33].nic.mac1609_4 	SNIRLostPackets 	0
scalar IntersectionExampleScenario.node[33].nic.mac1609_4 	RXTXLostPackets 	0
scalar IntersectionExampleScenario.node[33].nic.mac1609_4 	TotalLostPackets 	0
scalar IntersectionExampleScenario.node[33].nic.mac1609_4 	DroppedPacketsInMac 	0
scalar IntersectionExampleScenario.node[33].nic.mac1609_4 	TooLittleTime 	0
scalar IntersectionExampleScenario.node[33].nic.mac1609_4 	TimesIntoBackoff 	0
scalar IntersectionExampleScenario.node[33].nic.mac1609_4 	SlotsBackoff 	0
scalar IntersectionExampleScenario.node[33].nic.mac1609_4 	NumInternalContention 	0
scalar IntersectionExampleScenario.node[33].nic.mac1609_4 	totalBusyTime 	0
scalar IntersectionExampleScenario.node[33].veinsmobility 	startTime 	99.75
scalar IntersectionExampleScenario.node[33].veinsmobility 	totalTime 	55.5
scalar IntersectionExampleScenario.node[33].veinsmobility 	stopTime 	155.5
scalar IntersectionExampleScenario.node[33].veinsmobility 	minSpeed 	0
scalar IntersectionExampleScenario.node[33].veinsmobility 	maxSpeed 	15.375
scalar IntersectionExampleScenario.node[33].veinsmobility 	totalDistance 	554.12374239397
scalar IntersectionExampleScenario.node[33].veinsmobility 	totalCO2Emission 	146.17242544717
scalar IntersectionExampleScenario.node[34].appl 	VehicleRemoved 	0
scalar IntersectionExampleScenario.node[34].appl 	ArrivedAtDest 	1
scalar IntersectionExampleScenario.node[34].appl 	IntersectionEnterTime 	101.5
scalar IntersectionExampleScenario.node[34].appl 	IntersectionExitTime 	140.33842893832
scalar IntersectionExampleScenario.node[34].appl 	NumberOfCollisions 	0
scalar IntersectionExampleScenario.node[34].nic.phy80211p 	busyTime 	0
scalar IntersectionExampleScenario.node[34].nic.mac1609_4 	ReceivedUnicastPackets 	0
scalar IntersectionExampleScenario.node[34].nic.mac1609_4 	ReceivedBroadcasts 	0
scalar IntersectionExampleScenario.node[34].nic.mac1609_4 	SentPackets 	0
scalar IntersectionExampleScenario.node[34].nic.mac1609_4 	SNIRLostPackets 	0
scalar IntersectionExampleScenario.node[34].nic.mac1609_4 	RXTXLostPackets 	0
scalar IntersectionExampleScenario.node[34].nic.mac1609_4 	TotalLostPackets 	0
scalar IntersectionExampleScenario.node[34].nic.mac1609_4 	DroppedPacketsInMac 	0
scalar IntersectionExampleScenario.node[34].nic.mac1609_4 	TooLittleTime 	0
scalar IntersectionExampleScenario.node[34].nic.mac1609_4 	TimesIntoBackoff 	0
scalar IntersectionExampleScenario.node[34].nic.mac1609_4 	SlotsBackoff 	0
scalar IntersectionExampleScenario.node[34].nic.mac1609_4 	NumInternalContention 	0
scalar IntersectionExampleScenario.node[34].nic.mac1609_4 	totalBusyTime 	0
scalar IntersectionExampleScenario.node[34].veinsmobility 	startTime 	101.5
scalar IntersectionExampleScenario.node[34].veinsmobility 	totalTime 	55
scalar IntersectionExampleScenario.node[34].veinsmobility 	stopTime 	156.75
scalar IntersectionExampleScenario.node[34].veinsmobility 	minSpeed 	0
scalar IntersectionExampleScenario.node[34].veinsmobility 	maxSpeed 	15.5
scalar IntersectionExampleScenario.node[34].veinsmobility 	totalDistance 	573.80107116699
scalar IntersectionExampleScenario.node[34].veinsmobility 	totalCO2Emission 	148.60655102762
scalar IntersectionExampleScenario.node[43].appl 	VehicleRemoved 	0
scalar IntersectionExampleScenario.node[43].appl 	ArrivedAtDest 	1
scalar IntersectionExampleScenario.node[43].appl 	IntersectionEnterTime 	119
scalar IntersectionExampleScenario.node[43].appl 	IntersectionExitTime 	142.05385187734
scalar IntersectionExampleScenario.node[43].appl 	NumberOfCollisions 	0
scalar IntersectionExampleScenario.node[43].nic.phy80211p 	busyTime 	0
scalar IntersectionExampleScenario.node[43].nic.mac1609_4 	ReceivedUnicastPackets 	0
scalar IntersectionExampleScenario.node[43].nic.mac1609_4 	ReceivedBroadcasts 	0
scalar IntersectionExampleScenario.node[43].nic.mac1609_4 	SentPackets 	0
scalar IntersectionExampleScenario.node[43].nic.mac1609_4 	SNIRLostPackets 	0
scalar IntersectionExampleScenario.node[43].nic.mac1609_4 	RXTXLostPackets 	0
scalar IntersectionExampleScenario.node[43].nic.mac1609_4 	TotalLostPackets 	0
scalar IntersectionExampleScenario.node[43].nic.mac1609_4 	DroppedPacketsInMac 	0
scalar IntersectionExampleScenario.node[43].nic.mac1609_4 	TooLittleTime 	0
scalar IntersectionExampleScenario.node[43].nic.mac1609_4 	TimesIntoBackoff 	0
scalar IntersectionExampleScenario.node[43].nic.mac1609_4 	SlotsBackoff 	0
scalar IntersectionExampleScenario.node[43].nic.mac1609_4 	NumInternalContention 	0
scalar IntersectionExampleScenario.node[43].nic.mac1609_4 	totalBusyTime 	0
scalar IntersectionExampleScenario.node[43].veinsmobility 	startTime 	119
scalar IntersectionExampleScenario.node[43].veinsmobility 	totalTime 	39
scalar IntersectionExampleScenario.node[43].veinsmobility 	stopTime 	158.25
scalar IntersectionExampleScenario.node[43].veinsmobility 	minSpeed 	5.6500000953674
scalar IntersectionExampleScenario.node[43].veinsmobility 	maxSpeed 	16.129653930664
scalar IntersectionExampleScenario.node[43].veinsmobility 	totalDistance 	551.89924443967
scalar IntersectionExampleScenario.node[43].veinsmobility 	totalCO2Emission 	132.19405046132
scalar IntersectionExampleScenario.node[35].appl 	VehicleRemoved 	0
scalar IntersectionExampleScenario.node[35].appl 	ArrivedAtDest 	1
scalar IntersectionExampleScenario.node[35].appl 	IntersectionEnterTime 	102.5
scalar IntersectionExampleScenario.node[35].appl 	IntersectionExitTime 	142.60212942012
scalar IntersectionExampleScenario.node[35].appl 	NumberOfCollisions 	0
scalar IntersectionExampleScenario.node[35].nic.phy80211p 	busyTime 	0
scalar IntersectionExampleScenario.node[35].nic.mac1609_4 	ReceivedUnicastPackets 	0
scalar IntersectionExampleScenario.node[35].nic.mac1609_4 	ReceivedBroadcasts 	0
scalar IntersectionExampleScenario.node[35].nic.mac1609_4 	SentPackets 	0
scalar IntersectionExampleScenario.node[35].nic.mac1609_4 	SNIRLostPackets 	0
scalar IntersectionExampleScenario.node[35].nic.mac1609_4 	RXTXLostPackets 	0
scalar IntersectionExampleScenario.node[35].nic.mac1609_4 	TotalLostPackets 	0
scalar IntersectionExampleScenario.node[35].nic.mac1609_4 	DroppedPacketsInMac 	0
scalar IntersectionExampleScenario.node[35].nic.mac1609_4 	TooLittleTime 	0
scalar IntersectionExampleScenario.node[35].nic.mac1609_4 	TimesIntoBackoff 	0
scalar IntersectionExampleScenario.node[35].nic.mac1609_4 	SlotsBackoff 	0
scalar IntersectionExampleScenario.node[35].nic.mac1609_4 	NumInternalContention 	0
scalar IntersectionExampleScenario.node[35].nic.mac1609_4 	totalBusyTime 	0
scalar IntersectionExampleScenario.node[35].veinsmobility 	startTime 	102.5
scalar IntersectionExampleScenario.node[35].veinsmobility 	totalTime 	56.25
scalar IntersectionExampleScenario.node[35].veinsmobility 	stopTime 	159
scalar IntersectionExampleScenario.node[35].veinsmobility 	minSpeed 	0
scalar IntersectionExampleScenario.node[35].veinsmobility 	maxSpeed 	15.375
scalar IntersectionExampleScenario.node[35].veinsmobility 	totalDistance 	583.29952992815
scalar IntersectionExampleScenario.node[35].veinsmobility 	totalCO2Emission 	153.31101672978
scalar IntersectionExampleScenario.node[36].appl 	VehicleRemoved 	0
scalar IntersectionExampleScenario.node[36].appl 	ArrivedAtDest 	1
scalar IntersectionExampleScenario.node[36].appl 	IntersectionEnterTime 	110.25
scalar IntersectionExampleScenario.node[36].appl 	IntersectionExitTime 	145.0701232834
scalar IntersectionExampleScenario.node[36].appl 	NumberOfCollisions 	0
scalar IntersectionExampleScenario.node[36].nic.phy80211p 	busyTime 	0
scalar IntersectionExampleScenario.node[36].nic.mac1609_4 	ReceivedUnicastPackets 	0
scalar IntersectionExampleScenario.node[36].nic.mac1609_4 	ReceivedBroadcasts 	0
scalar IntersectionExampleScenario.node[36].nic.mac1609_4 	SentPackets 	0
scalar IntersectionExampleScenario.node[36].nic.mac1609_4 	SNIRLostPackets 	0
scalar IntersectionExampleScenario.node[36].nic.mac1609_4 	RXTXLostPackets 	0
scalar IntersectionExampleScenario.node[36].nic.mac1609_4 	TotalLostPackets 	0
scalar IntersectionExampleScenario.node[36].nic.mac1609_4 	DroppedPacketsInMac 	0
scalar IntersectionExampleScenario.node[36].nic.mac1609_4 	TooLittleTime 	0
scalar IntersectionExampleScenario.node[36].nic.mac1609_4 	TimesIntoBackoff 	0
[...]
scalar IntersectionExampleScenario.node[493].veinsmobility 	totalCO2Emission 	125.01579553413
scalar IntersectionExampleScenario.node[494].appl 	VehicleRemoved 	0
scalar IntersectionExampleScenario.node[494].appl 	ArrivedAtDest 	0
scalar IntersectionExampleScenario.node[494].appl 	IntersectionEnterTime 	1768
scalar IntersectionExampleScenario.node[494].appl 	IntersectionExitTime 	1791.6061911279
scalar IntersectionExampleScenario.node[494].appl 	NumberOfCollisions 	0
scalar IntersectionExampleScenario.node[494].nic.phy80211p 	busyTime 	0
scalar IntersectionExampleScenario.node[494].nic.mac1609_4 	ReceivedUnicastPackets 	0
scalar IntersectionExampleScenario.node[494].nic.mac1609_4 	ReceivedBroadcasts 	0
scalar IntersectionExampleScenario.node[494].nic.mac1609_4 	SentPackets 	0
scalar IntersectionExampleScenario.node[494].nic.mac1609_4 	SNIRLostPackets 	0
scalar IntersectionExampleScenario.node[494].nic.mac1609_4 	RXTXLostPackets 	0
scalar IntersectionExampleScenario.node[494].nic.mac1609_4 	TotalLostPackets 	0
scalar IntersectionExampleScenario.node[494].nic.mac1609_4 	DroppedPacketsInMac 	0
scalar IntersectionExampleScenario.node[494].nic.mac1609_4 	TooLittleTime 	0
scalar IntersectionExampleScenario.node[494].nic.mac1609_4 	TimesIntoBackoff 	0
scalar IntersectionExampleScenario.node[494].nic.mac1609_4 	SlotsBackoff 	0
scalar IntersectionExampleScenario.node[494].nic.mac1609_4 	NumInternalContention 	0
scalar IntersectionExampleScenario.node[494].nic.mac1609_4 	totalBusyTime 	0
scalar IntersectionExampleScenario.node[494].veinsmobility 	startTime 	1768
scalar IntersectionExampleScenario.node[494].veinsmobility 	totalTime 	32
scalar IntersectionExampleScenario.node[494].veinsmobility 	stopTime 	1800
scalar IntersectionExampleScenario.node[494].veinsmobility 	minSpeed 	5.6500000953674
scalar IntersectionExampleScenario.node[494].veinsmobility 	maxSpeed 	15.64999961853
scalar IntersectionExampleScenario.node[494].veinsmobility 	totalDistance 	418.30710619719
scalar IntersectionExampleScenario.node[494].veinsmobility 	totalCO2Emission 	107.68745091277
scalar IntersectionExampleScenario.node[495].appl 	VehicleRemoved 	0
scalar IntersectionExampleScenario.node[495].appl 	ArrivedAtDest 	0
scalar IntersectionExampleScenario.node[495].appl 	IntersectionEnterTime 	1774.25
scalar IntersectionExampleScenario.node[495].appl 	IntersectionExitTime 	-1
scalar IntersectionExampleScenario.node[495].appl 	NumberOfCollisions 	0
scalar IntersectionExampleScenario.node[495].nic.phy80211p 	busyTime 	0
scalar IntersectionExampleScenario.node[495].nic.mac1609_4 	ReceivedUnicastPackets 	0
scalar IntersectionExampleScenario.node[495].nic.mac1609_4 	ReceivedBroadcasts 	0
scalar IntersectionExampleScenario.node[495].nic.mac1609_4 	SentPackets 	0
scalar IntersectionExampleScenario.node[495].nic.mac1609_4 	SNIRLostPackets 	0
scalar IntersectionExampleScenario.node[495].nic.mac1609_4 	RXTXLostPackets 	0
scalar IntersectionExampleScenario.node[495].nic.mac1609_4 	TotalLostPackets 	0
scalar IntersectionExampleScenario.node[495].nic.mac1609_4 	DroppedPacketsInMac 	0
scalar IntersectionExampleScenario.node[495].nic.mac1609_4 	TooLittleTime 	0
scalar IntersectionExampleScenario.node[495].nic.mac1609_4 	TimesIntoBackoff 	0
scalar IntersectionExampleScenario.node[495].nic.mac1609_4 	SlotsBackoff 	0
scalar IntersectionExampleScenario.node[495].nic.mac1609_4 	NumInternalContention 	0
scalar IntersectionExampleScenario.node[495].nic.mac1609_4 	totalBusyTime 	0
scalar IntersectionExampleScenario.node[495].veinsmobility 	startTime 	1774.25
scalar IntersectionExampleScenario.node[495].veinsmobility 	totalTime 	25.75
scalar IntersectionExampleScenario.node[495].veinsmobility 	stopTime 	1800
scalar IntersectionExampleScenario.node[495].veinsmobility 	minSpeed 	0
scalar IntersectionExampleScenario.node[495].veinsmobility 	maxSpeed 	15.64999961853
scalar IntersectionExampleScenario.node[495].veinsmobility 	totalDistance 	287.42190551758
scalar IntersectionExampleScenario.node[495].veinsmobility 	totalCO2Emission 	69.507110589275
scalar IntersectionExampleScenario.node[496].appl 	VehicleRemoved 	0
scalar IntersectionExampleScenario.node[496].appl 	ArrivedAtDest 	0
scalar IntersectionExampleScenario.node[496].appl 	IntersectionEnterTime 	1775.25
scalar IntersectionExampleScenario.node[496].appl 	IntersectionExitTime 	1798.7655578627
scalar IntersectionExampleScenario.node[496].appl 	NumberOfCollisions 	0
scalar IntersectionExampleScenario.node[496].nic.phy80211p 	busyTime 	0
scalar IntersectionExampleScenario.node[496].nic.mac1609_4 	ReceivedUnicastPackets 	0
scalar IntersectionExampleScenario.node[496].nic.mac1609_4 	ReceivedBroadcasts 	0
scalar IntersectionExampleScenario.node[496].nic.mac1609_4 	SentPackets 	0
scalar IntersectionExampleScenario.node[496].nic.mac1609_4 	SNIRLostPackets 	0
scalar IntersectionExampleScenario.node[496].nic.mac1609_4 	RXTXLostPackets 	0
scalar IntersectionExampleScenario.node[496].nic.mac1609_4 	TotalLostPackets 	0
scalar IntersectionExampleScenario.node[496].nic.mac1609_4 	DroppedPacketsInMac 	0
scalar IntersectionExampleScenario.node[496].nic.mac1609_4 	TooLittleTime 	0
scalar IntersectionExampleScenario.node[496].nic.mac1609_4 	TimesIntoBackoff 	0
scalar IntersectionExampleScenario.node[496].nic.mac1609_4 	SlotsBackoff 	0
scalar IntersectionExampleScenario.node[496].nic.mac1609_4 	NumInternalContention 	0
scalar IntersectionExampleScenario.node[496].nic.mac1609_4 	totalBusyTime 	0
scalar IntersectionExampleScenario.node[496].veinsmobility 	startTime 	1775.25
scalar IntersectionExampleScenario.node[496].veinsmobility 	totalTime 	24.75
scalar IntersectionExampleScenario.node[496].veinsmobility 	stopTime 	1800
scalar IntersectionExampleScenario.node[496].veinsmobility 	minSpeed 	5.6500000953674
scalar IntersectionExampleScenario.node[496].veinsmobility 	maxSpeed 	15.02499961853
scalar IntersectionExampleScenario.node[496].veinsmobility 	totalDistance 	329.73859405518
scalar IntersectionExampleScenario.node[496].veinsmobility 	totalCO2Emission 	78.491299257305
scalar IntersectionExampleScenario.node[497].appl 	VehicleRemoved 	0
scalar IntersectionExampleScenario.node[497].appl 	ArrivedAtDest 	0
scalar IntersectionExampleScenario.node[497].appl 	IntersectionEnterTime 	1777
scalar IntersectionExampleScenario.node[497].appl 	IntersectionExitTime 	1799.8688997168
scalar IntersectionExampleScenario.node[497].appl 	NumberOfCollisions 	0
scalar IntersectionExampleScenario.node[497].nic.phy80211p 	busyTime 	0
scalar IntersectionExampleScenario.node[497].nic.mac1609_4 	ReceivedUnicastPackets 	0
scalar IntersectionExampleScenario.node[497].nic.mac1609_4 	ReceivedBroadcasts 	0
scalar IntersectionExampleScenario.node[497].nic.mac1609_4 	SentPackets 	0
scalar IntersectionExampleScenario.node[497].nic.mac1609_4 	SNIRLostPackets 	0
scalar IntersectionExampleScenario.node[497].nic.mac1609_4 	RXTXLostPackets 	0
scalar IntersectionExampleScenario.node[497].nic.mac1609_4 	TotalLostPackets 	0
scalar IntersectionExampleScenario.node[497].nic.mac1609_4 	DroppedPacketsInMac 	0
scalar IntersectionExampleScenario.node[497].nic.mac1609_4 	TooLittleTime 	0
scalar IntersectionExampleScenario.node[497].nic.mac1609_4 	TimesIntoBackoff 	0
scalar IntersectionExampleScenario.node[497].nic.mac1609_4 	SlotsBackoff 	0
scalar IntersectionExampleScenario.node[497].nic.mac1609_4 	NumInternalContention 	0
scalar IntersectionExampleScenario.node[497].nic.mac1609_4 	totalBusyTime 	0
scalar IntersectionExampleScenario.node[497].veinsmobility 	startTime 	1777
scalar IntersectionExampleScenario.node[497].veinsmobility 	totalTime 	23
scalar IntersectionExampleScenario.node[497].veinsmobility 	stopTime 	1800
scalar IntersectionExampleScenario.node[497].veinsmobility 	minSpeed 	5.6500000953674
scalar IntersectionExampleScenario.node[497].veinsmobility 	maxSpeed 	15.64999961853
scalar IntersectionExampleScenario.node[497].veinsmobility 	totalDistance 	316.60214233398
scalar IntersectionExampleScenario.node[497].veinsmobility 	totalCO2Emission 	70.903311585296
scalar IntersectionExampleScenario.node[498].appl 	VehicleRemoved 	0
scalar IntersectionExampleScenario.node[498].appl 	ArrivedAtDest 	0
scalar IntersectionExampleScenario.node[498].appl 	IntersectionEnterTime 	1777.5
scalar IntersectionExampleScenario.node[498].appl 	IntersectionExitTime 	-1
scalar IntersectionExampleScenario.node[498].appl 	NumberOfCollisions 	0
scalar IntersectionExampleScenario.node[498].nic.phy80211p 	busyTime 	0
scalar IntersectionExampleScenario.node[498].nic.mac1609_4 	ReceivedUnicastPackets 	0
scalar IntersectionExampleScenario.node[498].nic.mac1609_4 	ReceivedBroadcasts 	0
scalar IntersectionExampleScenario.node[498].nic.mac1609_4 	SentPackets 	0
scalar IntersectionExampleScenario.node[498].nic.mac1609_4 	SNIRLostPackets 	0
scalar IntersectionExampleScenario.node[498].nic.mac1609_4 	RXTXLostPackets 	0
scalar IntersectionExampleScenario.node[498].nic.mac1609_4 	TotalLostPackets 	0
scalar IntersectionExampleScenario.node[498].nic.mac1609_4 	DroppedPacketsInMac 	0
scalar IntersectionExampleScenario.node[498].nic.mac1609_4 	TooLittleTime 	0
scalar IntersectionExampleScenario.node[498].nic.mac1609_4 	TimesIntoBackoff 	0
scalar IntersectionExampleScenario.node[498].nic.mac1609_4 	SlotsBackoff 	0
scalar IntersectionExampleScenario.node[498].nic.mac1609_4 	NumInternalContention 	0
scalar IntersectionExampleScenario.node[498].nic.mac1609_4 	totalBusyTime 	0
scalar IntersectionExampleScenario.node[498].veinsmobility 	startTime 	1777.5
scalar IntersectionExampleScenario.node[498].veinsmobility 	totalTime 	22.5
scalar IntersectionExampleScenario.node[498].veinsmobility 	stopTime 	1800
scalar IntersectionExampleScenario.node[498].veinsmobility 	minSpeed 	3.7948834896088
scalar IntersectionExampleScenario.node[498].veinsmobility 	maxSpeed 	15.02499961853
scalar IntersectionExampleScenario.node[498].veinsmobility 	totalDistance 	283.20208740234
scalar IntersectionExampleScenario.node[498].veinsmobility 	totalCO2Emission 	61.43640600658
scalar IntersectionExampleScenario.node[499].appl 	VehicleRemoved 	0
scalar IntersectionExampleScenario.node[499].appl 	ArrivedAtDest 	0
scalar IntersectionExampleScenario.node[499].appl 	IntersectionEnterTime 	1780.25
scalar IntersectionExampleScenario.node[499].appl 	IntersectionExitTime 	-1
scalar IntersectionExampleScenario.node[499].appl 	NumberOfCollisions 	0
scalar IntersectionExampleScenario.node[499].nic.phy80211p 	busyTime 	0
scalar IntersectionExampleScenario.node[499].nic.mac1609_4 	ReceivedUnicastPackets 	0
scalar IntersectionExampleScenario.node[499].nic.mac1609_4 	ReceivedBroadcasts 	0
scalar IntersectionExampleScenario.node[499].nic.mac1609_4 	SentPackets 	0
scalar IntersectionExampleScenario.node[499].nic.mac1609_4 	SNIRLostPackets 	0
scalar IntersectionExampleScenario.node[499].nic.mac1609_4 	RXTXLostPackets 	0
scalar IntersectionExampleScenario.node[499].nic.mac1609_4 	TotalLostPackets 	0
scalar IntersectionExampleScenario.node[499].nic.mac1609_4 	DroppedPacketsInMac 	0
scalar IntersectionExampleScenario.node[499].nic.mac1609_4 	TooLittleTime 	0
scalar IntersectionExampleScenario.node[499].nic.mac1609_4 	TimesIntoBackoff 	0
scalar IntersectionExampleScenario.node[499].nic.mac1609_4 	SlotsBackoff 	0
scalar IntersectionExampleScenario.node[499].nic.mac1609_4 	NumInternalContention 	0
scalar IntersectionExampleScenario.node[499].nic.mac1609_4 	totalBusyTime 	0
scalar IntersectionExampleScenario.node[499].veinsmobility 	startTime 	1780.25
scalar IntersectionExampleScenario.node[499].veinsmobility 	totalTime 	19.75
scalar IntersectionExampleScenario.node[499].veinsmobility 	stopTime 	1800
scalar IntersectionExampleScenario.node[499].veinsmobility 	minSpeed 	5.6500000953674
scalar IntersectionExampleScenario.node[499].veinsmobility 	maxSpeed 	16.232667922974
scalar IntersectionExampleScenario.node[499].veinsmobility 	totalDistance 	289.10345458984
scalar IntersectionExampleScenario.node[499].veinsmobility 	totalCO2Emission 	68.293953003781
scalar IntersectionExampleScenario.node[500].appl 	VehicleRemoved 	0
scalar IntersectionExampleScenario.node[500].appl 	ArrivedAtDest 	0
scalar IntersectionExampleScenario.node[500].appl 	IntersectionEnterTime 	1783.25
scalar IntersectionExampleScenario.node[500].appl 	IntersectionExitTime 	-1
scalar IntersectionExampleScenario.node[500].appl 	NumberOfCollisions 	0
scalar IntersectionExampleScenario.node[500].nic.phy80211p 	busyTime 	0
scalar IntersectionExampleScenario.node[500].nic.mac1609_4 	ReceivedUnicastPackets 	0
scalar IntersectionExampleScenario.node[500].nic.mac1609_4 	ReceivedBroadcasts 	0
scalar IntersectionExampleScenario.node[500].nic.mac1609_4 	SentPackets 	0
scalar IntersectionExampleScenario.node[500].nic.mac1609_4 	SNIRLostPackets 	0
scalar IntersectionExampleScenario.node[500].nic.mac1609_4 	RXTXLostPackets 	0
scalar IntersectionExampleScenario.node[500].nic.mac1609_4 	TotalLostPackets 	0
scalar IntersectionExampleScenario.node[500].nic.mac1609_4 	DroppedPacketsInMac 	0
scalar IntersectionExampleScenario.node[500].nic.mac1609_4 	TooLittleTime 	0
scalar IntersectionExampleScenario.node[500].nic.mac1609_4 	TimesIntoBackoff 	0
scalar IntersectionExampleScenario.node[500].nic.mac1609_4 	SlotsBackoff 	0
scalar IntersectionExampleScenario.node[500].nic.mac1609_4 	NumInternalContention 	0
scalar IntersectionExampleScenario.node[500].nic.mac1609_4 	totalBusyTime 	0
scalar IntersectionExampleScenario.node[500].veinsmobility 	startTime 	1783.25
scalar IntersectionExampleScenario.node[500].veinsmobility 	totalTime 	16.75
scalar IntersectionExampleScenario.node[500].veinsmobility 	stopTime 	1800
scalar IntersectionExampleScenario.node[500].veinsmobility 	minSpeed 	5.6500000953674
scalar IntersectionExampleScenario.node[500].veinsmobility 	maxSpeed 	16.27499961853
scalar IntersectionExampleScenario.node[500].veinsmobility 	totalDistance 	243.73484039307
scalar IntersectionExampleScenario.node[500].veinsmobility 	totalCO2Emission 	63.00649553547
scalar IntersectionExampleScenario.node[501].appl 	VehicleRemoved 	0
scalar IntersectionExampleScenario.node[501].appl 	ArrivedAtDest 	0
scalar IntersectionExampleScenario.node[501].appl 	IntersectionEnterTime 	1783.5
scalar IntersectionExampleScenario.node[501].appl 	IntersectionExitTime 	-1
scalar IntersectionExampleScenario.node[501].appl 	NumberOfCollisions 	0
scalar IntersectionExampleScenario.node[501].nic.phy80211p 	busyTime 	0
scalar IntersectionExampleScenario.node[501].nic.mac1609_4 	ReceivedUnicastPackets 	0
scalar IntersectionExampleScenario.node[501].nic.mac1609_4 	ReceivedBroadcasts 	0
scalar IntersectionExampleScenario.node[501].nic.mac1609_4 	SentPackets 	0
scalar IntersectionExampleScenario.node[501].nic.mac1609_4 	SNIRLostPackets 	0
scalar IntersectionExampleScenario.node[501].nic.mac1609_4 	RXTXLostPackets 	0
scalar IntersectionExampleScenario.node[501].nic.mac1609_4 	TotalLostPackets 	0
scalar IntersectionExampleScenario.node[501].nic.mac1609_4 	DroppedPacketsInMac 	0
scalar IntersectionExampleScenario.node[501].nic.mac1609_4 	TooLittleTime 	0
scalar IntersectionExampleScenario.node[501].nic.mac1609_4 	TimesIntoBackoff 	0
scalar IntersectionExampleScenario.node[501].nic.mac1609_4 	SlotsBackoff 	0
scalar IntersectionExampleScenario.node[501].nic.mac1609_4 	NumInternalContention 	0
scalar IntersectionExampleScenario.node[501].nic.mac1609_4 	totalBusyTime 	0
scalar IntersectionExampleScenario.node[501].veinsmobility 	startTime 	1783.5
scalar IntersectionExampleScenario.node[501].veinsmobility 	totalTime 	16.5
scalar IntersectionExampleScenario.node[501].veinsmobility 	stopTime 	1800
scalar IntersectionExampleScenario.node[501].veinsmobility 	minSpeed 	5.6500000953674
scalar IntersectionExampleScenario.node[501].veinsmobility 	maxSpeed 	15.64999961853
scalar IntersectionExampleScenario.node[501].veinsmobility 	totalDistance 	234.78991699219
scalar IntersectionExampleScenario.node[501].veinsmobility 	totalCO2Emission 	60.363216319825
scalar IntersectionExampleScenario.node[502].appl 	VehicleRemoved 	0
scalar IntersectionExampleScenario.node[502].appl 	ArrivedAtDest 	0
scalar IntersectionExampleScenario.node[502].appl 	IntersectionEnterTime 	1785.25
scalar IntersectionExampleScenario.node[502].appl 	IntersectionExitTime 	-1
scalar IntersectionExampleScenario.node[502].appl 	NumberOfCollisions 	0
scalar IntersectionExampleScenario.node[502].nic.phy80211p 	busyTime 	0
scalar IntersectionExampleScenario.node[502].nic.mac1609_4 	ReceivedUnicastPackets 	0
scalar IntersectionExampleScenario.node[502].nic.mac1609_4 	ReceivedBroadcasts 	0
scalar IntersectionExampleScenario.node[502].nic.mac1609_4 	SentPackets 	0
scalar IntersectionExampleScenario.node[502].nic.mac1609_4 	SNIRLostPackets 	0
scalar IntersectionExampleScenario.node[502].nic.mac1609_4 	RXTXLostPackets 	0
scalar IntersectionExampleScenario.node[502].nic.mac1609_4 	TotalLostPackets 	0
scalar IntersectionExampleScenario.node[502].nic.mac1609_4 	DroppedPacketsInMac 	0
scalar IntersectionExampleScenario.node[502].nic.mac1609_4 	TooLittleTime 	0
scalar IntersectionExampleScenario.node[502].nic.mac1609_4 	TimesIntoBackoff 	0
scalar IntersectionExampleScenario.node[502].nic.mac1609_4 	SlotsBackoff 	0
scalar IntersectionExampleScenario.node[502].nic.mac1609_4 	NumInternalContention 	0
scalar IntersectionExampleScenario.node[502].nic.mac1609_4 	totalBusyTime 	0
scalar IntersectionExampleScenario.node[502].veinsmobility 	startTime 	1785.25
scalar IntersectionExampleScenario.node[502].veinsmobility 	totalTime 	14.75
scalar IntersectionExampleScenario.node[502].veinsmobility 	stopTime 	1800
scalar IntersectionExampleScenario.node[502].veinsmobility 	minSpeed 	5.6500000953674
scalar IntersectionExampleScenario.node[502].veinsmobility 	maxSpeed 	15.674669265747
scalar IntersectionExampleScenario.node[502].veinsmobility 	totalDistance 	199.25415039062
scalar IntersectionExampleScenario.node[502].veinsmobility 	totalCO2Emission 	54.669924635467
scalar IntersectionExampleScenario.node[503].appl 	VehicleRemoved 	0
scalar IntersectionExampleScenario.node[503].appl 	ArrivedAtDest 	0
scalar IntersectionExampleScenario.node[503].appl 	IntersectionEnterTime 	1787.25
scalar IntersectionExampleScenario.node[503].appl 	IntersectionExitTime 	-1
scalar IntersectionExampleScenario.node[503].appl 	NumberOfCollisions 	0
scalar IntersectionExampleScenario.node[503].nic.phy80211p 	busyTime 	0
scalar IntersectionExampleScenario.node[503].nic.mac1609_4 	ReceivedUnicastPackets 	0
scalar IntersectionExampleScenario.node[503].nic.mac1609_4 	ReceivedBroadcasts 	0
scalar IntersectionExampleScenario.node[503].nic.mac1609_4 	SentPackets 	0
scalar IntersectionExampleScenario.node[503].nic.mac1609_4 	SNIRLostPackets 	0
scalar IntersectionExampleScenario.node[503].nic.mac1609_4 	RXTXLostPackets 	0
scalar IntersectionExampleScenario.node[503].nic.mac1609_4 	TotalLostPackets 	0
scalar IntersectionExampleScenario.node[503].nic.mac1609_4 	DroppedPacketsInMac 	0
scalar IntersectionExampleScenario.node[503].nic.mac1609_4 	TooLittleTime 	0
scalar IntersectionExampleScenario.node[503].nic.mac1609_4 	TimesIntoBackoff 	0
scalar IntersectionExampleScenario.node[503].nic.mac1609_4 	SlotsBackoff 	0
scalar IntersectionExampleScenario.node[503].nic.mac1609_4 	NumInternalContention 	0
scalar IntersectionExampleScenario.node[503].nic.mac1609_4 	totalBusyTime 	0
scalar IntersectionExampleScenario.node[503].veinsmobility 	startTime 	1787.25
scalar IntersectionExampleScenario.node[503].veinsmobility 	totalTime 	12.75
scalar IntersectionExampleScenario.node[503].veinsmobility 	stopTime 	1800
scalar IntersectionExampleScenario.node[503].veinsmobility 	minSpeed 	5.6500000953674
scalar IntersectionExampleScenario.node[503].veinsmobility 	maxSpeed 	15.02499961853
scalar IntersectionExampleScenario.node[503].veinsmobility 	totalDistance 	168.54138183594
scalar IntersectionExampleScenario.node[503].veinsmobility 	totalCO2Emission 	47.79595334397
