file 15248644 1591474476                                        
version 2
run nodebug-43-20200606-16:12:24-20656
attr configname nodebug
attr datetime 20200606-16:12:24
attr experiment nodebug
attr inifile omnetpp.ini
attr iterationvars ""
attr iterationvars2 $repetition=43
attr measurement ""
attr network "\"org.car2x.veins.modules.application.ExtTraCIScenarioManagerLaunchd.IntersectionExampleScenario\""
attr processid 20656
attr repetition 43
attr replication #43
attr resultdir results
attr runnumber 43
attr seedset 43
param **.coreDebug false
param **.debug false
param *.**.nic.mac1609_4.bitrate 18Mbps
param *.**.nic.mac1609_4.txPower 20mW
param *.**.nic.mac1609_4.useServiceChannel false
param *.**.nic.phy80211p.analogueModels "xmldoc(\"config.xml\")"
param *.**.nic.phy80211p.decider "xmldoc(\"config.xml\")"
param *.**.nic.phy80211p.sensitivity -89dBm
param *.**.nic.phy80211p.thermalNoise -110dBm
param *.**.nic.phy80211p.usePropagationDelay true
param *.**.nic.phy80211p.useThermalNoise true
param *.annotations.draw false
param *.connectionManager.alpha 2.0
param *.connectionManager.carrierFrequency "5.890e9 Hz"
param *.connectionManager.pMax 20mW
param *.connectionManager.sat -89dBm
param *.connectionManager.sendDirect true
param *.manager.autoShutdown true
param *.manager.host "\"localhost\""
param *.manager.launchConfig "xmldoc(\"paramics.launchd.xml\")"
param *.manager.margin 25
param *.manager.moduleDisplayString "\"\""
param *.manager.moduleName "\"node\""
param *.manager.moduleType "\"org.car2x.veins.nodes.Car\""
param *.manager.port 9999
param *.manager.updateInterval 250ms
param *.node[*0].veinsmobility.accidentCount 0
param *.node[*0].veinsmobility.accidentDuration 30s
param *.node[*0].veinsmobility.accidentStart 75s
param *.node[*].appl.LiderSelectZoneRadio 55.0
param *.node[*].appl.ShareDataZoneRadio 110.0
param *.node[*].appl.TiempoSemaforo 30.0
param *.node[*].appl.beaconInterval 1s
param *.node[*].appl.beaconPriority 3
param *.node[*].appl.dataOnSch false
param *.node[*].appl.dataPriority 2
param *.node[*].appl.debug false
param *.node[*].appl.headerLength "256 bit"
param *.node[*].appl.maxOffset 0.005s
param *.node[*].appl.sendBeacons false
param *.node[*].appl.sendData true
param *.node[*].applType "\"Dummy\""
param *.node[*].mobilityType "\"TraCIMobility\""
param *.node[*].mobilityType.debug true
param *.node[*].veinsmobility.x 0
param *.node[*].veinsmobility.y 0
param *.node[*].veinsmobility.z 1.895
param *.node[*].veinsmobilityType "\"org.car2x.veins.modules.mobility.traci.TraCIMobility\""
param *.node[*].veinsmobilityType.debug true
param *.playgroundSizeX 8500m
param *.playgroundSizeY 8500m
param *.playgroundSizeZ 50m
param *.world.use2D false
param *.world.useTorus false

vector 49415  IntersectionExampleScenario.manager  vehiclesinsim  ETV
attr type  int
vector 49416  IntersectionExampleScenario.manager  realtime  ETV
attr type  int
attr unit  s
vector 49419  IntersectionExampleScenario.node[0].veinsmobility  posx  ETV
vector 49420  IntersectionExampleScenario.node[0].veinsmobility  posy  ETV
vector 49421  IntersectionExampleScenario.node[0].veinsmobility  speed  ETV
vector 49422  IntersectionExampleScenario.node[0].veinsmobility  acceleration  ETV
vector 49423  IntersectionExampleScenario.node[0].veinsmobility  co2emission  ETV
vector 49426  IntersectionExampleScenario.node[1].veinsmobility  posx  ETV
vector 49427  IntersectionExampleScenario.node[1].veinsmobility  posy  ETV
vector 49428  IntersectionExampleScenario.node[1].veinsmobility  speed  ETV
vector 49429  IntersectionExampleScenario.node[1].veinsmobility  acceleration  ETV
vector 49430  IntersectionExampleScenario.node[1].veinsmobility  co2emission  ETV
vector 49433  IntersectionExampleScenario.node[2].veinsmobility  posx  ETV
vector 49434  IntersectionExampleScenario.node[2].veinsmobility  posy  ETV
vector 49435  IntersectionExampleScenario.node[2].veinsmobility  speed  ETV
vector 49436  IntersectionExampleScenario.node[2].veinsmobility  acceleration  ETV
vector 49437  IntersectionExampleScenario.node[2].veinsmobility  co2emission  ETV
vector 49440  IntersectionExampleScenario.node[3].veinsmobility  posx  ETV
vector 49441  IntersectionExampleScenario.node[3].veinsmobility  posy  ETV
vector 49442  IntersectionExampleScenario.node[3].veinsmobility  speed  ETV
vector 49443  IntersectionExampleScenario.node[3].veinsmobility  acceleration  ETV
vector 49444  IntersectionExampleScenario.node[3].veinsmobility  co2emission  ETV
vector 49447  IntersectionExampleScenario.node[4].veinsmobility  posx  ETV
vector 49448  IntersectionExampleScenario.node[4].veinsmobility  posy  ETV
vector 49449  IntersectionExampleScenario.node[4].veinsmobility  speed  ETV
vector 49450  IntersectionExampleScenario.node[4].veinsmobility  acceleration  ETV
vector 49451  IntersectionExampleScenario.node[4].veinsmobility  co2emission  ETV
vector 49454  IntersectionExampleScenario.node[5].veinsmobility  posx  ETV
vector 49455  IntersectionExampleScenario.node[5].veinsmobility  posy  ETV
vector 49461  IntersectionExampleScenario.node[6].veinsmobility  posx  ETV
vector 49462  IntersectionExampleScenario.node[6].veinsmobility  posy  ETV
vector 49456  IntersectionExampleScenario.node[5].veinsmobility  speed  ETV
vector 49457  IntersectionExampleScenario.node[5].veinsmobility  acceleration  ETV
vector 49458  IntersectionExampleScenario.node[5].veinsmobility  co2emission  ETV
vector 49463  IntersectionExampleScenario.node[6].veinsmobility  speed  ETV
vector 49464  IntersectionExampleScenario.node[6].veinsmobility  acceleration  ETV
vector 49465  IntersectionExampleScenario.node[6].veinsmobility  co2emission  ETV
vector 49468  IntersectionExampleScenario.node[7].veinsmobility  posx  ETV
vector 49469  IntersectionExampleScenario.node[7].veinsmobility  posy  ETV
vector 49470  IntersectionExampleScenario.node[7].veinsmobility  speed  ETV
vector 49471  IntersectionExampleScenario.node[7].veinsmobility  acceleration  ETV
vector 49472  IntersectionExampleScenario.node[7].veinsmobility  co2emission  ETV
vector 49475  IntersectionExampleScenario.node[8].veinsmobility  posx  ETV
vector 49476  IntersectionExampleScenario.node[8].veinsmobility  posy  ETV
vector 49482  IntersectionExampleScenario.node[9].veinsmobility  posx  ETV
vector 49483  IntersectionExampleScenario.node[9].veinsmobility  posy  ETV
vector 49477  IntersectionExampleScenario.node[8].veinsmobility  speed  ETV
vector 49484  IntersectionExampleScenario.node[9].veinsmobility  speed  ETV
vector 49478  IntersectionExampleScenario.node[8].veinsmobility  acceleration  ETV
vector 49479  IntersectionExampleScenario.node[8].veinsmobility  co2emission  ETV
vector 49485  IntersectionExampleScenario.node[9].veinsmobility  acceleration  ETV
vector 49486  IntersectionExampleScenario.node[9].veinsmobility  co2emission  ETV
vector 49489  IntersectionExampleScenario.node[10].veinsmobility  posx  ETV
vector 49490  IntersectionExampleScenario.node[10].veinsmobility  posy  ETV
vector 49491  IntersectionExampleScenario.node[10].veinsmobility  speed  ETV
vector 49492  IntersectionExampleScenario.node[10].veinsmobility  acceleration  ETV
vector 49493  IntersectionExampleScenario.node[10].veinsmobility  co2emission  ETV
vector 49496  IntersectionExampleScenario.node[11].veinsmobility  posx  ETV
vector 49497  IntersectionExampleScenario.node[11].veinsmobility  posy  ETV
vector 49503  IntersectionExampleScenario.node[12].veinsmobility  posx  ETV
vector 49504  IntersectionExampleScenario.node[12].veinsmobility  posy  ETV
vector 49498  IntersectionExampleScenario.node[11].veinsmobility  speed  ETV
vector 49510  IntersectionExampleScenario.node[13].veinsmobility  posx  ETV
vector 49511  IntersectionExampleScenario.node[13].veinsmobility  posy  ETV
vector 49499  IntersectionExampleScenario.node[11].veinsmobility  acceleration  ETV
vector 49500  IntersectionExampleScenario.node[11].veinsmobility  co2emission  ETV
vector 49505  IntersectionExampleScenario.node[12].veinsmobility  speed  ETV
vector 49506  IntersectionExampleScenario.node[12].veinsmobility  acceleration  ETV
vector 49507  IntersectionExampleScenario.node[12].veinsmobility  co2emission  ETV
vector 49512  IntersectionExampleScenario.node[13].veinsmobility  speed  ETV
vector 49513  IntersectionExampleScenario.node[13].veinsmobility  acceleration  ETV
vector 49514  IntersectionExampleScenario.node[13].veinsmobility  co2emission  ETV
49423	8500 5547 24 2138 4.75 50.5 184 0.973 11.450879080643 545.48403746452 2783.4887594928
49422	14047 5078 24 2138 4.75 50.5 184 -8.487024307251 4 37.15309715271 478.32413438468
49421	19125 5451 21 2138 4.5 50.5 185 0 15.375 2198.7463283539 30558.206619436
49420	24576 5958 18 2138 4.25 50.5 186 184.17810058594 486.85000610352 75817.61416626 32808776.409919
49419	30534 5972 18 2138 4.25 50.5 186 237.33026123047 486.85000610352 82027.658355713 37202728.020841
vector 49517  IntersectionExampleScenario.node[14].veinsmobility  posx  ETV
vector 49518  IntersectionExampleScenario.node[14].veinsmobility  posy  ETV
vector 49524  IntersectionExampleScenario.node[15].veinsmobility  posx  ETV
vector 49525  IntersectionExampleScenario.node[15].veinsmobility  posy  ETV
vector 49519  IntersectionExampleScenario.node[14].veinsmobility  speed  ETV
vector 49520  IntersectionExampleScenario.node[14].veinsmobility  acceleration  ETV
vector 49521  IntersectionExampleScenario.node[14].veinsmobility  co2emission  ETV
vector 49526  IntersectionExampleScenario.node[15].veinsmobility  speed  ETV
vector 49527  IntersectionExampleScenario.node[15].veinsmobility  acceleration  ETV
vector 49528  IntersectionExampleScenario.node[15].veinsmobility  co2emission  ETV
49430	37308 5053 115 2301 12 53 165 0.973 11.648172402475 520.93455002777 2918.9877615082
49429	42361 4966 115 2301 12 53 165 -2.7533226013184 2.5 39.190130233765 270.29067798255
49428	47327 5104 110 2301 11.75 53 166 5.6500000953674 15.64999961853 2203.1593637466 30639.033451051
49427	52431 5407 105 2301 11.5 53 167 184.17810058594 486.85000610352 66744.568847656 28449911.945927
49426	57838 5423 105 2301 11.5 53 167 238.4326171875 486.85000610352 73104.166473389 32954642.053264
49437	63261 5236 164 2454 14.25 55.25 165 0.973 11.00486315618 469.00860356098 2245.5279270841
49436	68497 4654 164 2454 14.25 55.25 165 -3.1030502319336 2.5 34.606801986694 200.18446670508
49435	73151 5129 157 2454 14 55.25 166 5.6500000953674 14.75 2210.9824504852 30132.149685156
49434	78280 5433 150 2454 13.75 55.25 167 483.14999389648 785.82187652588 95411.24659729 56349514.120995
49433	83713 5424 150 2454 13.75 55.25 167 483.14999389648 734.28851318359 89690.673828125 49193809.04628
vector 49531  IntersectionExampleScenario.node[16].veinsmobility  posx  ETV
vector 49532  IntersectionExampleScenario.node[16].veinsmobility  posy  ETV
vector 49533  IntersectionExampleScenario.node[16].veinsmobility  speed  ETV
vector 49534  IntersectionExampleScenario.node[16].veinsmobility  acceleration  ETV
vector 49535  IntersectionExampleScenario.node[16].veinsmobility  co2emission  ETV
49451	89538 4915 418 2805 22.25 60.25 153 0.97223939240464 11.648172402475 471.80125096764 2469.8143218926
49450	94453 4437 418 2805 22.25 60.25 153 -3.5467834472656 2.5 38.680875778198 197.15959754627
49449	98890 4813 407 2805 22 60.25 154 5.6500000953674 15.64999961853 2210.3583860397 32381.156427409
49448	103703 5043 396 2805 21.75 60.25 155 184.17810058594 731.58805847168 69392.785308838 35155219.938853
49447	108746 5075 396 2805 21.75 60.25 155 486.85000610352 486.85000610352 75461.750946045 36738553.908664
vector 49538  IntersectionExampleScenario.node[17].veinsmobility  posx  ETV
vector 49539  IntersectionExampleScenario.node[17].veinsmobility  posy  ETV
49465	113975 5086 483 2995 23.5 62.75 158 0.973 11.200708441096 456.54107379056 2202.2662479169
49464	119061 4601 483 2995 23.5 62.75 158 -3.1135139465332 2.5 36.134572982788 173.86244240209
49463	123662 4997 468 2995 23.25 62.75 159 5.6500000953674 15.02499961853 2211.1300582886 31269.268453343
49462	128659 5218 453 2995 23 62.75 160 238.03802490234 785.82187652588 83404.191413879 47699026.162201
49461	133877 5245 453 2995 23 62.75 160 483.14999389648 483.14999389648 77303.999023438 37349426.656348
vector 49540  IntersectionExampleScenario.node[17].veinsmobility  speed  ETV
vector 49545  IntersectionExampleScenario.node[18].veinsmobility  posx  ETV
vector 49546  IntersectionExampleScenario.node[18].veinsmobility  posy  ETV
vector 49541  IntersectionExampleScenario.node[17].veinsmobility  acceleration  ETV
vector 49542  IntersectionExampleScenario.node[17].veinsmobility  co2emission  ETV
vector 49547  IntersectionExampleScenario.node[18].veinsmobility  speed  ETV
vector 49548  IntersectionExampleScenario.node[18].veinsmobility  acceleration  ETV
vector 49549  IntersectionExampleScenario.node[18].veinsmobility  co2emission  ETV
49458	139770 5207 468 3080 23.25 63.75 163 0.97223939240464 11.648172402475 522.87303314907 2871.2444608906
49457	144977 4601 468 3080 23.25 63.75 163 -4.5 2.5 38.680875778198 272.77594776443
49456	149578 5094 453 3080 23 63.75 164 5.6500000953674 15.64999961853 2296.3601179123 33103.32436521
49455	154672 5379 440 3080 22.75 63.75 165 162.00311279297 486.87377929688 64247.683288574 27135670.584586
49454	160051 5403 440 3080 22.75 63.75 165 237.08911132812 486.85000610352 71980.918762207 32367921.116896
49444	165454 5773 315 3269 19.5 66 187 0.973 11.200708441096 546.80902764203 2642.9001202558
49443	171227 5487 315 3269 19.5 66 187 -6.7711477279663 4 36.98334312439 437.32955607512
49442	176714 5806 306 3269 19.25 66 188 0 15.148096084595 2212.2867219448 30532.442594259
49441	182520 6184 297 3269 19 66 189 486.85000610352 486.85000610352 92014.651153564 44797333.475726
49440	188704 6172 297 3269 19 66 189 236.80480957031 785.82187652588 97768.658699036 54799783.081299
vector 49552  IntersectionExampleScenario.node[19].veinsmobility  posx  ETV
vector 49553  IntersectionExampleScenario.node[19].veinsmobility  posy  ETV
vector 49554  IntersectionExampleScenario.node[19].veinsmobility  speed  ETV
vector 49555  IntersectionExampleScenario.node[19].veinsmobility  acceleration  ETV
vector 49556  IntersectionExampleScenario.node[19].veinsmobility  co2emission  ETV
vector 49559  IntersectionExampleScenario.node[20].veinsmobility  posx  ETV
vector 49560  IntersectionExampleScenario.node[20].veinsmobility  posy  ETV
vector 49561  IntersectionExampleScenario.node[20].veinsmobility  speed  ETV
vector 49562  IntersectionExampleScenario.node[20].veinsmobility  acceleration  ETV
vector 49563  IntersectionExampleScenario.node[20].veinsmobility  co2emission  ETV
vector 49566  IntersectionExampleScenario.node[21].veinsmobility  posx  ETV
vector 49567  IntersectionExampleScenario.node[21].veinsmobility  posy  ETV
vector 49568  IntersectionExampleScenario.node[21].veinsmobility  speed  ETV
49472	195910 5107 772 3524 28.25 68.75 163 0.973 11.200708441096 498.33522644555 2752.4902321732
49471	201017 4921 772 3524 28.25 68.75 163 -2.4385948181152 2.5 35.795072555542 232.95682019726
49470	205938 5179 755 3524 28 68.75 164 5.6500000953674 15.02499961853 2209.1493854523 30350.007563232
49469	211117 5430 738 3524 27.75 68.75 165 486.85000610352 486.85000610352 80330.25100708 39108783.193094
49468	216547 5417 738 3524 27.75 68.75 165 238.22424316406 785.82187652588 86129.478492737 49200149.500728
vector 49569  IntersectionExampleScenario.node[21].veinsmobility  acceleration  ETV
vector 49570  IntersectionExampleScenario.node[21].veinsmobility  co2emission  ETV
vector 49573  IntersectionExampleScenario.node[22].veinsmobility  posx  ETV
vector 49574  IntersectionExampleScenario.node[22].veinsmobility  posy  ETV
vector 49575  IntersectionExampleScenario.node[22].veinsmobility  speed  ETV
vector 49576  IntersectionExampleScenario.node[22].veinsmobility  acceleration  ETV
vector 49577  IntersectionExampleScenario.node[22].veinsmobility  co2emission  ETV
49486	222534 5184 1463 4585 39.25 79.75 163 0.973 11.810082123732 536.60748046058 2989.817827472
49485	227718 4825 1463 4585 39.25 79.75 163 -3.4420576095581 2.5 39.699392318726 361.34955283188
49484	232543 5155 1448 4585 39 79.75 164 3.587219953537 15.875 2187.5984842777 31305.608859613
49483	237698 5419 1433 4585 38.75 79.75 165 184.17810058594 483.15655517578 65964.78793335 28125306.520546
49482	243117 5440 1433 4585 38.75 79.75 165 486.85000610352 734.54981994629 88442.071456909 48341126.201417
vector 49580  IntersectionExampleScenario.node[23].veinsmobility  posx  ETV
vector 49581  IntersectionExampleScenario.node[23].veinsmobility  posy  ETV
vector 49582  IntersectionExampleScenario.node[23].veinsmobility  speed  ETV
vector 49583  IntersectionExampleScenario.node[23].veinsmobility  acceleration  ETV
vector 49584  IntersectionExampleScenario.node[23].veinsmobility  co2emission  ETV
49500	248958 4895 2043 5059 49 87 153 0.973 12.099024792222 503.8825726296 2905.9395801761
49499	253853 4634 2043 5059 49 87 153 -3.50390625 2.5 40.378400802612 257.23133760097
49498	258487 4784 2028 5059 48.75 87 154 5.6500000953674 16.27499961853 2201.2420482635 32538.13570716
49497	263271 5088 2015 5059 48.5 87 155 184.17810058594 486.85000610352 61637.167205811 26252816.583299
49496	268359 5109 2015 5059 48.5 87 155 238.58795166016 486.85000610352 67421.22467041 30237939.190745
vector 49587  IntersectionExampleScenario.node[24].veinsmobility  posx  ETV
vector 49588  IntersectionExampleScenario.node[24].veinsmobility  posy  ETV
vector 49589  IntersectionExampleScenario.node[24].veinsmobility  speed  ETV
vector 49590  IntersectionExampleScenario.node[24].veinsmobility  acceleration  ETV
vector 49591  IntersectionExampleScenario.node[24].veinsmobility  co2emission  ETV
49521	273869 4975 2249 5283 52.25 90.5 154 0.973 11.648172402475 472.37063277033 2468.6221642102
49520	278844 4502 2249 5283 52.25 90.5 154 -3.3639106750488 2.5 38.511121749878 193.7515100159
49519	283346 4879 2230 5283 52 90.5 155 5.6500000953674 15.64999961853 2221.4249238968 32483.241731561
49518	288225 5116 2213 5283 51.75 90.5 156 235.65411376953 785.82187652588 81264.277168274 46487544.880767
49517	293341 5148 2213 5283 51.75 90.5 156 483.14999389648 483.14999389648 75371.399047852 36415690.989939
49528	298489 5095 2267 5385 52.5 92 159 0.973 11.648172402475 493.79396532325 2654.6276209908
49527	303584 4826 2267 5385 52.5 92 159 -3.5165634155273 2.5 38.341367721558 234.55381226362
49526	308410 4994 2249 5385 52.25 92 160 5.6500000953674 15.64999961853 2238.5557003021 32239.085185584
49525	313404 5285 2230 5385 52 92 161 174.53436279297 487.06365966797 63420.299407959 26898255.193837
49524	318689 5305 2230 5385 52 92 161 238.43865966797 486.85000610352 70081.674285889 31451780.005838
vector 49594  IntersectionExampleScenario.node[25].veinsmobility  posx  ETV
vector 49595  IntersectionExampleScenario.node[25].veinsmobility  posy  ETV
vector 49596  IntersectionExampleScenario.node[25].veinsmobility  speed  ETV
vector 49597  IntersectionExampleScenario.node[25].veinsmobility  acceleration  ETV
vector 49598  IntersectionExampleScenario.node[25].veinsmobility  co2emission  ETV
49514	324395 5663 2077 5617 49.5 95.25 184 0.973 12.44402232946 583.13760764326 3206.5614501187
49513	330058 5446 2077 5617 49.5 95.25 184 -4.5 2.5 42.754949569702 484.25303443683
49512	335504 5662 2060 5617 49.25 95.25 185 0 16.75 2307.2331385016 33673.433817348
49511	341166 6137 2043 5617 49 95.25 186 483.14999389648 483.14999389648 89865.898864746 43418708.488004
49510	347303 6099 2043 5617 49 95.25 186 159.76721191406 731.55044555664 81198.480514526 39981799.820263
49479	353402 6780 1463 5668 39.25 96 228 0.973 11.200708441096 577.45510563807 2674.4336301736
49478	360182 5947 1463 5668 39.25 96 228 -28.605274200439 4 35.455564498901 1159.1236271101
49477	366129 6408 1448 5668 39 96 229 0 15.02499961853 2183.4082937241 29799.300878245
49476	372537 7523 1433 5668 38.75 96 230 486.85000610352 734.4461517334 120634.64945984 64373378.481305
49475	380060 7580 1433 5668 38.75 96 230 486.63604736328 785.82187652588 126935.66164398 72088987.732165
49507	387640 5830 2060 5668 49.25 96 188 0.973 11.200708441096 535.1763390446 2626.2678727063
49506	393470 5320 2060 5668 49.25 96 188 -7.2451009750366 4 35.455564498901 448.19107443402
49505	398790 5720 2043 5668 49 96 189 0 15.02499961853 2181.8694725037 29453.478786619
49504	404510 6205 2028 5668 48.75 96 190 235.55383300781 483.14999389648 83139.350738525 37411801.844118
49503	410715 6239 2028 5668 48.75 96 190 184.17810058594 483.36395263672 77261.777435303 33308861.862724
49493	416954 6880 1662 5748 42.5 97.25 220 0.973 11.820696214903 616.2392368901 2965.7962236495
49492	423834 7109 1662 5748 42.5 97.25 220 -4.5 2.5 40.68646812439 430.81525979917
49491	430943 7259 1645 5748 42.25 97.25 221 0 15.889728546143 2256.1785867233 31441.374767651
49490	438202 7316 1628 5748 42 97.25 222 235.56579589844 486.85000610352 99481.778594971 45692039.951617
49489	445518 7299 1628 5748 42 97.25 222 483.04522705078 797.07032012939 123614.68138885 70989991.307721
vector 49601  IntersectionExampleScenario.node[26].veinsmobility  posx  ETV
vector 49602  IntersectionExampleScenario.node[26].veinsmobility  posy  ETV
vector 49603  IntersectionExampleScenario.node[26].veinsmobility  speed  ETV
vector 49604  IntersectionExampleScenario.node[26].veinsmobility  acceleration  ETV
vector 49605  IntersectionExampleScenario.node[26].veinsmobility  co2emission  ETV
vector 49608  IntersectionExampleScenario.node[27].veinsmobility  posx  ETV
vector 49609  IntersectionExampleScenario.node[27].veinsmobility  posy  ETV
vector 49610  IntersectionExampleScenario.node[27].veinsmobility  speed  ETV
vector 49611  IntersectionExampleScenario.node[27].veinsmobility  acceleration  ETV
vector 49612  IntersectionExampleScenario.node[27].veinsmobility  co2emission  ETV
vector 49615  IntersectionExampleScenario.node[28].veinsmobility  posx  ETV
vector 49616  IntersectionExampleScenario.node[28].veinsmobility  posy  ETV
vector 49617  IntersectionExampleScenario.node[28].veinsmobility  speed  ETV
vector 49618  IntersectionExampleScenario.node[28].veinsmobility  acceleration  ETV
vector 49619  IntersectionExampleScenario.node[28].veinsmobility  co2emission  ETV
49542	454020 5037 3037 5997 63.25 102 156 0.973 11.54047740176 464.63231158543 2336.4085283449
49541	459057 4470 3037 5997 63.25 102 156 -2.906135559082 2.5 37.32285118103 179.22973075835
49540	463527 4952 3016 5997 63 102 157 5.6500000953674 15.5 2216.590294838 31875.992361842
49539	468479 5222 2995 5997 62.75 102 158 483.14999389648 483.14999389648 76337.699035645 36882558.823143
49538	473701 5149 2995 5997 62.75 102 158 184.17810058594 733.22798156738 70908.541702271 36014724.094117
vector 49622  IntersectionExampleScenario.node[29].veinsmobility  posx  ETV
vector 49623  IntersectionExampleScenario.node[29].veinsmobility  posy  ETV
vector 49624  IntersectionExampleScenario.node[29].veinsmobility  speed  ETV
vector 49625  IntersectionExampleScenario.node[29].veinsmobility  acceleration  ETV
vector 49626  IntersectionExampleScenario.node[29].veinsmobility  co2emission  ETV
vector 49629  IntersectionExampleScenario.node[30].veinsmobility  posx  ETV
vector 49630  IntersectionExampleScenario.node[30].veinsmobility  posy  ETV
vector 49631  IntersectionExampleScenario.node[30].veinsmobility  speed  ETV
vector 49632  IntersectionExampleScenario.node[30].veinsmobility  acceleration  ETV
vector 49633  IntersectionExampleScenario.node[30].veinsmobility  co2emission  ETV
49535	479652 6143 2747 6490 59.5 110 203 0.973 11.90022389248 582.16145231057 3072.2822000951
49534	485795 5756 2747 6490 59.5 110 203 -9.0596437454224 4 39.359884262085 502.00740959224
49533	491551 5938 2728 6490 59.25 110 204 0 16 2201.7095313072 31498.966972743
49532	497489 6787 2709 6490 59 110 205 483.14999389648 785.82187652588 113820.84175873 65150947.286476
49531	504276 6791 2709 6490 59 110 205 483.14999389648 732.61070251465 107278.95166016 57178156.044508
vector 49636  IntersectionExampleScenario.node[31].veinsmobility  posx  ETV
vector 49637  IntersectionExampleScenario.node[31].veinsmobility  posy  ETV
vector 49643  IntersectionExampleScenario.node[32].veinsmobility  posx  ETV
vector 49644  IntersectionExampleScenario.node[32].veinsmobility  posy  ETV
vector 49638  IntersectionExampleScenario.node[31].veinsmobility  speed  ETV
vector 49645  IntersectionExampleScenario.node[32].veinsmobility  speed  ETV
vector 49639  IntersectionExampleScenario.node[31].veinsmobility  acceleration  ETV
vector 49640  IntersectionExampleScenario.node[31].veinsmobility  co2emission  ETV
vector 49646  IntersectionExampleScenario.node[32].veinsmobility  acceleration  ETV
vector 49647  IntersectionExampleScenario.node[32].veinsmobility  co2emission  ETV
49549	511869 6022 3080 6670 63.75 112.75 197 0.973 11.810082123732 579.26895554505 3063.5183044147
49548	517891 5487 3080 6670 63.75 112.75 197 -6.9388580322266 4 39.869146347046 500.33920264231
49547	523378 5833 3059 6670 63.5 112.75 198 0 15.875 2180.9024100304 31290.616523596
49546	529211 6595 3037 6670 63.25 112.75 199 184.17810058594 483.24322509766 82014.162689209 35698201.033663
49545	535806 6614 3037 6670 63.25 112.75 199 486.85000610352 733.10589599609 104873.93127441 56255366.406967
49563	542420 5818 3472 6755 68.25 114 184 0.973 11.90022389248 558.36767422824 3033.2663749909
49562	548238 5623 3472 6755 68.25 114 184 -4.5 2.5000009536743 39.869146347046 454.55810605843
49561	553861 5918 3447 6755 68 114 185 0 16 2112.4661502577 29872.436158051
49560	559779 6164 3422 6755 67.75 114 186 207.19921875 487.04776000977 77654.275115967 33944900.389674
49559	565943 6193 3422 6755 67.75 114 186 237.09869384766 486.85000610352 82362.178436279 37472522.077012
49570	572136 5614 3551 6772 69 114.25 182 0.973 12.099024792222 577.54402856911 3150.1784023423
49569	577750 5758 3551 6772 69 114.25 182 -4.5 2.5 40.038900375366 380.34043904374
49568	583508 6071 3524 6772 68.75 114.25 183 4.288782119751 16.27499961853 2214.2867598534 29912.687368994
49567	589579 6111 3497 6772 68.5 114.25 184 483.13250732422 785.82187652588 103836.34848785 60427396.858521
49566	595690 6115 3497 6772 68.5 114.25 184 483.14999389648 734.71868896484 97272.02722168 52433127.374232
vector 49650  IntersectionExampleScenario.node[33].veinsmobility  posx  ETV
vector 49651  IntersectionExampleScenario.node[33].veinsmobility  posy  ETV
vector 49652  IntersectionExampleScenario.node[33].veinsmobility  speed  ETV
vector 49653  IntersectionExampleScenario.node[33].veinsmobility  acceleration  ETV
vector 49654  IntersectionExampleScenario.node[33].veinsmobility  co2emission  ETV
49577	602206 4928 4304 6846 76.5 115.25 156 0.973 11.990504229548 545.23358952629 3446.5471668266
49576	607134 4678 4304 6846 76.5 115.25 156 -4.5 2.5 39.699392318726 292.98493137933
49575	611812 4992 4281 6846 76.25 115.25 157 5.6500000953674 16.125 2222.6661863327 32186.818621713
49574	616804 5241 4258 6846 76 115.25 158 235.46612548828 785.82187652588 82669.825050354 47383118.601869
49573	622045 5275 4258 6846 76 115.25 158 483.14999389648 483.14999389648 76337.699035645 36882558.823143
vector 49657  IntersectionExampleScenario.node[34].veinsmobility  posx  ETV
vector 49658  IntersectionExampleScenario.node[34].veinsmobility  posy  ETV
49556	627474 6174 3399 6960 67.5 116.75 198 0.973 11.810082123732 569.28381621892 2909.9663266254
49555	633648 6199 3399 6960 67.5 116.75 198 -4.5 2.5 38.680875778198 366.99988047329
49554	639847 6345 3376 6960 67.25 116.75 199 1.3619740009308 15.875 2210.1782656908 29243.813682446
49553	646192 6659 3353 6960 67 116.75 200 176.21716308594 483.14999389648 80064.046539307 34122431.687515
49552	652851 6562 3353 6960 67 116.75 200 486.85000610352 731.95562744141 105435.42605591 56571185.528151
vector 49659  IntersectionExampleScenario.node[34].veinsmobility  speed  ETV
vector 49660  IntersectionExampleScenario.node[34].veinsmobility  acceleration  ETV
vector 49661  IntersectionExampleScenario.node[34].veinsmobility  co2emission  ETV
vector 49664  IntersectionExampleScenario.node[35].veinsmobility  posx  ETV
vector 49665  IntersectionExampleScenario.node[35].veinsmobility  posy  ETV
vector 49666  IntersectionExampleScenario.node[35].veinsmobility  speed  ETV
vector 49667  IntersectionExampleScenario.node[35].veinsmobility  acceleration  ETV
vector 49668  IntersectionExampleScenario.node[35].veinsmobility  co2emission  ETV
vector 49671  IntersectionExampleScenario.node[36].veinsmobility  posx  ETV
vector 49672  IntersectionExampleScenario.node[36].veinsmobility  posy  ETV
vector 49673  IntersectionExampleScenario.node[36].veinsmobility  speed  ETV
vector 49674  IntersectionExampleScenario.node[36].veinsmobility  acceleration  ETV
vector 49675  IntersectionExampleScenario.node[36].veinsmobility  co2emission  ETV
49584	660462 5373 4813 7641 83.25 124.25 165 0.973 11.200708441096 489.24583359627 2471.5767355219
49583	665835 4867 4813 7641 83.25 124.25 165 -3.2952842712402 2.5 35.625318527222 252.82269031127
49582	670702 5269 4796 7641 83 124.25 166 5.6500000953674 15.02499961853 2181.7937364578 29821.532476815
49581	675971 5603 4779 7641 82.75 124.25 167 486.71420288086 785.82187652588 95522.59311676 56422413.073475
49580	681574 5600 4779 7641 82.75 124.25 167 237.38464355469 483.14999389648 72167.808288574 32144133.077836
49591	687174 4917 5198 7831 89.25 126.5 150 0.973 12.099024792222 489.95101366324 2636.9749717456
49590	692091 4852 5198 7831 89.25 126.5 150 -3.6645164489746 2.5 41.057416915894 204.82400567757
49589	696943 4860 5181 7831 89 126.5 151 5.6500000953674 16.27499961853 2220.9295158386 33454.4600636
49588	701803 5123 5164 7831 88.75 126.5 152 486.85000610352 486.85000610352 74001.200927734 36027485.123335
49587	706926 5112 5164 7831 88.75 126.5 152 235.97448730469 785.82187652588 79288.760398865 45394765.420053
vector 49678  IntersectionExampleScenario.node[37].veinsmobility  posx  ETV
vector 49679  IntersectionExampleScenario.node[37].veinsmobility  posy  ETV
vector 49680  IntersectionExampleScenario.node[37].veinsmobility  speed  ETV
vector 49681  IntersectionExampleScenario.node[37].veinsmobility  acceleration  ETV
vector 49682  IntersectionExampleScenario.node[37].veinsmobility  co2emission  ETV
vector 49685  IntersectionExampleScenario.node[38].veinsmobility  posx  ETV
vector 49686  IntersectionExampleScenario.node[38].veinsmobility  posy  ETV
vector 49687  IntersectionExampleScenario.node[38].veinsmobility  speed  ETV
vector 49692  IntersectionExampleScenario.node[39].veinsmobility  posx  ETV
vector 49693  IntersectionExampleScenario.node[39].veinsmobility  posy  ETV
vector 49688  IntersectionExampleScenario.node[38].veinsmobility  acceleration  ETV
vector 49689  IntersectionExampleScenario.node[38].veinsmobility  co2emission  ETV
vector 49694  IntersectionExampleScenario.node[39].veinsmobility  speed  ETV
vector 49695  IntersectionExampleScenario.node[39].veinsmobility  acceleration  ETV
vector 49696  IntersectionExampleScenario.node[39].veinsmobility  co2emission  ETV
vector 49699  IntersectionExampleScenario.node[40].veinsmobility  posx  ETV
vector 49700  IntersectionExampleScenario.node[40].veinsmobility  posy  ETV
vector 49701  IntersectionExampleScenario.node[40].veinsmobility  speed  ETV
vector 49702  IntersectionExampleScenario.node[40].veinsmobility  acceleration  ETV
vector 49703  IntersectionExampleScenario.node[40].veinsmobility  co2emission  ETV
49598	713642 5943 5491 8855 93.5 140.25 188 0.973 11.648172402475 561.08427313783 2949.2782042191
49597	719585 5498 5491 8855 93.5 140.25 188 -7.7750473022461 4 38.511121749878 480.0267975717
49596	725083 5845 5472 8855 93.25 140.25 189 0 15.64999961853 2214.2518191338 31459.954721098
49595	730928 6416 5453 8855 93 140.25 190 236.02325439453 785.82187652588 98273.668952942 54991137.234909
49594	737344 6431 5453 8855 93 140.25 190 483.14999389648 483.14999389648 91798.498840332 44352444.154413
49619	743775 5440 5958 8991 101.25 142.25 165 0.973 11.200708441096 491.93571739796 2491.2711516889
49618	749215 4934 5958 8991 101.25 142.25 165 -3.1941432952881 2.5 35.625318527222 257.90170219875
49617	754149 5335 5945 8991 101 142.25 166 5.6500000953674 15.02499961853 2179.3884291649 29743.670855384
49616	759484 5659 5932 8991 100.75 142.25 167 184.17810058594 483.14999389648 66453.426147461 28225942.237888
49615	765143 5627 5932 8991 100.75 142.25 167 486.85000610352 732.23100280762 89793.56867981 49234481.301706
49605	770770 5711 5808 9019 98.25 142.75 179 0.973 11.200708441096 515.98785001819 2613.7359634515
49604	776481 5546 5808 9019 98.25 142.75 179 -2.7768974304199 2.5 35.795072555542 295.98024134323
49603	782027 5802 5794 9019 98 142.75 180 3.4134609699249 15.02499961853 2179.9695622921 28707.432871046
49602	787829 6130 5778 9019 97.75 142.75 181 486.85000610352 785.82187652588 102837.41214752 60243082.59067
49601	793959 6135 5778 9019 97.75 142.75 181 238.05438232422 483.14999389648 79009.36328125 35471721.024028
49612	800094 5681 5921 9084 100.5 144 175 0.973 11.54047740176 568.62402523151 3148.7464606049
49611	805775 5242 5921 9084 100.5 144 175 -4.5 2.5 38.341367721558 377.56525310094
49610	811017 5747 5909 9084 100.25 144 176 5.6000137329102 15.5 2288.3706879616 31488.311685895
49609	816764 6002 5896 9084 100 144 177 235.43548583984 802.70781707764 94034.046333313 54525373.387382
49608	822766 6016 5896 9084 100 144 177 483.14999389648 483.14999389648 85517.548919678 41317803.238584
49626	828782 5651 6066 9240 103.25 147 176 0.973 11.648172402475 566.45552629546 3113.3000887535
49625	834433 5644 6066 9240 103.25 147 176 -4.5 2.5 38.850629806519 352.34198909562
49624	840077 5702 6051 9240 103 147 177 5.6500000953674 15.64999961853 2280.481906414 31058.691280462
49623	845779 6036 6036 9240 102.75 147 178 486.78512573242 808.48828887939 103203.06548309 61940620.350757
49622	851815 6048 6036 9240 102.75 147 178 235.57873535156 483.14999389648 77777.649932861 34955891.962828
vector 49706  IntersectionExampleScenario.node[41].veinsmobility  posx  ETV
vector 49707  IntersectionExampleScenario.node[41].veinsmobility  posy  ETV
vector 49708  IntersectionExampleScenario.node[41].veinsmobility  speed  ETV
vector 49709  IntersectionExampleScenario.node[41].veinsmobility  acceleration  ETV
vector 49710  IntersectionExampleScenario.node[41].veinsmobility  co2emission  ETV
49640	858264 5064 6585 9444 111.5 150.5 157 0.973 11.90022389248 502.61754879188 2995.3514260534
49639	863328 5014 6585 9444 111.5 150.5 157 -3.4293632507324 2.5 39.020376205444 260.09990586664
49638	868342 5069 6568 9444 111.25 150.5 158 5.6500000953674 16 2215.881316185 32033.633816599
49637	873411 5397 6550 9444 111 150.5 159 483.14999389648 785.82187652588 90979.692451477 53833592.718242
49636	878808 5399 6550 9444 111 150.5 159 483.14999389648 735.07514953613 85260.789138794 46688303.003426
49647	884207 5381 6585 9519 111.5 151.75 162 0.973 11.200708441096 475.03137782426 2389.4652153338
49646	889588 5135 6585 9519 111.5 151.75 162 -3.8591384887695 2.5 35.625318527222 224.01512352619
49645	894723 5270 6568 9519 111.25 151.75 163 5.6500000953674 15.02499961853 2206.2620840073 30599.15895087
49644	899993 5548 6550 9519 111 151.75 164 184.17810058594 487.05990600586 65324.353942871 27834193.962928
49643	905541 5572 6550 9519 111 151.75 164 236.58654785156 486.85000610352 71048.972015381 31776874.419465
vector 49713  IntersectionExampleScenario.node[42].veinsmobility  posx  ETV
vector 49714  IntersectionExampleScenario.node[42].veinsmobility  posy  ETV
49633	911267 6189 6190 9681 105.25 154.75 199 0.973 12.099024792222 593.2998093247 3091.3066841262
49632	917456 5973 6190 9681 105.25 154.75 199 -6.9978852272034 4 41.227170944214 481.51467281126
49631	923429 6040 6173 9681 105 154.75 200 0 16.27499961853 2212.3789025545 32432.953921457
49630	929469 6835 6156 9681 104.75 154.75 201 486.85000610352 486.85000610352 97856.851226807 47641608.617041
49629	936304 6817 6156 9681 104.75 154.75 201 236.880859375 785.82187652588 103818.86399078 57653657.128878
vector 49715  IntersectionExampleScenario.node[42].veinsmobility  speed  ETV
vector 49716  IntersectionExampleScenario.node[42].veinsmobility  acceleration  ETV
vector 49717  IntersectionExampleScenario.node[42].veinsmobility  co2emission  ETV
vector 49720  IntersectionExampleScenario.node[43].veinsmobility  posx  ETV
vector 49721  IntersectionExampleScenario.node[43].veinsmobility  posy  ETV
vector 49722  IntersectionExampleScenario.node[43].veinsmobility  speed  ETV
vector 49723  IntersectionExampleScenario.node[43].veinsmobility  acceleration  ETV
vector 49724  IntersectionExampleScenario.node[43].veinsmobility  co2emission  ETV
49668	943769 5027 7238 9851 120 158.25 154 0.973 12.26218747632 523.57545090993 3144.7925962108
49667	948796 4827 7238 9851 120 158.25 154 -3.4394798278809 2.5 41.227170944214 302.80224814944
49666	953623 4934 7214 9851 119.75 158.25 155 5.6500000953674 16.5 2175.8512306213 32142.649363025
49665	958557 5300 7191 9851 119.5 158.25 156 238.94183349609 483.14999389648 67670.491485596 30222946.555156
49664	963857 5277 7191 9851 119.5 158.25 156 184.17810058594 483.14999389648 61924.894622803 26282376.759348
49661	969134 5472 7002 9895 117.25 159.25 169 0.973 11.36141391502 552.11624481759 3145.6899090778
49660	974606 5016 7002 9895 117.25 159.25 169 -3.5094184875488 2.5 37.492597579956 353.60610787204
49659	979622 5454 6981 9895 117 159.25 170 5.6500000953674 15.25 2191.3182926178 29691.085046311
49658	985076 5802 6960 9895 116.75 159.25 171 486.85000610352 735.14894104004 91683.208953857 50132437.324992
49657	990878 5803 6960 9895 116.75 159.25 171 486.85000610352 785.82187652588 97674.108192444 57557330.71727
vector 49727  IntersectionExampleScenario.node[44].veinsmobility  posx  ETV
vector 49728  IntersectionExampleScenario.node[44].veinsmobility  posy  ETV
vector 49729  IntersectionExampleScenario.node[44].veinsmobility  speed  ETV
vector 49730  IntersectionExampleScenario.node[44].veinsmobility  acceleration  ETV
vector 49731  IntersectionExampleScenario.node[44].veinsmobility  co2emission  ETV
vector 49734  IntersectionExampleScenario.node[45].veinsmobility  posx  ETV
vector 49735  IntersectionExampleScenario.node[45].veinsmobility  posy  ETV
vector 49736  IntersectionExampleScenario.node[45].veinsmobility  speed  ETV
vector 49737  IntersectionExampleScenario.node[45].veinsmobility  acceleration  ETV
vector 49738  IntersectionExampleScenario.node[45].veinsmobility  co2emission  ETV
vector 49741  IntersectionExampleScenario.node[46].veinsmobility  posx  ETV
vector 49742  IntersectionExampleScenario.node[46].veinsmobility  posy  ETV
vector 49743  IntersectionExampleScenario.node[46].veinsmobility  speed  ETV
vector 49744  IntersectionExampleScenario.node[46].veinsmobility  acceleration  ETV
vector 49745  IntersectionExampleScenario.node[46].veinsmobility  co2emission  ETV
vector 49748  IntersectionExampleScenario.node[47].veinsmobility  posx  ETV
vector 49749  IntersectionExampleScenario.node[47].veinsmobility  posy  ETV
vector 49750  IntersectionExampleScenario.node[47].veinsmobility  speed  ETV
vector 49751  IntersectionExampleScenario.node[47].veinsmobility  acceleration  ETV
vector 49752  IntersectionExampleScenario.node[47].veinsmobility  co2emission  ETV
vector 49755  IntersectionExampleScenario.node[48].veinsmobility  posx  ETV
vector 49756  IntersectionExampleScenario.node[48].veinsmobility  posy  ETV
vector 49757  IntersectionExampleScenario.node[48].veinsmobility  speed  ETV
vector 49758  IntersectionExampleScenario.node[48].veinsmobility  acceleration  ETV
vector 49759  IntersectionExampleScenario.node[48].veinsmobility  co2emission  ETV
49675	998686 5983 7541 10460 123.25 170 188 0.973 11.810082123732 569.7339259185 3051.3183030552
49674	1004669 5451 7541 10460 123.25 170 188 -6.9388580322266 4 39.869146347046 481.49561179219
49673	1010120 5809 7516 10460 123 170 189 0 15.875 2183.3810305595 31318.381281911
49672	1015929 6471 7491 10460 122.75 170 190 184.17810058594 483.36395263672 77771.934509277 33698635.035447
49671	1022400 6423 7491 10460 122.75 170 190 486.85000610352 734.37205505371 100576.26148987 54224163.946196
49654	1028823 6823 6827 10476 115 170.25 222 0.973 11.810082123732 599.42392522979 3089.8988830802
49653	1035646 6448 6827 10476 115 170.25 222 -23.221599578857 4 38.511121749878 941.69101968132
49652	1042094 6475 6808 10476 114.75 170.25 223 0 15.875 2222.6100358963 31715.382919665
49651	1048569 7640 6789 10476 114.5 170.25 224 486.63604736328 795.46562957764 124371.72463989 71208949.192507
49650	1056209 7573 6789 10476 114.5 170.25 224 235.74822998047 483.14999389648 99997.404785156 45691881.085996
49682	1063782 5582 8052 10596 129.5 172.25 172 0.973 11.200708441096 519.82344578467 2705.1463062166
49681	1069364 5319 8052 10596 129.5 172.25 172 -3.8036575317383 2.5 36.813589096069 278.2191991207
49680	1074683 5710 8033 10596 129.25 172.25 173 4.9215245246887 15.02499961853 2215.4465169907 29968.922997003
49679	1080393 5925 8014 10596 129 172.25 174 184.17810058594 732.69201660156 77945.90725708 39128078.820105
49678	1086318 5958 8014 10596 129 172.25 174 486.85000610352 486.85000610352 84711.901062012 41241989.549081
49696	1092276 5613 8207 10731 131.5 174.5 173 0.973 11.200708441096 527.72699511235 2836.1456924058
49695	1097889 5378 8207 10731 131.5 174.5 173 -3.1387672424316 2.5 35.625318527222 308.55826079122
49694	1103267 5663 8186 10731 131.25 174.5 174 5.6500000953674 15.02499961853 2178.4436702728 28659.329525236
49693	1108930 5991 8165 10731 131 174.5 175 486.82223510742 785.82187652588 99914.511451721 58833697.386186
49692	1114921 5990 8165 10731 131 174.5 175 238.04333496094 483.14999389648 76081.741851807 34047514.313994
49689	1120911 5910 8165 10821 131 176 181 0.973 11.200708441096 594.16344586572 3159.5690109286
49688	1126821 5926 8165 10821 131 176 181 -4.5 2.5 38.330003738403 439.02334467376
49687	1132747 6195 8146 10821 130.75 176 182 5.0178928375244 15.318055152893 2288.7849292755 30801.241108126
49686	1138942 6247 8127 10821 130.5 176 183 163.88433837891 486.85000610352 72004.285888672 30468195.027567
49685	1145189 6268 8127 10821 130.5 176 183 236.73114013672 486.85000610352 80597.901275635 36510100.394209
49703	1151457 5355 8804 11016 139.5 179.25 160 0.973 11.450879080643 488.51013157715 2564.7422228888
49702	1156812 5189 8804 11016 139.5 179.25 160 -3.7743530273438 2.5 36.813589096069 233.63101206095
49701	1162001 5256 8786 11016 139.25 179.25 161 5.6500000953674 15.375 2209.4684343338 31133.06869086
49700	1167257 5570 8767 11016 139 179.25 162 482.95568847656 785.82187652588 92635.923225403 54770163.364414
49699	1172827 5568 8767 11016 139 179.25 162 483.14999389648 734.31672668457 86953.421783447 47661668.078666
49710	1178395 5045 9309 11325 148.25 185.5 150 0.973 12.099024792222 500.13823515489 2736.2472547841
49709	1183440 4940 9309 11325 148.25 185.5 150 -3.0192260742188 2.5 41.057416915894 213.15533004242
49708	1188380 5012 9294 11325 148 185.5 151 5.6500000953674 16.27499961853 2217.1345243454 33328.681608734
49707	1193392 5264 9279 11325 147.75 185.5 152 483.14999389648 483.14999389648 73438.799072266 35481955.32353
49706	1198656 5236 9279 11325 147.75 185.5 152 184.17810058594 732.99070739746 68058.49647522 34485627.819514
vector 49762  IntersectionExampleScenario.node[49].veinsmobility  posx  ETV
vector 49763  IntersectionExampleScenario.node[49].veinsmobility  posy  ETV
vector 49764  IntersectionExampleScenario.node[49].veinsmobility  speed  ETV
vector 49765  IntersectionExampleScenario.node[49].veinsmobility  acceleration  ETV
vector 49766  IntersectionExampleScenario.node[49].veinsmobility  co2emission  ETV
vector 49769  IntersectionExampleScenario.node[50].veinsmobility  posx  ETV
vector 49770  IntersectionExampleScenario.node[50].veinsmobility  posy  ETV
vector 49771  IntersectionExampleScenario.node[50].veinsmobility  speed  ETV
vector 49772  IntersectionExampleScenario.node[50].veinsmobility  acceleration  ETV
vector 49773  IntersectionExampleScenario.node[50].veinsmobility  co2emission  ETV
vector 49776  IntersectionExampleScenario.node[51].veinsmobility  posx  ETV
vector 49777  IntersectionExampleScenario.node[51].veinsmobility  posy  ETV
vector 49778  IntersectionExampleScenario.node[51].veinsmobility  speed  ETV
vector 49779  IntersectionExampleScenario.node[51].veinsmobility  acceleration  ETV
vector 49780  IntersectionExampleScenario.node[51].veinsmobility  co2emission  ETV
49724	1205095 5260 9806 11742 157.25 195.75 155 0.973 11.90022389248 500.52554855579 2781.3659964429
49723	1210355 4764 9806 11742 157.25 195.75 155 -3.2846527099609 2.5 39.869146347046 241.68198894314
49722	1215119 5142 9793 11742 157 195.75 156 5.6500000953674 16 2213.0224189758 32437.108865515
49721	1220261 5461 9780 11742 156.75 195.75 157 235.76922607422 486.85000610352 68152.313781738 30531874.819582
49720	1225722 5468 9780 11742 156.75 195.75 157 483.14999389648 785.82187652588 89785.977348328 53106735.302482
vector 49783  IntersectionExampleScenario.node[52].veinsmobility  posx  ETV
vector 49784  IntersectionExampleScenario.node[52].veinsmobility  posy  ETV
vector 49790  IntersectionExampleScenario.node[53].veinsmobility  posx  ETV
vector 49791  IntersectionExampleScenario.node[53].veinsmobility  posy  ETV
vector 49785  IntersectionExampleScenario.node[52].veinsmobility  speed  ETV
vector 49792  IntersectionExampleScenario.node[53].veinsmobility  speed  ETV
49731	1231654 5410 9945 11919 160.5 200 159 0.97223939240464 11.648172402475 505.01608283324 2733.5650388392
49730	1237064 4910 9945 11919 160.5 200 159 -2.9781112670898 2.5 38.680875778198 258.9953377879
49729	1241974 5310 9934 11919 160.25 200 160 5.6500000953674 15.64999961853 2206.2385091782 31512.24966489
49728	1247284 5618 9923 11919 160 200 161 483.11972045898 785.82187652588 91946.869697571 54288612.762765
49727	1252902 5603 9923 11919 160 200 161 483.14999389648 732.7712097168 86126.816711426 47028037.12696
vector 49786  IntersectionExampleScenario.node[52].veinsmobility  acceleration  ETV
vector 49787  IntersectionExampleScenario.node[52].veinsmobility  co2emission  ETV
vector 49793  IntersectionExampleScenario.node[53].veinsmobility  acceleration  ETV
vector 49794  IntersectionExampleScenario.node[53].veinsmobility  co2emission  ETV
49717	1258843 5957 9707 11930 155.25 200.25 181 0.973 11.648172402475 554.27327313783 2942.6511012191
49716	1264800 5539 9707 11930 155.25 200.25 181 -7.775092124939 4 38.511121749878 480.02722360891
49715	1270339 5885 9694 11930 155 200.25 182 0 15.64999961853 2214.2519137859 31459.955894097
49714	1276224 6350 9681 11930 154.75 200.25 183 184.17810058594 733.9766998291 82725.128616333 41554371.735261
49713	1282574 6377 9681 11930 154.75 200.25 183 486.85000610352 486.85000610352 89093.551116943 43375195.905068
vector 49797  IntersectionExampleScenario.node[54].veinsmobility  posx  ETV
vector 49798  IntersectionExampleScenario.node[54].veinsmobility  posy  ETV
vector 49799  IntersectionExampleScenario.node[54].veinsmobility  speed  ETV
vector 49800  IntersectionExampleScenario.node[54].veinsmobility  acceleration  ETV
vector 49801  IntersectionExampleScenario.node[54].veinsmobility  co2emission  ETV
49738	1289352 5341 10056 12045 163 202.5 159 0.973 11.648172402475 501.15435226511 2686.5359538959
49737	1294693 4970 10056 12045 163 202.5 159 -3.1356430053711 2.5 40.208654403687 220.67283529928
49736	1299663 5315 10045 12045 162.75 202.5 160 5.6500000953674 15.728622436523 2271.8086862564 33300.582965597
49735	1304978 5624 10033 12045 162.5 202.5 161 482.92718505859 801.41563415527 93073.878623962 55796796.959487
49734	1310602 5632 10033 12045 162.5 202.5 161 483.14999389648 733.39181518555 85976.956680298 46860616.742243
49759	1316234 5046 10409 12253 169.25 206.5 150 0.973 12.099024792222 521.10126943922 3052.2313143542
49758	1321280 4883 10409 12253 169.25 206.5 150 -3.2778205871582 2.5 42.754949569702 260.84863438784
49757	1326163 4986 10392 12253 169 206.5 151 5.6500000953674 16.393451690674 2209.6802825928 33566.750605275
49756	1331149 5313 10375 12253 168.75 206.5 152 483.12072753906 785.82187652588 87019.157585144 51537457.294241
49755	1336462 5317 10375 12253 168.75 206.5 152 483.14999389648 733.4905090332 81337.371520996 44428470.636576
vector 49804  IntersectionExampleScenario.node[55].veinsmobility  posx  ETV
vector 49805  IntersectionExampleScenario.node[55].veinsmobility  posy  ETV
vector 49806  IntersectionExampleScenario.node[55].veinsmobility  speed  ETV
vector 49807  IntersectionExampleScenario.node[55].veinsmobility  acceleration  ETV
vector 49808  IntersectionExampleScenario.node[55].veinsmobility  co2emission  ETV
vector 49811  IntersectionExampleScenario.node[56].veinsmobility  posx  ETV
vector 49812  IntersectionExampleScenario.node[56].veinsmobility  posy  ETV
vector 49818  IntersectionExampleScenario.node[57].veinsmobility  posx  ETV
vector 49819  IntersectionExampleScenario.node[57].veinsmobility  posy  ETV
vector 49813  IntersectionExampleScenario.node[56].veinsmobility  speed  ETV
vector 49820  IntersectionExampleScenario.node[57].veinsmobility  speed  ETV
vector 49814  IntersectionExampleScenario.node[56].veinsmobility  acceleration  ETV
vector 49815  IntersectionExampleScenario.node[56].veinsmobility  co2emission  ETV
vector 49821  IntersectionExampleScenario.node[57].veinsmobility  acceleration  ETV
vector 49822  IntersectionExampleScenario.node[57].veinsmobility  co2emission  ETV
vector 49825  IntersectionExampleScenario.node[58].veinsmobility  posx  ETV
vector 49826  IntersectionExampleScenario.node[58].veinsmobility  posy  ETV
vector 49827  IntersectionExampleScenario.node[58].veinsmobility  speed  ETV
vector 49828  IntersectionExampleScenario.node[58].veinsmobility  acceleration  ETV
vector 49829  IntersectionExampleScenario.node[58].veinsmobility  co2emission  ETV
49745	1343383 6428 10126 12760 164.5 214.5 201 0.96333723109819 12.099024792222 596.69603173768 3314.6331963779
49744	1349811 6059 10126 12760 164.5 214.5 201 -9.3257627487183 4 40.208654403687 541.99896798978
49743	1355870 6237 10113 12760 164.25 214.5 202 0 16.27499961853 2179.9838354588 31506.436478313
49742	1362107 7097 10100 12760 164 214.5 203 483.14999389648 732.24456787109 106184.75537109 56564401.922656
49741	1369204 7075 10100 12760 164 214.5 203 184.17810058594 486.85000610352 84182.354858398 36845496.23539
49752	1376279 6438 10195 12817 165.75 215.25 199 0.97223939240464 11.648172402475 572.13984855492 2942.2371339596
49751	1382717 5896 10195 12817 165.75 215.25 199 -7.1630640029907 4 38.680875778198 471.71258299252
49750	1388613 6263 10180 12817 165.5 215.25 200 0 15.64999961853 2204.4856579304 31271.545429211
49749	1394876 7031 10165 12817 165.25 215.25 201 236.21789550781 486.85000610352 89453.893218994 40862657.140768
49748	1401907 7026 10165 12817 165.25 215.25 201 483.14999389648 785.82187652588 111882.90738678 64224766.307298
vector 49832  IntersectionExampleScenario.node[59].veinsmobility  posx  ETV
vector 49833  IntersectionExampleScenario.node[59].veinsmobility  posy  ETV
vector 49834  IntersectionExampleScenario.node[59].veinsmobility  speed  ETV
vector 49835  IntersectionExampleScenario.node[59].veinsmobility  acceleration  ETV
vector 49836  IntersectionExampleScenario.node[59].veinsmobility  co2emission  ETV
vector 49839  IntersectionExampleScenario.node[60].veinsmobility  posx  ETV
vector 49840  IntersectionExampleScenario.node[60].veinsmobility  posy  ETV
vector 49841  IntersectionExampleScenario.node[60].veinsmobility  speed  ETV
vector 49842  IntersectionExampleScenario.node[60].veinsmobility  acceleration  ETV
vector 49843  IntersectionExampleScenario.node[60].veinsmobility  co2emission  ETV
vector 49846  IntersectionExampleScenario.node[61].veinsmobility  posx  ETV
vector 49847  IntersectionExampleScenario.node[61].veinsmobility  posy  ETV
vector 49848  IntersectionExampleScenario.node[61].veinsmobility  speed  ETV
vector 49849  IntersectionExampleScenario.node[61].veinsmobility  acceleration  ETV
vector 49850  IntersectionExampleScenario.node[61].veinsmobility  co2emission  ETV
49766	1410136 5733 11387 13863 187.25 230 172 0.973 11.90022389248 556.35999561788 3060.3074770688
49765	1415869 5288 11387 13863 187.25 230 172 -6.9388580322266 4 39.869146347046 483.42859174969
49764	1421157 5648 11378 13863 187 230 173 0 16 2206.8655982018 31827.855697043
49763	1426805 6079 11369 13863 186.75 230 174 483.14999389648 785.82187652588 98308.244255066 57379575.588865
49762	1432884 6083 11369 13863 186.75 230 174 483.14999389648 734.16282653809 92340.134384155 49993804.304322
49773	1438967 5871 11454 14013 189 232.5 175 0.973 11.200708441096 517.95169698614 2627.5511952238
49772	1444838 5366 11454 14013 189 232.5 175 -4.5 2.5 35.795072555542 318.78469338514
49771	1450204 5850 11443 14013 188.75 232.5 176 5.6500000953674 15.02499961853 2261.1185994148 30502.782134815
49770	1456054 6189 11432 14013 188.5 232.5 177 486.74230957031 805.05782318115 102278.9074707 61209020.816591
49769	1462243 6186 11432 14013 188.5 232.5 177 236.84411621094 483.14999389648 76985.603363037 34470429.527994
vector 49853  IntersectionExampleScenario.node[62].veinsmobility  posx  ETV
vector 49854  IntersectionExampleScenario.node[62].veinsmobility  posy  ETV
vector 49855  IntersectionExampleScenario.node[62].veinsmobility  speed  ETV
vector 49856  IntersectionExampleScenario.node[62].veinsmobility  acceleration  ETV
vector 49857  IntersectionExampleScenario.node[62].veinsmobility  co2emission  ETV
49780	1468830 5599 11610 14102 192.75 234 166 0.973 11.54047740176 560.46380248056 3252.7746083094
49779	1474429 5188 11610 14102 192.75 234 166 -4.5 2.5 38.511121749878 333.56107091398
49778	1479617 5612 11599 14102 192.5 234 167 5.6500000953674 15.5 2291.6286001205 32394.375388907
49777	1485229 5867 11588 14102 192.25 234 168 235.69104003906 803.40079498291 89188.446678162 51912631.276401
49776	1491096 5880 11588 14102 192.25 234 168 483.14999389648 483.14999389648 81169.198974609 39216897.989165
vector 49860  IntersectionExampleScenario.node[63].veinsmobility  posx  ETV
vector 49861  IntersectionExampleScenario.node[63].veinsmobility  posy  ETV
vector 49862  IntersectionExampleScenario.node[63].veinsmobility  speed  ETV
vector 49863  IntersectionExampleScenario.node[63].veinsmobility  acceleration  ETV
vector 49864  IntersectionExampleScenario.node[63].veinsmobility  co2emission  ETV
vector 49867  IntersectionExampleScenario.node[64].veinsmobility  posx  ETV
vector 49868  IntersectionExampleScenario.node[64].veinsmobility  posy  ETV
vector 49869  IntersectionExampleScenario.node[64].veinsmobility  speed  ETV
vector 49870  IntersectionExampleScenario.node[64].veinsmobility  acceleration  ETV
vector 49871  IntersectionExampleScenario.node[64].veinsmobility  co2emission  ETV
49794	1497778 5162 11930 14369 200.25 238 152 0.973 12.099024792222 509.46501234685 2825.0166389729
49793	1502940 5153 11930 14369 200.25 238 152 -3.2680549621582 2.5 41.396924972534 245.954923455
49792	1508093 5075 11919 14369 200 238 153 5.6500000953674 16.369066238403 2201.6313591003 32806.033964629
49791	1513168 5350 11908 14369 199.75 238 154 184.17810058594 486.86505126953 61268.070129395 26110921.546416
49790	1518518 5385 11908 14369 199.75 238 154 238.42553710938 486.85000610352 67002.598480225 30052301.277291
vector 49874  IntersectionExampleScenario.node[65].veinsmobility  posx  ETV
vector 49875  IntersectionExampleScenario.node[65].veinsmobility  posy  ETV
vector 49876  IntersectionExampleScenario.node[65].veinsmobility  speed  ETV
vector 49877  IntersectionExampleScenario.node[65].veinsmobility  acceleration  ETV
vector 49878  IntersectionExampleScenario.node[65].veinsmobility  co2emission  ETV
49801	1524304 5513 11967 14611 201 241.25 162 0.973 11.205774166971 498.17049111316 2627.1198322628
49800	1529817 5344 11967 14611 201 241.25 162 -3.3086738586426 2.5 37.15309715271 268.42702279048
49799	1535161 5392 11954 14611 200.75 241.25 163 5.6500000953674 15.239897727966 2186.2199907303 30575.25682527
49798	1540553 5727 11941 14611 200.5 241.25 164 486.81524658203 785.82187652588 93847.151145935 55466330.363252
49797	1546280 5723 11941 14611 200.5 241.25 164 236.13989257812 483.14999389648 70848.023834229 31554770.030374
vector 49881  IntersectionExampleScenario.node[66].veinsmobility  posx  ETV
vector 49882  IntersectionExampleScenario.node[66].veinsmobility  posy  ETV
vector 49883  IntersectionExampleScenario.node[66].veinsmobility  speed  ETV
vector 49884  IntersectionExampleScenario.node[66].veinsmobility  acceleration  ETV
vector 49885  IntersectionExampleScenario.node[66].veinsmobility  co2emission  ETV
vector 49888  IntersectionExampleScenario.node[67].veinsmobility  posx  ETV
vector 49889  IntersectionExampleScenario.node[67].veinsmobility  posy  ETV
vector 49890  IntersectionExampleScenario.node[67].veinsmobility  speed  ETV
49787	1552636 6110 11930 14939 200.25 246 184 0.973 11.200708441096 534.14612624929 2633.378154924
49786	1558746 5535 11930 14939 200.25 246 184 -8.6476802825928 4 35.795072555542 472.97505521195
49785	1564281 5997 11919 14939 200 246 185 0 15.02499961853 2185.8129124641 29680.115937667
49784	1570278 6449 11908 14939 199.75 246 186 486.85000610352 735.56745910645 99243.579101562 53985105.95783
49783	1576727 6502 11908 14939 199.75 246 186 486.63604736328 785.82187652588 104996.62534332 61143458.268922
vector 49891  IntersectionExampleScenario.node[67].veinsmobility  acceleration  ETV
vector 49892  IntersectionExampleScenario.node[67].veinsmobility  co2emission  ETV
49808	1583398 5420 12400 15158 209.25 249.75 163 0.973 11.648172402475 554.1133645931 3291.9994207401
49807	1588818 5305 12400 15158 209.25 249.75 163 -3.8288078308105 2.5 38.511121749878 342.83863103958
49806	1594123 5416 12385 15158 209 249.75 164 5.6500000953674 15.64999961853 2183.5125255585 30420.793315346
49805	1599539 5769 12370 15158 208.75 249.75 165 486.85000610352 733.36747741699 88522.863021851 48426421.898738
49804	1605308 5762 12370 15158 208.75 249.75 165 486.85000610352 785.82187652588 94393.396583557 55744158.436354
vector 49895  IntersectionExampleScenario.node[68].veinsmobility  posx  ETV
vector 49896  IntersectionExampleScenario.node[68].veinsmobility  posy  ETV
vector 49897  IntersectionExampleScenario.node[68].veinsmobility  speed  ETV
vector 49902  IntersectionExampleScenario.node[69].veinsmobility  posx  ETV
vector 49903  IntersectionExampleScenario.node[69].veinsmobility  posy  ETV
vector 49898  IntersectionExampleScenario.node[68].veinsmobility  acceleration  ETV
vector 49899  IntersectionExampleScenario.node[68].veinsmobility  co2emission  ETV
vector 49904  IntersectionExampleScenario.node[69].veinsmobility  speed  ETV
vector 49905  IntersectionExampleScenario.node[69].veinsmobility  acceleration  ETV
vector 49906  IntersectionExampleScenario.node[69].veinsmobility  co2emission  ETV
vector 49909  IntersectionExampleScenario.node[70].veinsmobility  posx  ETV
vector 49910  IntersectionExampleScenario.node[70].veinsmobility  posy  ETV
vector 49911  IntersectionExampleScenario.node[70].veinsmobility  speed  ETV
49815	1612104 5621 12618 15391 212.75 253.5 164 0.973 11.093806525473 456.55137173478 2100.2049129477
49814	1617725 5262 12618 15391 212.75 253.5 164 -4.3643264770508 2.5 34.77654838562 172.62638448889
49813	1622987 5535 12599 15391 212.5 253.5 165 5.6500000953674 14.875 2253.4579296112 31240.959134271
49812	1628522 5811 12580 15391 212.25 253.5 166 486.85000610352 486.85000610352 80817.101013184 39345806.121537
49811	1634333 5797 12580 15391 212.25 253.5 166 237.01086425781 795.46562957764 87171.748161316 50323574.548666
vector 49912  IntersectionExampleScenario.node[70].veinsmobility  acceleration  ETV
vector 49913  IntersectionExampleScenario.node[70].veinsmobility  co2emission  ETV
49843	1640299 5340 13143 15754 219.75 258.5 156 0.973 11.54047740176 464.63231158543 2336.4085283449
49842	1645639 4773 13143 15754 219.75 258.5 156 -2.906135559082 2.5 37.32285118103 179.22973075835
49841	1650412 5259 13124 15754 219.5 258.5 157 5.6500000953674 15.5 2216.590294838 31875.992361842
49840	1655671 5531 13105 15754 219.25 258.5 158 483.14999389648 483.14999389648 76337.699035645 36882558.823143
49839	1661202 5458 13105 15754 219.25 258.5 158 184.17810058594 733.22798156738 70908.541702271 36014724.094117
49822	1666660 6188 12618 15856 212.75 260 190 0.973 11.90022389248 575.17797800749 3101.2873158201
49821	1672848 5669 12618 15856 212.75 260 190 -6.9388580322266 4 39.869146347046 486.92859168984
49820	1678517 6058 12599 15856 212.5 260 191 0 16 2219.9751734734 32151.358126084
49819	1684575 6694 12580 15856 212.25 260 192 184.17810058594 735.07762145996 87004.828399658 43551110.021199
49818	1691269 6720 12580 15856 212.25 260 192 486.85000610352 486.85000610352 93475.201171875 45508402.261055
vector 49916  IntersectionExampleScenario.node[71].veinsmobility  posx  ETV
vector 49917  IntersectionExampleScenario.node[71].veinsmobility  posy  ETV
vector 49918  IntersectionExampleScenario.node[71].veinsmobility  speed  ETV
49829	1698221 6143 12698 15892 213.75 260.5 188 0.973 11.648172402475 567.82003657594 2962.9566032453
49828	1704364 5698 12698 15892 213.75 260.5 188 -8.013355255127 4 39.529638290405 484.84233947674
49827	1710062 6000 12677 15892 213.5 260.5 189 0 15.64999961853 2199.95291996 31546.779116166
49826	1716062 6642 12656 15892 213.25 260.5 190 483.14999389648 785.82187652588 106323.252388 61400383.537421
49825	1722704 6646 12656 15892 213.25 260.5 190 483.14999389648 732.73664855957 100025.17814636 53669171.213121
vector 49919  IntersectionExampleScenario.node[71].veinsmobility  acceleration  ETV
vector 49920  IntersectionExampleScenario.node[71].veinsmobility  co2emission  ETV
vector 49923  IntersectionExampleScenario.node[72].veinsmobility  posx  ETV
vector 49924  IntersectionExampleScenario.node[72].veinsmobility  posy  ETV
vector 49925  IntersectionExampleScenario.node[72].veinsmobility  speed  ETV
vector 49926  IntersectionExampleScenario.node[72].veinsmobility  acceleration  ETV
vector 49927  IntersectionExampleScenario.node[72].veinsmobility  co2emission  ETV
49836	1729920 6177 12924 16117 216.75 263.25 187 0.973 11.450879080643 544.49018706121 2744.3699730343
49835	1736097 6029 12924 16117 216.75 263.25 187 -4.3790130615234 2.5 37.492597579956 341.16689925617
49834	1742126 6372 12905 16117 216.5 263.25 188 1.2513566017151 15.375 2258.0377424955 30849.335151001
49833	1748498 6605 12886 16117 216.25 263.25 189 482.97885131836 798.59687805176 107410.36257172 63126315.073328
49832	1755103 6608 12886 16117 216.25 263.25 189 483.14999389648 733.56764221191 99864.743591309 53806758.041941
vector 49930  IntersectionExampleScenario.node[73].veinsmobility  posx  ETV
vector 49931  IntersectionExampleScenario.node[73].veinsmobility  posy  ETV
vector 49932  IntersectionExampleScenario.node[73].veinsmobility  speed  ETV
vector 49933  IntersectionExampleScenario.node[73].veinsmobility  acceleration  ETV
vector 49934  IntersectionExampleScenario.node[73].veinsmobility  co2emission  ETV
49850	1762112 5762 13406 16364 223.25 266 172 0.973 10.83252804052 517.64293140757 2739.0790142878
49849	1767874 5513 13406 16364 223.25 266 172 -3.2502250671387 2.5 33.418523788452 300.95519206179
49848	1773387 5751 13387 16364 223 266 173 5.6500000953674 14.507290840149 2188.4885454178 28650.32418745
49847	1779138 6060 13368 16364 222.75 266 174 184.17810058594 483.17166137695 69323.832214355 29443349.658343
49846	1785198 6082 13368 16364 222.75 266 174 486.85000610352 734.93675231934 93707.741165161 51487204.43153
vector 49937  IntersectionExampleScenario.node[74].veinsmobility  posx  ETV
vector 49938  IntersectionExampleScenario.node[74].veinsmobility  posy  ETV
vector 49939  IntersectionExampleScenario.node[74].veinsmobility  speed  ETV
vector 49940  IntersectionExampleScenario.node[74].veinsmobility  acceleration  ETV
vector 49941  IntersectionExampleScenario.node[74].veinsmobility  co2emission  ETV
vector 49944  IntersectionExampleScenario.node[75].veinsmobility  posx  ETV
vector 49945  IntersectionExampleScenario.node[75].veinsmobility  posy  ETV
vector 49946  IntersectionExampleScenario.node[75].veinsmobility  speed  ETV
vector 49947  IntersectionExampleScenario.node[75].veinsmobility  acceleration  ETV
vector 49948  IntersectionExampleScenario.node[75].veinsmobility  co2emission  ETV
vector 49951  IntersectionExampleScenario.node[76].veinsmobility  posx  ETV
vector 49952  IntersectionExampleScenario.node[76].veinsmobility  posy  ETV
vector 49953  IntersectionExampleScenario.node[76].veinsmobility  speed  ETV
vector 49954  IntersectionExampleScenario.node[76].veinsmobility  acceleration  ETV
vector 49955  IntersectionExampleScenario.node[76].veinsmobility  co2emission  ETV
49857	1792483 5342 14087 17048 233.75 272.5 156 0.973 11.54047740176 466.15982120664 2342.423113526
49856	1797825 4684 14087 17048 233.75 272.5 156 -3.0623893737793 2.5 37.492597579956 180.55980135192
49855	1802509 5265 14072 17048 233.5 272.5 157 5.6500000953674 15.5 2221.0238361359 32010.780434557
49854	1807774 5482 14057 17048 233.25 272.5 158 184.17810058594 734.34188842773 70985.805145264 36100629.995172
49853	1813256 5531 14057 17048 233.25 272.5 158 486.85000610352 486.85000610352 76922.300964355 37449622.693993
vector 49958  IntersectionExampleScenario.node[77].veinsmobility  posx  ETV
vector 49959  IntersectionExampleScenario.node[77].veinsmobility  posy  ETV
vector 49960  IntersectionExampleScenario.node[77].veinsmobility  speed  ETV
vector 49961  IntersectionExampleScenario.node[77].veinsmobility  acceleration  ETV
vector 49962  IntersectionExampleScenario.node[77].veinsmobility  co2emission  ETV
vector 49965  IntersectionExampleScenario.node[78].veinsmobility  posx  ETV
vector 49966  IntersectionExampleScenario.node[78].veinsmobility  posy  ETV
vector 49967  IntersectionExampleScenario.node[78].veinsmobility  speed  ETV
vector 49968  IntersectionExampleScenario.node[78].veinsmobility  acceleration  ETV
vector 49969  IntersectionExampleScenario.node[78].veinsmobility  co2emission  ETV
vector 49972  IntersectionExampleScenario.node[79].veinsmobility  posx  ETV
vector 49973  IntersectionExampleScenario.node[79].veinsmobility  posy  ETV
vector 49974  IntersectionExampleScenario.node[79].veinsmobility  speed  ETV
vector 49975  IntersectionExampleScenario.node[79].veinsmobility  acceleration  ETV
vector 49976  IntersectionExampleScenario.node[79].veinsmobility  co2emission  ETV
49864	1819990 7026 14151 18668 234.75 289.75 221 0.973 11.90022389248 626.51493613318 3133.8360755965
49863	1827016 6348 14151 18668 234.75 289.75 221 -42.393199920654 4 41.057416915894 2129.1434420653
49862	1833364 6674 14134 18668 234.5 289.75 222 0 16 2310.7574300766 34594.28176856
49861	1840038 7771 14117 18668 234.25 289.75 223 162.00311279297 734.86402893066 99743.473373413 49227694.39098
49860	1847809 7807 14117 18668 234.25 289.75 223 486.85000610352 486.85000610352 108567.55136108 52856113.042787
49871	1855616 7254 14352 18785 237.75 292 218 0.973 11.648172402475 607.4072774619 3028.1950678332
49870	1862870 7345 14352 18785 237.75 292 218 -4.5 2.5 39.020376205444 439.34625470629
49869	1870215 7510 14335 18785 237.5 292 219 0 15.797514915466 2318.5205869693 32809.618920407
49868	1877725 7661 14318 18785 237.25 292 220 160.31561279297 735.23501586914 97758.335266113 48163815.663135
49867	1885386 7700 14318 18785 237.25 292 220 486.85000610352 486.85000610352 107107.00134277 52145044.257458
49913	1893086 5570 15410 18915 253.75 294.5 164 0.973 11.200708441096 489.18991891622 2474.8953455387
49912	1898656 5008 15410 18915 253.75 294.5 164 -3.4318885803223 2.5 35.795072555542 256.41105506424
49911	1903664 5481 15391 18915 253.5 294.5 165 5.6500000953674 15.02499961853 2178.6360168457 29893.862464205
49910	1909145 5803 15372 18915 253.25 294.5 166 486.85000610352 785.82187652588 95010.405128479 56156656.093751
49909	1914948 5810 15372 18915 253.25 294.5 166 238.03967285156 483.14999389648 71761.043701172 31969426.248872
49892	1920758 6467 14956 18980 246.25 295.75 199 0.973 12.717865293408 608.75266803204 3580.3533318039
49891	1927225 6423 14956 18980 246.25 295.75 199 -4.5 2.5000004768372 43.603719711304 468.45303245612
49890	1933648 6600 14939 18980 246 295.75 200 0 17.125 2094.6543930378 29244.630165467
49889	1940248 7011 14922 18980 245.75 295.75 201 208.61779785156 483.14999389648 83723.396087646 36297349.291894
49888	1947259 7019 14922 18980 245.75 295.75 201 486.85000610352 735.06327819824 105549.7056427 56397289.187544
49878	1954278 7445 14458 18980 239.25 295.75 227 0.973 12.333995552952 656.80869858484 3311.452552348
49877	1961723 7567 14458 18980 239.25 295.75 227 -4.5 2.5 43.795286178589 470.3232407948
49876	1969290 7925 14439 18980 239 295.75 228 0 16.598821640015 2339.2626333013 31552.52798498
49875	1977215 7973 14420 18980 238.75 295.75 229 151.953125 486.85000610352 92839.51651001 40134065.438759
49874	1985188 8009 14420 18980 238.75 295.75 229 236.09936523438 486.85000610352 102727.18731689 47204163.06976
vector 49979  IntersectionExampleScenario.node[80].veinsmobility  posx  ETV
vector 49980  IntersectionExampleScenario.node[80].veinsmobility  posy  ETV
vector 49981  IntersectionExampleScenario.node[80].veinsmobility  speed  ETV
vector 49982  IntersectionExampleScenario.node[80].veinsmobility  acceleration  ETV
vector 49983  IntersectionExampleScenario.node[80].veinsmobility  co2emission  ETV
49885	1993598 7106 14844 19107 244.5 298 215 0.973 11.54047740176 595.02083901411 2956.0643838828
49884	2000704 7058 14844 19107 244.5 298 215 -4.5 2.5 38.341367721558 448.75474709704
49883	2007762 7320 14826 19107 244.25 298 216 0 15.704810142517 2269.8611743618 29869.516641341
49882	2015082 7565 14807 19107 244 298 217 171.52935791016 733.56072998047 94569.541122437 45946841.091873
49881	2022647 7593 14807 19107 244 298 217 486.85000610352 486.85000610352 105646.45132446 51433975.472129
49906	2030240 6303 15287 19258 252 300.5 195 0.973 11.648172402475 572.46745871454 3083.9007054281
49905	2036543 6175 15287 19258 252 300.5 195 -3.8450698852539 2.5000019073486 38.850629806519 379.67917402069
49904	2042718 6566 15270 19258 251.75 300.5 196 1.8106135129929 15.64999961853 2214.4195591211 29408.846548648
49903	2049284 6859 15253 19258 251.5 300.5 197 184.17810058594 486.85000610352 79650.694976807 34017275.05583
49902	2056143 6885 15253 19258 251.5 300.5 197 235.73522949219 486.85003662109 87489.233306885 39902518.93637
49927	2063028 5652 15991 19399 261.75 303 166 0.973 11.54047740176 509.21760411622 2573.6498050092
49926	2068680 5077 15991 19399 261.75 303 166 -4.5 2.5 37.832105636597 276.619115882
49925	2073757 5641 15970 19399 261.5 303 167 5.6500000953674 15.5 2299.25776577 32554.245934377
49924	2079398 5862 15949 19399 261.25 303 168 238.43231201172 807.99687957764 89674.236351013 52553365.123674
49923	2085260 5880 15949 19399 261.25 303 168 483.14999389648 483.14999389648 81169.198974609 39216897.989165
vector 49986  IntersectionExampleScenario.node[81].veinsmobility  posx  ETV
vector 49987  IntersectionExampleScenario.node[81].veinsmobility  posy  ETV
vector 49988  IntersectionExampleScenario.node[81].veinsmobility  speed  ETV
49920	2091372 5760 15911 19453 260.75 304 174 0.973 11.200708441096 536.99291091099 2870.5224696357
49919	2097132 5528 15911 19453 260.75 304 174 -31.813396453857 4 35.795072555542 1375.9726114166
49918	2102660 5753 15892 19453 260.5 304 175 0 15.02499961853 2180.8968658447 29749.953641502
49917	2108413 6145 15873 19453 260.25 304 176 486.76275634766 785.82187652588 100030.16776276 58679083.912812
49916	2114558 6154 15873 19453 260.25 304 176 235.61956787109 483.14999389648 76429.570983887 34186941.533737
vector 49989  IntersectionExampleScenario.node[81].veinsmobility  acceleration  ETV
vector 49990  IntersectionExampleScenario.node[81].veinsmobility  co2emission  ETV
vector 49993  IntersectionExampleScenario.node[82].veinsmobility  posx  ETV
vector 49994  IntersectionExampleScenario.node[82].veinsmobility  posy  ETV
vector 50000  IntersectionExampleScenario.node[83].veinsmobility  posx  ETV
vector 50001  IntersectionExampleScenario.node[83].veinsmobility  posy  ETV
vector 49995  IntersectionExampleScenario.node[82].veinsmobility  speed  ETV
vector 49996  IntersectionExampleScenario.node[82].veinsmobility  acceleration  ETV
vector 49997  IntersectionExampleScenario.node[82].veinsmobility  co2emission  ETV
vector 50002  IntersectionExampleScenario.node[83].veinsmobility  speed  ETV
49934	2121514 5550 16226 19514 264.5 305 163 0.973 11.200708441096 493.07762471009 2510.6707956703
49933	2127064 5394 16226 19514 264.5 305 163 -3.0663566589355 2.5 36.134572982788 254.17564531643
49932	2132458 5574 16203 19514 264.25 305 164 5.6500000953674 15.02499961853 2215.7495908737 30783.979024701
49931	2138032 5773 16180 19514 264 305 165 483.14999389648 483.14999389648 79719.74899292 38516596.239358
49930	2143805 5739 16180 19514 264 305 165 184.17810058594 733.56449890137 74231.96055603 37655440.682852
vector 50003  IntersectionExampleScenario.node[83].veinsmobility  acceleration  ETV
vector 50004  IntersectionExampleScenario.node[83].veinsmobility  co2emission  ETV
49899	2149713 6816 15253 19531 251.5 305.25 216 0.973 12.099024792222 606.01705787489 3139.8422617233
49898	2156529 6188 15253 19531 251.5 305.25 216 -28.877647399902 4 40.038900375366 1230.5744699834
49897	2162717 6509 15238 19531 251.25 305.25 217 0 16.27499961853 2207.9709100723 32353.202056084
49896	2169226 7626 15223 19531 251 305.25 218 235.64483642578 486.85000610352 97864.834014893 45002831.47255
49895	2176852 7610 15223 19531 251 305.25 218 483.14999389648 785.82187652588 120130.74607086 68189435.99615
vector 50007  IntersectionExampleScenario.node[84].veinsmobility  posx  ETV
vector 50008  IntersectionExampleScenario.node[84].veinsmobility  posy  ETV
vector 50009  IntersectionExampleScenario.node[84].veinsmobility  speed  ETV
vector 50010  IntersectionExampleScenario.node[84].veinsmobility  acceleration  ETV
vector 50011  IntersectionExampleScenario.node[84].veinsmobility  co2emission  ETV
49969	2184863 5374 17762 20214 279 318.25 158 0.973 11.648172402475 487.21302692525 2617.4571953659
49968	2190237 5053 17762 20214 279 318.25 158 -3.8222351074219 2.5 37.662351608276 236.65288839754
49967	2195290 5275 17737 20214 278.75 318.25 159 5.6500000953674 15.64999961853 2205.635643959 31466.606313743
49966	2200565 5585 17711 20214 278.5 318.25 160 236.69586181641 486.85000610352 69393.47543335 31062764.362559
49965	2206150 5586 17711 20214 278.5 318.25 160 482.95935058594 785.82187652588 91510.142799377 54118948.53923
49941	2211736 6757 16483 20305 267.25 320.25 213 0.973 11.648172402475 609.23644041051 3295.4665780745
49940	2218493 6413 16483 20305 267.25 320.25 213 -7.7666330337524 4 38.341367721558 520.07663645293
49939	2224906 6596 16458 20305 267 320.25 214 0 15.64999961853 2229.5995073318 31318.668789358
49938	2231502 7512 16433 20305 266.75 320.25 215 483.14999389648 793.40667724609 119595.53481293 68643799.884883
49937	2239014 7521 16433 20305 266.75 320.25 215 483.14999389648 732.70495605469 112252.19747925 59673585.211466
49948	2246535 7030 16662 20349 269 321.25 210 0.973 11.648172402475 594.04461160979 2990.6365182739
49947	2253565 6900 16662 20349 269 321.25 210 -4.5 2.5000000596046 38.850629806519 455.45749168862
49946	2260465 7221 16635 20349 268.75 321.25 211 0 15.64999961853 2312.1732265912 32665.322342165
49945	2267686 7399 16608 20349 268.5 321.25 212 235.91296386719 808.85021972656 111589.73562622 63421859.903179
49944	2275085 7420 16608 20349 268.5 321.25 212 483.14999389648 483.14999389648 102427.79870605 49487990.31966
49955	2282505 6535 16990 20415 272 322.75 204 0.973 11.648172402475 585.71957828933 2981.0278004312
49954	2289040 5977 16990 20415 272 322.75 204 -6.9388580322266 4 39.869146347046 494.42520267801
49953	2295017 6331 16961 20415 271.75 322.75 205 0 15.674412727356 2179.3284344673 31241.478948652
49952	2301348 7185 16932 20415 271.5 322.75 206 184.17810058594 483.24322509766 85315.362731934 37255046.99396
49951	2308533 7203 16932 20415 271.5 322.75 206 486.85000610352 732.67503356934 108260.5823822 57887339.699778
49962	2315736 6505 17391 20514 275.5 325 199 0.973 11.200708441096 541.33930963334 2631.6196663379
49961	2322241 6511 17391 20514 275.5 325 199 -3.7774927616119 2.5 35.625318527222 350.48731634719
49960	2328752 6789 17362 20514 275.25 325 200 0 15.02499961853 2241.4960347712 29684.902785943
49959	2335541 6999 17333 20514 275 325 201 174.53436279297 486.94955444336 81481.137542725 35115418.634141
49958	2342540 7032 17333 20514 275 325 201 237.47570800781 486.85000610352 89125.430450439 40592534.564284
vector 50014  IntersectionExampleScenario.node[85].veinsmobility  posx  ETV
vector 50015  IntersectionExampleScenario.node[85].veinsmobility  posy  ETV
vector 50016  IntersectionExampleScenario.node[85].veinsmobility  speed  ETV
vector 50021  IntersectionExampleScenario.node[86].veinsmobility  posx  ETV
vector 50022  IntersectionExampleScenario.node[86].veinsmobility  posy  ETV
vector 50017  IntersectionExampleScenario.node[85].veinsmobility  acceleration  ETV
vector 50018  IntersectionExampleScenario.node[85].veinsmobility  co2emission  ETV
vector 50023  IntersectionExampleScenario.node[86].veinsmobility  speed  ETV
vector 50024  IntersectionExampleScenario.node[86].veinsmobility  acceleration  ETV
vector 50025  IntersectionExampleScenario.node[86].veinsmobility  co2emission  ETV
vector 50028  IntersectionExampleScenario.node[87].veinsmobility  posx  ETV
vector 50029  IntersectionExampleScenario.node[87].veinsmobility  posy  ETV
vector 50030  IntersectionExampleScenario.node[87].veinsmobility  speed  ETV
vector 50031  IntersectionExampleScenario.node[87].veinsmobility  acceleration  ETV
vector 50032  IntersectionExampleScenario.node[87].veinsmobility  co2emission  ETV
49976	2350775 6789 18051 21072 282 335 213 0.973 11.810082123732 602.54138777489 3114.174773225
49975	2357564 6209 18051 21072 282 335 213 -8.3061647415161 4 40.038900375366 546.67711842841
49974	2363773 6499 18026 21072 281.75 335 214 0 15.875 2235.5189838409 32389.264594537
49973	2370272 7452 18001 21072 281.5 335 215 486.85000610352 734.86784362793 112759.4131012 60165788.743407
49972	2377724 7514 18001 21072 281.5 335 215 486.63604736328 798.59687805176 119991.79979706 69133014.853142
vector 50035  IntersectionExampleScenario.node[88].veinsmobility  posx  ETV
vector 50036  IntersectionExampleScenario.node[88].veinsmobility  posy  ETV
vector 50037  IntersectionExampleScenario.node[88].veinsmobility  speed  ETV
vector 50038  IntersectionExampleScenario.node[88].veinsmobility  acceleration  ETV
vector 50039  IntersectionExampleScenario.node[88].veinsmobility  co2emission  ETV
vector 50042  IntersectionExampleScenario.node[89].veinsmobility  posx  ETV
vector 50043  IntersectionExampleScenario.node[89].veinsmobility  posy  ETV
vector 50044  IntersectionExampleScenario.node[89].veinsmobility  speed  ETV
vector 50045  IntersectionExampleScenario.node[89].veinsmobility  acceleration  ETV
vector 50046  IntersectionExampleScenario.node[89].veinsmobility  co2emission  ETV
49990	2386040 5453 19468 21533 304.25 344 160 0.973 11.450879080643 482.04855883014 2493.3576507118
49989	2391493 4987 19468 21533 304.25 344 160 -3.7617034912109 2.5 36.813589096069 225.15797082146
49988	2396480 5343 19453 21533 304 344 161 5.6500000953674 15.375 2209.2115955353 31127.064112162
49987	2401823 5653 19438 21533 303.75 344 162 483.14999389648 734.35130310059 86955.542663574 47664312.365878
49986	2407476 5640 19438 21533 303.75 344 162 184.17810058594 487.03598022461 64506.743499756 27484212.556457
vector 50049  IntersectionExampleScenario.node[90].veinsmobility  posx  ETV
vector 50050  IntersectionExampleScenario.node[90].veinsmobility  posy  ETV
vector 50051  IntersectionExampleScenario.node[90].veinsmobility  speed  ETV
[...]
vector 52818  IntersectionExampleScenario.node[485].veinsmobility  co2emission  ETV
vector 52823  IntersectionExampleScenario.node[486].veinsmobility  speed  ETV
vector 52824  IntersectionExampleScenario.node[486].veinsmobility  acceleration  ETV
vector 52825  IntersectionExampleScenario.node[486].veinsmobility  co2emission  ETV
52706	14514213 6877 113872 118144 1710.75 1760.5 200 0.973 11.36141391502 557.20840770487 2770.2431690374
52705	14521090 6382 113872 118144 1710.75 1760.5 200 -6.771110534668 4 36.98334312439 450.59377556158
52704	14527472 6698 113851 118144 1710.5 1760.5 201 0 15.25 2175.7518162727 29985.055771734
52703	14534170 7448 113830 118144 1710.25 1760.5 202 184.17810058594 483.36395263672 83087.468231201 36103798.374205
52702	14541618 7408 113830 118144 1710.25 1760.5 202 486.85000610352 732.63011169434 106667.54959106 57344312.089066
52727	14549026 5810 114767 118299 1722 1762 161 0.973 11.648172402475 519.3341809961 2757.0560355196
52726	14554836 5547 114767 118299 1722 1762 161 -4.5 2.5 38.341367721558 301.69608287477
52725	14560383 5970 114744 118299 1721.75 1762 162 5.6500000953674 15.64999961853 2200.7126893997 31233.571489197
52724	14566353 6024 114721 118299 1721.5 1762 163 483.14999389648 785.82187652588 92908.370536804 54756265.954441
52723	14572377 6022 114721 118299 1721.5 1762 163 483.14999389648 731.72412109375 87115.472839355 47507786.196173
vector 52828  IntersectionExampleScenario.node[487].veinsmobility  posx  ETV
vector 52829  IntersectionExampleScenario.node[487].veinsmobility  posy  ETV
vector 52830  IntersectionExampleScenario.node[487].veinsmobility  speed  ETV
vector 52831  IntersectionExampleScenario.node[487].veinsmobility  acceleration  ETV
vector 52832  IntersectionExampleScenario.node[487].veinsmobility  co2emission  ETV
vector 52835  IntersectionExampleScenario.node[488].veinsmobility  posx  ETV
vector 52836  IntersectionExampleScenario.node[488].veinsmobility  posy  ETV
vector 52842  IntersectionExampleScenario.node[489].veinsmobility  posx  ETV
vector 52843  IntersectionExampleScenario.node[489].veinsmobility  posy  ETV
vector 52837  IntersectionExampleScenario.node[488].veinsmobility  speed  ETV
vector 52838  IntersectionExampleScenario.node[488].veinsmobility  acceleration  ETV
vector 52839  IntersectionExampleScenario.node[488].veinsmobility  co2emission  ETV
vector 52844  IntersectionExampleScenario.node[489].veinsmobility  speed  ETV
vector 52845  IntersectionExampleScenario.node[489].veinsmobility  acceleration  ETV
vector 52846  IntersectionExampleScenario.node[489].veinsmobility  co2emission  ETV
52748	14579617 5744 115412 118979 1729.75 1769.25 159 0.973 11.450879080643 484.85277543601 2508.3976827919
52747	14585361 5089 115412 118979 1729.75 1769.25 159 -3.1659812927246 2.5 37.492597579956 221.06141420256
52746	14590450 5634 115395 118979 1729.5 1769.25 160 5.6500000953674 15.375 2208.8621778488 31360.982922375
52745	14596084 5931 115376 118979 1729.25 1769.25 161 184.17810058594 486.85000610352 64113.211181641 27322070.548609
52744	14602015 5951 115376 118979 1729.25 1769.25 161 236.53900146484 486.85000610352 69843.347625732 31270410.38417
vector 52849  IntersectionExampleScenario.node[490].veinsmobility  posx  ETV
vector 52850  IntersectionExampleScenario.node[490].veinsmobility  posy  ETV
vector 52851  IntersectionExampleScenario.node[490].veinsmobility  speed  ETV
vector 52852  IntersectionExampleScenario.node[490].veinsmobility  acceleration  ETV
vector 52853  IntersectionExampleScenario.node[490].veinsmobility  co2emission  ETV
vector 52856  IntersectionExampleScenario.node[491].veinsmobility  posx  ETV
vector 52857  IntersectionExampleScenario.node[491].veinsmobility  posy  ETV
vector 52858  IntersectionExampleScenario.node[491].veinsmobility  speed  ETV
vector 52859  IntersectionExampleScenario.node[491].veinsmobility  acceleration  ETV
vector 52860  IntersectionExampleScenario.node[491].veinsmobility  co2emission  ETV
52720	14608778 7357 114679 119486 1721 1775 217 0.973 11.90022389248 607.61481222425 3188.5776905587
52719	14616135 6868 114679 119486 1721 1775 217 -37.989013671875 4 39.359884262085 1814.3364634636
52718	14623003 6996 114658 119486 1720.75 1775 218 0 16 2251.2711677551 33004.643051217
52717	14629999 8102 114637 119486 1720.5 1775 219 483.14999389648 483.14999389648 105809.84866333 51122027.735876
52716	14638101 8067 114637 119486 1720.5 1775 219 174.53436279297 733.46641540527 98901.692504883 49010098.243414
52734	14646168 7480 114898 119570 1723.5 1776 211 0.973 11.990504229548 630.3175067219 3263.2534254614
52733	14653648 7227 114898 119570 1723.5 1776 211 -4.5 2.5 42.754949569702 474.28496469248
52732	14660875 7682 114875 119570 1723.25 1776 212 0 16.374839782715 2290.6485360842 33976.770680558
52731	14668557 7879 114852 119570 1723 1776 213 483.14999389648 483.14999389648 102910.94869995 49721424.236263
52730	14676436 7840 114852 119570 1723 1776 213 163.76251220703 731.29194641113 94464.544464111 46282026.901816
52741	14684276 7678 114989 119906 1724.5 1780 223 0.973 11.450879080643 584.74499437069 2759.226746367
52740	14691954 7808 114989 119906 1724.5 1780 223 -4.4798774719238 2.5 37.15309715271 347.0201277982
52739	14699762 8031 114966 119906 1724.25 1780 224 0 15.375 2343.2936200127 30822.466973413
52738	14707793 8310 114943 119906 1724 1780 225 483.14999389648 734.55702209473 117359.11968994 62332454.196601
52737	14716103 8314 114943 119906 1724 1780 225 151.79528808594 486.85000610352 89841.179534912 38427729.594257
52769	14724417 5970 115887 119969 1736.75 1780.75 177 0.973 11.990504229548 521.41356285335 2940.1056549218
52768	14730387 6103 115887 119969 1736.75 1780.75 177 -2.3770446777344 2.5 39.869146347046 302.13284354267
52767	14736490 6341 115866 119969 1736.5 1780.75 178 2.7927470207214 16.125 2083.9796354771 27746.263999978
52766	14742831 6625 115845 119969 1736.25 1780.75 179 483.14999389648 483.14999389648 86483.848907471 41784671.071789
52765	14749456 6574 115845 119969 1736.25 1780.75 179 216.078125 732.00393676758 81821.910919189 40845918.224206
vector 52863  IntersectionExampleScenario.node[492].veinsmobility  posx  ETV
vector 52864  IntersectionExampleScenario.node[492].veinsmobility  posy  ETV
vector 52865  IntersectionExampleScenario.node[492].veinsmobility  speed  ETV
vector 52866  IntersectionExampleScenario.node[492].veinsmobility  acceleration  ETV
vector 52867  IntersectionExampleScenario.node[492].veinsmobility  co2emission  ETV
52755	14756436 6903 115731 120227 1734.75 1784 198 0.973 11.450879080643 593.77925166701 3088.1342188146
52754	14763339 6797 115731 120227 1734.75 1784 198 -4.5 2.5000009536743 37.32285118103 512.80278922609
52753	14770136 7080 115714 120227 1734.5 1784 199 3.0401031970978 15.375 2206.6946926117 27914.928883426
52752	14777216 7396 115697 120227 1734.25 1784 200 483.14999389648 733.21122741699 105175.91220093 56369012.411877
52751	14784612 7380 115697 120227 1734.25 1784 200 184.17810058594 486.85000610352 79284.490905762 33492016.658843
52762	14791992 7227 115769 120437 1735.25 1786.5 206 0.973 10.246605589818 550.26906816294 2467.3803493461
52761	14799219 7332 115769 120437 1735.25 1786.5 206 -4.5 2.5 35.795072555542 297.51269351748
52760	14806551 7408 115750 120437 1735 1786.5 207 3.4559302330017 14.92892074585 2304.7472596169 28592.493010557
52759	14813959 7690 115731 120437 1734.75 1786.5 208 483.14999389648 734.37033081055 109332.06585693 58574091.772179
52758	14821649 7674 115731 120437 1734.75 1786.5 208 160.43438720703 486.87393188477 80749.553405762 33837838.551314
vector 52870  IntersectionExampleScenario.node[493].veinsmobility  posx  ETV
vector 52871  IntersectionExampleScenario.node[493].veinsmobility  posy  ETV
vector 52877  IntersectionExampleScenario.node[494].veinsmobility  posx  ETV
vector 52878  IntersectionExampleScenario.node[494].veinsmobility  posy  ETV
vector 52872  IntersectionExampleScenario.node[493].veinsmobility  speed  ETV
vector 52873  IntersectionExampleScenario.node[493].veinsmobility  acceleration  ETV
vector 52874  IntersectionExampleScenario.node[493].veinsmobility  co2emission  ETV
vector 52879  IntersectionExampleScenario.node[494].veinsmobility  speed  ETV
vector 52880  IntersectionExampleScenario.node[494].veinsmobility  acceleration  ETV
vector 52881  IntersectionExampleScenario.node[494].veinsmobility  co2emission  ETV
52776	14830135 6883 116059 120556 1738.75 1787.75 197 0.973 11.889747530999 589.35310868486 2962.2681140104
52775	14837018 6994 116059 120556 1738.75 1787.75 197 -4.5 2.5 41.01616859436 326.66496846996
52774	14844012 7074 116036 120556 1738.5 1787.75 198 4.5236911773682 15.985482215881 2307.7178225517 30031.606127268
52773	14851086 7349 116013 120556 1738.25 1787.75 199 483.14999389648 734.49018859863 104712.85087585 56173005.280381
52772	14858435 7354 116013 120556 1738.25 1787.75 199 160.87744140625 487.06759643555 78011.367034912 32846953.084611
52797	14865789 5890 116838 120581 1747.5 1788 163 0.973 11.200708441096 474.15464992028 2360.3789174587
52796	14871679 5371 116838 120581 1747.5 1788 163 -3.2816162109375 2.5 35.455564498901 212.29400860196
52795	14877050 5797 116815 120581 1747.25 1788 164 5.6500000953674 15.02499961853 2209.4984531403 30505.792811107
52794	14882847 6079 116792 120581 1747 1788 165 236.24322509766 486.85000610352 71484.248809814 31973964.779214
52793	14888926 6087 116792 120581 1747 1788 165 483.14999389648 785.82187652588 94273.767692566 55684778.070264
52790	14895013 6578 116596 120871 1744.75 1791.25 187 0.973 11.00486315618 524.24293952179 2510.0335156693
52789	14901591 6191 116596 120871 1744.75 1791.25 187 -6.9985313415527 4 33.927785873413 432.78280358761
52788	14907782 6513 116573 120871 1744.5 1791.25 188 0 14.75 2195.9708883762 29116.867080491
52787	14914295 6969 116550 120871 1744.25 1791.25 189 184.17810058594 486.85000610352 76817.939697266 33162628.577247
52786	14921264 6972 116550 120871 1744.25 1791.25 189 237.86633300781 486.85000610352 83065.168243408 37570999.370297
vector 52884  IntersectionExampleScenario.node[495].veinsmobility  posx  ETV
vector 52885  IntersectionExampleScenario.node[495].veinsmobility  posy  ETV
vector 52886  IntersectionExampleScenario.node[495].veinsmobility  speed  ETV
vector 52887  IntersectionExampleScenario.node[495].veinsmobility  acceleration  ETV
vector 52888  IntersectionExampleScenario.node[495].veinsmobility  co2emission  ETV
vector 52891  IntersectionExampleScenario.node[496].veinsmobility  posx  ETV
vector 52892  IntersectionExampleScenario.node[496].veinsmobility  posy  ETV
vector 52893  IntersectionExampleScenario.node[496].veinsmobility  speed  ETV
vector 52894  IntersectionExampleScenario.node[496].veinsmobility  acceleration  ETV
vector 52895  IntersectionExampleScenario.node[496].veinsmobility  co2emission  ETV
vector 52898  IntersectionExampleScenario.node[497].veinsmobility  posx  ETV
vector 52899  IntersectionExampleScenario.node[497].veinsmobility  posy  ETV
vector 52900  IntersectionExampleScenario.node[497].veinsmobility  speed  ETV
vector 52901  IntersectionExampleScenario.node[497].veinsmobility  acceleration  ETV
vector 52902  IntersectionExampleScenario.node[497].veinsmobility  co2emission  ETV
52825	14929454 5837 117863 121414 1758 1798.25 162 0.973 11.36141391502 498.04660962162 2605.702682659
52824	14935291 5337 117863 121414 1758 1798.25 162 -3.4963760375977 2.5 37.15309715271 266.39964838222
52823	14940628 5715 117834 121414 1757.75 1798.25 163 5.6500000953674 15.25 2185.2570457458 30545.530708214
52822	14946343 6047 117805 121414 1757.5 1798.25 164 184.17810058594 483.14999389648 65225.143005371 27703567.703411
52821	14952390 6061 117805 121414 1757.5 1798.25 164 486.85000610352 733.75947570801 88224.136245728 48407867.951492
52783	14958451 7650 116325 121543 1741.75 1800 234 0.973 11.450879080643 618.54513451586 3237.5793803192
52782	14966101 7508 116325 121543 1741.75 1800 234 -38.048812866211 4 36.813650131226 1871.5300029032
52781	14973609 7596 116302 121543 1741.5 1800 235 0 15.375 1978.218228817 24926.560869365
52780	14981205 8732 116279 121543 1741.25 1800 236 483.14999389648 483.14999389648 114023.39855957 55090404.318113
52779	14989937 8701 116279 121543 1741.25 1800 236 159.27209472656 650.41593933105 99091.378952026 44973889.829462
52804	14998638 6810 117026 121543 1749.5 1800 203 0.973 11.450879080643 545.27134211039 2742.9379970184
52803	15005448 6164 117026 121543 1749.5 1800 203 -20.810543060303 4 37.153188705444 849.1236788281
52802	15011612 6506 117001 121543 1749.25 1800 204 0 15.375 1943.5896730423 26822.93418808
52801	15018118 7577 116976 121543 1749 1800 205 319.49078369141 486.85000610352 95904.557861328 45225842.706588
52800	15025695 7563 116976 121543 1749 1800 205 483.14999389648 803.92188262939 115969.61834717 67833458.774109
52811	15033258 6029 117701 121543 1756.5 1800 175 0.973 11.990504229548 534.52735120066 2926.6540737398
52810	15039287 6246 117701 121543 1756.5 1800 175 -3.7817993164062 2.5000002384186 41.227323532104 398.38241809883
52809	15045533 6338 117676 121543 1756.25 1800 176 0 16.125 1847.3756014686 25688.686617716
52808	15051871 6547 117651 121543 1756 1800 177 486.85000610352 486.85000610352 86172.451080322 41953058.33441
52807	15058418 6529 117651 121543 1756 1800 177 329.0751953125 785.82187652588 97544.563285828 56282017.637649
52818	15064947 5856 117805 121543 1757.5 1800 171 0.973 11.093806525473 480.1329381091 2439.7651425028
52817	15070803 6191 117805 121543 1757.5 1800 171 -4.5 2.5 35.966070175171 316.50168426125
52816	15076994 6226 117778 121543 1757.25 1800 172 1.9566774368286 14.950921058655 1774.4534776211 21983.269909147
52815	15083220 6399 117751 121543 1757 1800 173 486.85000610352 486.85000610352 84225.051055908 41004966.620638
52814	15089619 6377 117751 121543 1757 1800 173 368.90051269531 807.99687957764 100177.30709076 60443077.449306
52832	15095996 4615 118637 121543 1765.5 1800 139 0.973 11.200708441096 413.86270691374 2256.5535258825
52831	15100611 4980 118637 121543 1765.5 1800 139 -3.0220985412598 2.5 37.154230117798 237.54911182517
52830	15105591 5034 118613 121543 1765.25 1800 140 4.0904407501221 15.02499961853 1572.9812750816 19506.035316207
52829	15110625 5215 118588 121543 1765 1800 141 486.85000610352 486.85000610352 68645.850860596 33420232.910462
52828	15115840 5205 118588 121543 1765 1800 141 397.68392944336 785.82187652588 82749.596931458 50262794.133928
52839	15121045 4077 118954 121543 1769 1800 125 0.973 11.200708441096 295.40288750668 1362.5491424296
52838	15125122 3662 118954 121543 1769 1800 125 -6.998438835144 2.5 -22.60000038147 309.5501207713
52837	15128784 4128 118929 121543 1768.75 1800 126 0 15.02499961853 1146.9658718109 15892.421382354
52836	15132912 4688 118906 121543 1768.5 1800 127 498.39999389648 785.82187652588 76256.99131012 47107951.796316
52835	15137600 4698 118906 121543 1768.5 1800 127 483.14999389648 483.14999389648 61360.049224854 29646107.408476
52846	15142298 4246 118979 121543 1769.25 1800 124 0.973 11.200708441096 431.44939069617 2515.7168959314
52845	15146544 4324 118979 121543 1769.25 1800 124 -4.5 2.5 40.186571121216 294.35153279369
52844	15150868 4508 118954 121543 1769 1800 125 4.2585372924805 15.879034042358 1499.7378091812 19774.143389523
52843	15155376 4661 118929 121543 1768.75 1800 126 486.85000610352 486.85000610352 61343.100769043 29864888.983817
52842	15160037 4647 118929 121543 1768.75 1800 126 424.32540893555 793.78281402588 75792.188171387 47111562.535887
52853	15164684 3714 119208 121543 1771.75 1800 114 0.973 12.099024792222 296.65599340852 1618.2996881124
52852	15168398 3816 119208 121543 1771.75 1800 114 -7.5185747146606 2.5 -22.60000038147 337.8167416575
52851	15172214 3832 119187 121543 1771.5 1800 115 0 16.27499961853 1146.7660007477 16538.439781802
52850	15176046 4270 119165 121543 1771.25 1800 116 184.17810058594 471.60000610352 42144.037261963 16524260.899811
52849	15180316 4292 119165 121543 1771.25 1800 116 486.85000610352 486.85000610352 56474.600708008 27494659.699387
52860	15184608 3541 119422 121543 1774.25 1800 104 0.973 11.200708441096 307.65657075019 1710.8164732721
52859	15188149 3559 119422 121543 1774.25 1800 104 -3.1039772033691 2.5 10.89999961853 218.11869493628
52858	15191708 3680 119399 121543 1774 1800 105 5.6500000953674 15.02499961853 1246.2355680466 15632.16918083
52857	15195388 3921 119376 121543 1773.75 1800 106 486.85000610352 501.41827392578 51679.098693848 25196210.717679
52856	15199309 3914 119376 121543 1773.75 1800 106 486.85000610352 785.82187652588 66158.088478088 42309698.870713
52867	15203223 2424 120206 121543 1783.75 1800 66 0.973 12.099024792222 250.73141442902 1573.9299704007
52866	15205647 2423 120206 121543 1783.75 1800 66 -0.40308380126953 2.5 40.915971755981 107.44452187127
52865	15208070 2462 120185 121543 1783.5 1800 67 5.6500000953674 16.27499961853 976.84857177734 14753.805679163
52864	15210532 2516 120164 121543 1783.25 1800 68 483.14999389648 483.14999389648 32854.199584961 15873506.328948
52863	15213048 2498 120164 121543 1783.25 1800 68 184.17810058594 423.11370849609 19890.128753662 6193933.840373
52874	15215546 1917 120506 121543 1787.25 1800 52 1.1319351608255 11.648172402475 209.01283522714 1359.981204039
52873	15217463 1857 120506 121543 1787.25 1800 52 -0.28734588623047 2.5 38.886838912964 101.15991805826
52872	15219320 1948 120481 121543 1787 1800 53 5.6500000953674 15.64999961853 735.77920722961 10635.593725149
52871	15221268 1997 120458 121543 1786.75 1800 54 483.14999389648 483.14999389648 26090.09967041 12605431.496517
52870	15223265 1974 120458 121543 1786.75 1800 54 174.53436279297 353.32873535156 13723.029174805 3657146.3918338
52881	15225239 1871 120531 121543 1787.5 1800 51 0.973 11.648172402475 205.17344424498 1335.5833877504
52880	15227110 1842 120531 121543 1787.5 1800 51 -0.37222290039062 2.5 38.51117515564 100.31667383388
52879	15228952 1908 120506 121543 1787.25 1800 52 5.6500000953674 15.64999961853 716.88886165619 10291.22248385
52878	15230860 1953 120481 121543 1787 1800 53 611.72763061523 785.82187652588 37541.358558655 26749796.786202
52877	15232813 1959 120481 121543 1787 1800 53 483.14999389648 483.14999389648 25606.949676514 12371997.579915
52888	15234772 1067 121005 121543 1793 1800 29 1.8321577376031 11.200708441096 151.34072608731 1112.2770166108
52887	15235839 939 121005 121543 1793 1800 29 -0.086727142333984 2.5 37.159273147583 93.76717716661
52886	15236778 1099 120986 121543 1792.75 1800 30 5.6500000953674 15.02499961853 374.79135704041 4974.4071991378
52885	15237877 1146 120966 121543 1792.5 1800 31 486.85000610352 486.85000610352 15092.350189209 7347710.7817328
52884	15239023 1143 120966 121543 1792.5 1800 31 697.10311889648 785.82187652588 23210.896034241 17403424.725239
52895	15240166 920 121085 121543 1794 1800 25 2.2209640229439 11.648172402475 163.43864603428 1284.6936846517
52894	15241086 754 121085 121543 1794 1800 25 -0.016929626464844 2.5 42.296453475952 100.66928791293
52893	15241840 950 121064 121543 1793.75 1800 26 5.6500000953674 16.228345870972 325.08710289001 4393.0183518313
52892	15242790 996 121043 121543 1793.5 1800 27 709.9792175293 785.82187652588 20391.160209656 15415338.150569
52891	15243786 998 121043 121543 1793.5 1800 27 483.14999389648 483.14999389648 13045.049835205 6302715.7482587
52902	15244784 514 121300 121543 1796.75 1800 14 5.2162187258585 10.756497587458 111.40165623227 927.71781547567
52901	15245298 361 121300 121543 1796.75 1800 14 2.4999980926514 2.5 34.999998092651 87.49999046326
52900	15245659 546 121281 121543 1796.5 1800 15 5.6500000953674 14.39999961853 150.3749961853 1616.8842854023
52899	15246205 592 121261 121543 1796.25 1800 16 486.85000610352 486.85000610352 7789.6000976562 3792366.8550879
52898	15246797 590 121261 121543 1796.25 1800 16 760.88282775879 793.78281402588 12489.322097778 9750705.2427355
49415	15247387 623 0 121542 0 1800 31 0 18 377 5079
49416	15248010 634 0 121542 0 1800 31 0 132 1979 171813
