file 15461815 1591472367                                        
version 2
run nodebug-6-20200606-15:37:19-20656
attr configname nodebug
attr datetime 20200606-15:37:19
attr experiment nodebug
attr inifile omnetpp.ini
attr iterationvars ""
attr iterationvars2 $repetition=6
attr measurement ""
attr network "\"org.car2x.veins.modules.application.ExtTraCIScenarioManagerLaunchd.IntersectionExampleScenario\""
attr processid 20656
attr repetition 6
attr replication #6
attr resultdir results
attr runnumber 6
attr seedset 6
param **.coreDebug false
param **.debug false
param *.**.nic.mac1609_4.bitrate 18Mbps
param *.**.nic.mac1609_4.txPower 20mW
param *.**.nic.mac1609_4.useServiceChannel false
param *.**.nic.phy80211p.analogueModels "xmldoc(\"config.xml\")"
param *.**.nic.phy80211p.decider "xmldoc(\"config.xml\")"
param *.**.nic.phy80211p.sensitivity -89dBm
param *.**.nic.phy80211p.thermalNoise -110dBm
param *.**.nic.phy80211p.usePropagationDelay true
param *.**.nic.phy80211p.useThermalNoise true
param *.annotations.draw false
param *.connectionManager.alpha 2.0
param *.connectionManager.carrierFrequency "5.890e9 Hz"
param *.connectionManager.pMax 20mW
param *.connectionManager.sat -89dBm
param *.connectionManager.sendDirect true
param *.manager.autoShutdown true
param *.manager.host "\"localhost\""
param *.manager.launchConfig "xmldoc(\"paramics.launchd.xml\")"
param *.manager.margin 25
param *.manager.moduleDisplayString "\"\""
param *.manager.moduleName "\"node\""
param *.manager.moduleType "\"org.car2x.veins.nodes.Car\""
param *.manager.port 9999
param *.manager.updateInterval 250ms
param *.node[*0].veinsmobility.accidentCount 0
param *.node[*0].veinsmobility.accidentDuration 30s
param *.node[*0].veinsmobility.accidentStart 75s
param *.node[*].appl.LiderSelectZoneRadio 55.0
param *.node[*].appl.ShareDataZoneRadio 110.0
param *.node[*].appl.TiempoSemaforo 30.0
param *.node[*].appl.beaconInterval 1s
param *.node[*].appl.beaconPriority 3
param *.node[*].appl.dataOnSch false
param *.node[*].appl.dataPriority 2
param *.node[*].appl.debug false
param *.node[*].appl.headerLength "256 bit"
param *.node[*].appl.maxOffset 0.005s
param *.node[*].appl.sendBeacons false
param *.node[*].appl.sendData true
param *.node[*].applType "\"Dummy\""
param *.node[*].mobilityType "\"TraCIMobility\""
param *.node[*].mobilityType.debug true
param *.node[*].veinsmobility.x 0
param *.node[*].veinsmobility.y 0
param *.node[*].veinsmobility.z 1.895
param *.node[*].veinsmobilityType "\"org.car2x.veins.modules.mobility.traci.TraCIMobility\""
param *.node[*].veinsmobilityType.debug true
param *.playgroundSizeX 8500m
param *.playgroundSizeY 8500m
param *.playgroundSizeZ 50m
param *.world.use2D false
param *.world.useTorus false

vector 7131  IntersectionExampleScenario.manager  vehiclesinsim  ETV
attr type  int
vector 7132  IntersectionExampleScenario.manager  realtime  ETV
attr type  int
attr unit  s
vector 7135  IntersectionExampleScenario.node[0].veinsmobility  posx  ETV
vector 7136  IntersectionExampleScenario.node[0].veinsmobility  posy  ETV
vector 7137  IntersectionExampleScenario.node[0].veinsmobility  speed  ETV
vector 7138  IntersectionExampleScenario.node[0].veinsmobility  acceleration  ETV
vector 7139  IntersectionExampleScenario.node[0].veinsmobility  co2emission  ETV
vector 7142  IntersectionExampleScenario.node[1].veinsmobility  posx  ETV
vector 7143  IntersectionExampleScenario.node[1].veinsmobility  posy  ETV
vector 7144  IntersectionExampleScenario.node[1].veinsmobility  speed  ETV
vector 7145  IntersectionExampleScenario.node[1].veinsmobility  acceleration  ETV
vector 7146  IntersectionExampleScenario.node[1].veinsmobility  co2emission  ETV
vector 7149  IntersectionExampleScenario.node[2].veinsmobility  posx  ETV
vector 7150  IntersectionExampleScenario.node[2].veinsmobility  posy  ETV
vector 7151  IntersectionExampleScenario.node[2].veinsmobility  speed  ETV
vector 7152  IntersectionExampleScenario.node[2].veinsmobility  acceleration  ETV
vector 7153  IntersectionExampleScenario.node[2].veinsmobility  co2emission  ETV
vector 7156  IntersectionExampleScenario.node[3].veinsmobility  posx  ETV
vector 7157  IntersectionExampleScenario.node[3].veinsmobility  posy  ETV
vector 7158  IntersectionExampleScenario.node[3].veinsmobility  speed  ETV
vector 7159  IntersectionExampleScenario.node[3].veinsmobility  acceleration  ETV
vector 7160  IntersectionExampleScenario.node[3].veinsmobility  co2emission  ETV
vector 7163  IntersectionExampleScenario.node[4].veinsmobility  posx  ETV
vector 7164  IntersectionExampleScenario.node[4].veinsmobility  posy  ETV
vector 7165  IntersectionExampleScenario.node[4].veinsmobility  speed  ETV
vector 7166  IntersectionExampleScenario.node[4].veinsmobility  acceleration  ETV
vector 7167  IntersectionExampleScenario.node[4].veinsmobility  co2emission  ETV
vector 7170  IntersectionExampleScenario.node[5].veinsmobility  posx  ETV
vector 7171  IntersectionExampleScenario.node[5].veinsmobility  posy  ETV
vector 7172  IntersectionExampleScenario.node[5].veinsmobility  speed  ETV
vector 7173  IntersectionExampleScenario.node[5].veinsmobility  acceleration  ETV
vector 7174  IntersectionExampleScenario.node[5].veinsmobility  co2emission  ETV
vector 7177  IntersectionExampleScenario.node[6].veinsmobility  posx  ETV
vector 7178  IntersectionExampleScenario.node[6].veinsmobility  posy  ETV
vector 7179  IntersectionExampleScenario.node[6].veinsmobility  speed  ETV
vector 7180  IntersectionExampleScenario.node[6].veinsmobility  acceleration  ETV
vector 7181  IntersectionExampleScenario.node[6].veinsmobility  co2emission  ETV
vector 7184  IntersectionExampleScenario.node[7].veinsmobility  posx  ETV
vector 7185  IntersectionExampleScenario.node[7].veinsmobility  posy  ETV
vector 7186  IntersectionExampleScenario.node[7].veinsmobility  speed  ETV
vector 7187  IntersectionExampleScenario.node[7].veinsmobility  acceleration  ETV
vector 7188  IntersectionExampleScenario.node[7].veinsmobility  co2emission  ETV
vector 7191  IntersectionExampleScenario.node[8].veinsmobility  posx  ETV
vector 7192  IntersectionExampleScenario.node[8].veinsmobility  posy  ETV
vector 7193  IntersectionExampleScenario.node[8].veinsmobility  speed  ETV
vector 7194  IntersectionExampleScenario.node[8].veinsmobility  acceleration  ETV
vector 7195  IntersectionExampleScenario.node[8].veinsmobility  co2emission  ETV
7139	6447 4646 8 1721 0.75 39.5 156 0.96333723109819 12.099024792222 517.58335664739 3004.9261905147
7138	11093 4309 8 1721 0.75 39.5 156 -3.6992034912109 2.5 40.208654403687 295.33699343156
7137	15402 4531 5 1721 0.5 39.5 157 5.6500000953674 16.27499961853 2178.5463562012 31745.48029973
7136	19933 4878 2 1721 0.25 39.5 158 238.06005859375 483.14999389648 68452.932861328 30546000.349168
7135	24811 4858 2 1721 0.25 39.5 158 184.17810058594 483.15151977539 62779.070281982 26658916.665281
vector 7198  IntersectionExampleScenario.node[9].veinsmobility  posx  ETV
vector 7199  IntersectionExampleScenario.node[9].veinsmobility  posy  ETV
vector 7200  IntersectionExampleScenario.node[9].veinsmobility  speed  ETV
vector 7201  IntersectionExampleScenario.node[9].veinsmobility  acceleration  ETV
vector 7202  IntersectionExampleScenario.node[9].veinsmobility  co2emission  ETV
vector 7205  IntersectionExampleScenario.node[10].veinsmobility  posx  ETV
vector 7206  IntersectionExampleScenario.node[10].veinsmobility  posy  ETV
vector 7207  IntersectionExampleScenario.node[10].veinsmobility  speed  ETV
vector 7208  IntersectionExampleScenario.node[10].veinsmobility  acceleration  ETV
vector 7209  IntersectionExampleScenario.node[10].veinsmobility  co2emission  ETV
7153	30456 5074 121 2164 7 49.5 171 0.973 12.099024792222 566.26545399986 3237.659858051
7152	35530 4830 121 2164 7 49.5 171 -6.7615566253662 4 41.227170944214 492.66168918732
7151	40360 5004 114 2164 6.75 49.5 172 0 16.27499961853 2205.8852424622 32484.344104897
7150	45364 5426 107 2164 6.5 49.5 173 238.59759521484 785.82187652588 90012.404579163 50814136.549528
7149	50790 5443 107 2164 6.5 49.5 173 483.14999389648 483.14999389648 83584.948944092 40384067.572176
vector 7212  IntersectionExampleScenario.node[11].veinsmobility  posx  ETV
vector 7213  IntersectionExampleScenario.node[11].veinsmobility  posy  ETV
vector 7214  IntersectionExampleScenario.node[11].veinsmobility  speed  ETV
vector 7215  IntersectionExampleScenario.node[11].veinsmobility  acceleration  ETV
vector 7216  IntersectionExampleScenario.node[11].veinsmobility  co2emission  ETV
7146	56629 5622 42 2236 3.25 51.25 193 0.973 10.916047529558 532.14225912519 2510.2334428969
7145	62251 5093 42 2236 3.25 51.25 193 -7.1267910003662 4 34.437047958374 443.47186880003
7144	67344 5514 37 2236 3 51.25 194 0 14.625 2182.5621302128 29045.20439781
7143	72858 6077 32 2236 2.75 51.25 195 184.17810058594 483.36395263672 79461.227783203 34302562.172248
7142	78935 6042 32 2236 2.75 51.25 195 486.85000610352 734.64698791504 103751.70574951 56258322.905155
7167	84977 4846 372 2353 14.75 54.5 160 0.973 11.648172402475 532.92503877448 3133.9241003965
7166	89823 4433 372 2353 14.75 54.5 160 -3.2450904846191 2.5 38.341367721558 290.73584615972
7165	94256 4825 361 2353 14.5 54.5 161 5.6500000953674 15.64999961853 2215.7742176056 31416.910080877
7164	99081 5130 350 2353 14.25 54.5 162 483.13488769531 785.82187652588 92579.0858078 54686939.029059
7163	104211 5131 350 2353 14.25 54.5 162 483.14999389648 735.29977416992 86827.807495117 47522211.757351
vector 7219  IntersectionExampleScenario.node[12].veinsmobility  posx  ETV
vector 7220  IntersectionExampleScenario.node[12].veinsmobility  posy  ETV
vector 7221  IntersectionExampleScenario.node[12].veinsmobility  speed  ETV
vector 7222  IntersectionExampleScenario.node[12].veinsmobility  acceleration  ETV
vector 7223  IntersectionExampleScenario.node[12].veinsmobility  co2emission  ETV
7181	109738 4905 616 2538 19.75 58.75 157 0.973 11.200708441096 461.16421885952 2237.3955692415
7180	114643 4447 616 2538 19.75 58.75 157 -4.028980255127 2.5 36.813589096069 180.88620262556
7179	119090 4802 601 2538 19.5 58.75 158 5.6500000953674 15.090950012207 2214.2218799591 31589.66907592
7178	123892 5047 586 2538 19.25 58.75 159 237.35064697266 785.82187652588 82860.233222961 47386405.820368
7177	128939 5062 586 2538 19.25 58.75 159 483.14999389648 483.14999389648 76820.849029541 37115992.739745
vector 7226  IntersectionExampleScenario.node[13].veinsmobility  posx  ETV
vector 7227  IntersectionExampleScenario.node[13].veinsmobility  posy  ETV
vector 7228  IntersectionExampleScenario.node[13].veinsmobility  speed  ETV
vector 7229  IntersectionExampleScenario.node[13].veinsmobility  acceleration  ETV
vector 7230  IntersectionExampleScenario.node[13].veinsmobility  co2emission  ETV
7160	134397 6221 251 2847 11.5 65.5 217 0.973 11.36141391502 577.68011845682 2799.5494895168
7159	140618 5521 251 2847 11.5 65.5 217 -10.451008796692 4 37.15309715271 548.44992679876
7158	146139 5901 242 2847 11.25 65.5 218 0 15.25 2176.0621368885 30255.131075957
7157	152040 6881 233 2847 11 65.5 219 236.84155273438 483.14999389648 97472.510345459 44431392.316677
7156	158921 6927 233 2847 11 65.5 219 184.17810058594 483.36395263672 91152.233856201 39925685.550652
7174	165848 5744 508 2869 17.75 66 194 0.973 11.200708441096 542.45722153575 2637.3574013284
7173	171592 5214 508 2869 17.75 66 194 -6.8640689849854 4 35.625318527222 445.86479464531
7172	176806 5604 495 2869 17.5 66 195 0 15.02499961853 2184.6829628944 29567.904340929
7171	182410 6170 482 2869 17.25 66 196 486.85000610352 735.00680541992 104096.91342163 56334960.411277
7170	188580 6230 482 2869 17.25 66 196 486.63604736328 785.82187652588 110004.54053497 63654844.539328
7188	194810 5192 870 2921 24 67.25 174 0.973 11.54047740176 525.03749948158 2803.8604924491
7187	200002 5066 870 2921 24 67.25 174 -3.1732368469238 2.5 37.15309715271 280.608073647
7186	205068 5342 855 2921 23.75 67.25 175 4.6697945594788 15.5 2221.0557360649 29973.984607592
7185	210410 5621 840 2921 23.5 67.25 176 483.14999389648 483.14999389648 85034.398925781 41084369.321982
7184	216031 5587 840 2921 23.5 67.25 176 184.17810058594 733.9298248291 78822.156723022 39524862.141392
vector 7233  IntersectionExampleScenario.node[14].veinsmobility  posx  ETV
vector 7234  IntersectionExampleScenario.node[14].veinsmobility  posy  ETV
vector 7240  IntersectionExampleScenario.node[15].veinsmobility  posx  ETV
vector 7241  IntersectionExampleScenario.node[15].veinsmobility  posy  ETV
vector 7235  IntersectionExampleScenario.node[14].veinsmobility  speed  ETV
vector 7242  IntersectionExampleScenario.node[15].veinsmobility  speed  ETV
vector 7236  IntersectionExampleScenario.node[14].veinsmobility  acceleration  ETV
vector 7237  IntersectionExampleScenario.node[14].veinsmobility  co2emission  ETV
vector 7243  IntersectionExampleScenario.node[15].veinsmobility  acceleration  ETV
vector 7244  IntersectionExampleScenario.node[15].veinsmobility  co2emission  ETV
vector 7247  IntersectionExampleScenario.node[16].veinsmobility  posx  ETV
vector 7248  IntersectionExampleScenario.node[16].veinsmobility  posy  ETV
vector 7249  IntersectionExampleScenario.node[16].veinsmobility  speed  ETV
vector 7250  IntersectionExampleScenario.node[16].veinsmobility  acceleration  ETV
vector 7251  IntersectionExampleScenario.node[16].veinsmobility  co2emission  ETV
vector 7254  IntersectionExampleScenario.node[17].veinsmobility  posx  ETV
vector 7255  IntersectionExampleScenario.node[17].veinsmobility  posy  ETV
vector 7256  IntersectionExampleScenario.node[17].veinsmobility  speed  ETV
7195	223035 5139 1628 3599 37.5 79.75 170 0.96333723109819 12.099024792222 554.81963231602 3151.9482787541
7194	228174 4865 1628 3599 37.5 79.75 170 -6.7176246643066 4 40.208654403687 479.88258980679
7193	233039 5060 1615 3599 37.25 79.75 171 0 16.27499961853 2172.0122590065 31272.792764693
7192	238099 5487 1602 3599 37 79.75 172 486.63604736328 785.82187652588 97499.36693573 57048829.344931
7191	243586 5433 1602 3599 37 79.75 172 238.56188964844 483.14999389648 75251.747833252 33839718.27523
vector 7257  IntersectionExampleScenario.node[17].veinsmobility  acceleration  ETV
vector 7258  IntersectionExampleScenario.node[17].veinsmobility  co2emission  ETV
vector 7261  IntersectionExampleScenario.node[18].veinsmobility  posx  ETV
vector 7262  IntersectionExampleScenario.node[18].veinsmobility  posy  ETV
vector 7263  IntersectionExampleScenario.node[18].veinsmobility  speed  ETV
vector 7264  IntersectionExampleScenario.node[18].veinsmobility  acceleration  ETV
vector 7265  IntersectionExampleScenario.node[18].veinsmobility  co2emission  ETV
vector 7268  IntersectionExampleScenario.node[19].veinsmobility  posx  ETV
vector 7269  IntersectionExampleScenario.node[19].veinsmobility  posy  ETV
vector 7270  IntersectionExampleScenario.node[19].veinsmobility  speed  ETV
vector 7271  IntersectionExampleScenario.node[19].veinsmobility  acceleration  ETV
vector 7272  IntersectionExampleScenario.node[19].veinsmobility  co2emission  ETV
7202	249978 4887 1876 3796 43 83 161 0.973 11.648172402475 535.92458776395 3181.7490186721
7201	254865 4640 1876 3796 43 83 161 -3.6050796508789 2.5 38.511121749878 313.68060973953
7200	259505 4897 1865 3796 42.75 83 162 5.6500000953674 15.64999961853 2209.0007410049 31132.269027
7199	264402 5195 1853 3796 42.5 83 163 483.14999389648 785.82187652588 93091.497322083 54943795.375621
7198	269597 5206 1853 3796 42.5 83 163 483.14999389648 733.23454284668 87148.545715332 47559995.970275
vector 7275  IntersectionExampleScenario.node[20].veinsmobility  posx  ETV
vector 7276  IntersectionExampleScenario.node[20].veinsmobility  posy  ETV
vector 7277  IntersectionExampleScenario.node[20].veinsmobility  speed  ETV
vector 7278  IntersectionExampleScenario.node[20].veinsmobility  acceleration  ETV
vector 7279  IntersectionExampleScenario.node[20].veinsmobility  co2emission  ETV
vector 7282  IntersectionExampleScenario.node[21].veinsmobility  posx  ETV
vector 7283  IntersectionExampleScenario.node[21].veinsmobility  posy  ETV
vector 7284  IntersectionExampleScenario.node[21].veinsmobility  speed  ETV
vector 7285  IntersectionExampleScenario.node[21].veinsmobility  acceleration  ETV
vector 7286  IntersectionExampleScenario.node[21].veinsmobility  co2emission  ETV
vector 7289  IntersectionExampleScenario.node[22].veinsmobility  posx  ETV
vector 7290  IntersectionExampleScenario.node[22].veinsmobility  posy  ETV
vector 7291  IntersectionExampleScenario.node[22].veinsmobility  speed  ETV
vector 7292  IntersectionExampleScenario.node[22].veinsmobility  acceleration  ETV
vector 7293  IntersectionExampleScenario.node[22].veinsmobility  co2emission  ETV
7216	275991 5372 2204 4699 50.5 95 179 0.973 11.90022389248 562.86840992329 3084.5552936542
7215	281363 4994 2204 4699 50.5 95 179 -7.2641463279724 4 39.699392318726 488.74823969018
7214	286357 5294 2193 4699 50.25 95 180 0 16 2217.2995821238 32035.833704362
7213	291651 5790 2182 4699 50 95 181 483.14999389648 483.14999389648 87450.148895264 42251538.904993
7212	297441 5760 2182 4699 50 95 181 184.17810058594 734.53973388672 81782.994384766 41069753.152077
7209	303201 5630 2100 4716 48 95.25 190 0.973 11.648172402475 561.80395261113 2927.5740112502
7208	308831 5179 2100 4716 48 95.25 190 -7.7750473022461 4 38.511121749878 476.5267975717
7207	314010 5500 2087 4716 47.75 95.25 191 0 15.64999961853 2201.8212580681 31157.430440079
7206	319510 6139 2074 4716 47.5 95.25 192 236.75640869141 486.85000610352 85086.245941162 38737866.514231
7205	325649 6132 2074 4716 47.5 95.25 192 483.14999389648 785.82187652588 107418.30710602 62013124.941285
vector 7296  IntersectionExampleScenario.node[23].veinsmobility  posx  ETV
vector 7297  IntersectionExampleScenario.node[23].veinsmobility  posy  ETV
vector 7298  IntersectionExampleScenario.node[23].veinsmobility  speed  ETV
vector 7299  IntersectionExampleScenario.node[23].veinsmobility  acceleration  ETV
vector 7300  IntersectionExampleScenario.node[23].veinsmobility  co2emission  ETV
vector 7303  IntersectionExampleScenario.node[24].veinsmobility  posx  ETV
vector 7304  IntersectionExampleScenario.node[24].veinsmobility  posy  ETV
vector 7305  IntersectionExampleScenario.node[24].veinsmobility  speed  ETV
vector 7306  IntersectionExampleScenario.node[24].veinsmobility  acceleration  ETV
vector 7307  IntersectionExampleScenario.node[24].veinsmobility  co2emission  ETV
vector 7310  IntersectionExampleScenario.node[25].veinsmobility  posx  ETV
vector 7311  IntersectionExampleScenario.node[25].veinsmobility  posy  ETV
vector 7312  IntersectionExampleScenario.node[25].veinsmobility  speed  ETV
vector 7317  IntersectionExampleScenario.node[26].veinsmobility  posx  ETV
vector 7318  IntersectionExampleScenario.node[26].veinsmobility  posy  ETV
vector 7313  IntersectionExampleScenario.node[25].veinsmobility  acceleration  ETV
vector 7314  IntersectionExampleScenario.node[25].veinsmobility  co2emission  ETV
vector 7319  IntersectionExampleScenario.node[26].veinsmobility  speed  ETV
vector 7320  IntersectionExampleScenario.node[26].veinsmobility  acceleration  ETV
vector 7321  IntersectionExampleScenario.node[26].veinsmobility  co2emission  ETV
vector 7324  IntersectionExampleScenario.node[27].veinsmobility  posx  ETV
vector 7325  IntersectionExampleScenario.node[27].veinsmobility  posy  ETV
vector 7326  IntersectionExampleScenario.node[27].veinsmobility  speed  ETV
vector 7327  IntersectionExampleScenario.node[27].veinsmobility  acceleration  ETV
vector 7328  IntersectionExampleScenario.node[27].veinsmobility  co2emission  ETV
7237	333761 4909 3028 5751 70 109 157 0.973 11.648172402475 488.40850861431 2625.2570279354
7236	338670 4475 3028 5751 70 109 157 -3.1246948242188 2.5 38.171613693237 230.31294357239
7235	343145 4807 3015 5751 69.75 109 158 5.6500000953674 15.64999961853 2200.5340452194 31558.175668865
7234	347952 5117 3002 5751 69.5 109 159 238.59423828125 486.85000610352 69094.785217285 30966076.994286
7233	353069 5115 3002 5751 69.5 109 159 483.13290405273 785.82187652588 90964.575767517 53814508.430024
7230	358184 5565 2719 5789 62.75 109.5 188 0.973 12.26218747632 590.88631326553 3351.2587415635
7229	363749 5048 2719 5789 62.75 109.5 188 -7.0093650817871 4 42.415441513062 500.8220278914
7228	368797 5362 2706 5789 62.5 109.5 189 0 16.5 2183.4749882221 32334.051822106
7227	374159 6106 2693 5789 62.25 109.5 190 486.63604736328 785.82187652588 106264.90172577 61281611.911507
7226	380265 6049 2693 5789 62.25 109.5 190 235.73986816406 483.14999389648 84025.134155273 38116448.963737
vector 7331  IntersectionExampleScenario.node[28].veinsmobility  posx  ETV
vector 7332  IntersectionExampleScenario.node[28].veinsmobility  posy  ETV
vector 7333  IntersectionExampleScenario.node[28].veinsmobility  speed  ETV
vector 7334  IntersectionExampleScenario.node[28].veinsmobility  acceleration  ETV
vector 7335  IntersectionExampleScenario.node[28].veinsmobility  co2emission  ETV
7223	386710 6434 2384 5869 55.25 110.5 222 0.973 11.36141391502 582.54511845682 2804.2831345168
7222	393144 5639 2384 5869 55.25 110.5 222 -22.698253631592 4 37.15309715271 896.63242534304
7221	398783 6065 2373 5869 55 110.5 223 0 15.25 2177.8482122421 30376.994406133
7220	404848 7192 2362 5869 54.75 110.5 224 184.17810058594 483.36395263672 93520.502197266 41047313.018774
7219	412040 7149 2362 5869 54.75 110.5 224 486.85000610352 733.15849304199 117391.73983765 62576937.098881
7244	419189 5051 3028 5950 70 111.5 167 0.973 12.099024792222 549.28858192773 3247.7750646825
7243	424240 4960 3028 5950 70 111.5 167 -4.4370346069336 2.5 40.887662887573 315.01084848598
7242	429200 5185 3015 5950 69.75 111.5 168 5.0329027175903 16.27499961853 2222.3616657257 31419.317857128
7241	434385 5424 3002 5950 69.5 111.5 169 184.17810058594 733.86293029785 75431.77394104 37712320.088906
7240	439809 5455 3002 5950 69.5 111.5 169 486.85000610352 486.85000610352 82277.651031494 40056874.906866
vector 7338  IntersectionExampleScenario.node[29].veinsmobility  posx  ETV
vector 7339  IntersectionExampleScenario.node[29].veinsmobility  posy  ETV
vector 7340  IntersectionExampleScenario.node[29].veinsmobility  speed  ETV
vector 7341  IntersectionExampleScenario.node[29].veinsmobility  acceleration  ETV
vector 7342  IntersectionExampleScenario.node[29].veinsmobility  co2emission  ETV
vector 7345  IntersectionExampleScenario.node[30].veinsmobility  posx  ETV
vector 7346  IntersectionExampleScenario.node[30].veinsmobility  posy  ETV
vector 7347  IntersectionExampleScenario.node[30].veinsmobility  speed  ETV
vector 7348  IntersectionExampleScenario.node[30].veinsmobility  acceleration  ETV
vector 7349  IntersectionExampleScenario.node[30].veinsmobility  co2emission  ETV
vector 7352  IntersectionExampleScenario.node[31].veinsmobility  posx  ETV
vector 7353  IntersectionExampleScenario.node[31].veinsmobility  posy  ETV
vector 7359  IntersectionExampleScenario.node[32].veinsmobility  posx  ETV
vector 7360  IntersectionExampleScenario.node[32].veinsmobility  posy  ETV
vector 7354  IntersectionExampleScenario.node[31].veinsmobility  speed  ETV
vector 7355  IntersectionExampleScenario.node[31].veinsmobility  acceleration  ETV
vector 7356  IntersectionExampleScenario.node[31].veinsmobility  co2emission  ETV
vector 7361  IntersectionExampleScenario.node[32].veinsmobility  speed  ETV
vector 7362  IntersectionExampleScenario.node[32].veinsmobility  acceleration  ETV
vector 7363  IntersectionExampleScenario.node[32].veinsmobility  co2emission  ETV
vector 7366  IntersectionExampleScenario.node[33].veinsmobility  posx  ETV
vector 7367  IntersectionExampleScenario.node[33].veinsmobility  posy  ETV
vector 7368  IntersectionExampleScenario.node[33].veinsmobility  speed  ETV
vector 7369  IntersectionExampleScenario.node[33].veinsmobility  acceleration  ETV
vector 7370  IntersectionExampleScenario.node[33].veinsmobility  co2emission  ETV
7258	447244 5109 3612 6811 80 120.25 162 0.973 11.36141391502 498.04660962162 2605.702682659
7257	452353 4607 3612 6811 80 120.25 162 -3.4964065551758 2.5 37.15309715271 266.39968955849
7256	456960 4982 3599 6811 79.75 120.25 163 5.6500000953674 15.25 2185.2570877075 30545.53155198
7255	461942 5324 3586 6811 79.5 120.25 164 486.85000610352 785.82187652588 93854.859733582 55474393.655254
7254	467266 5325 3586 6811 79.5 120.25 164 236.24060058594 483.14999389648 70855.865905762 31560645.17558
7272	472591 5173 3745 7135 82.25 123.25 165 0.973 11.36141391502 509.60021706224 2649.3236616582
7271	477764 4508 3745 7135 82.25 123.25 165 -4.2443046569824 2.5 38.341367721558 259.64411438461
7270	482272 5100 3728 7135 82 123.25 166 5.6500000953674 15.25 2251.5024003983 31873.303305408
7269	487372 5427 3711 7135 81.75 123.25 167 486.85000610352 802.70781707764 96677.76726532 57976101.113035
7268	492799 5433 3711 7135 81.75 123.25 167 237.03692626953 483.14999389648 72512.308410645 32422192.763546
vector 7373  IntersectionExampleScenario.node[34].veinsmobility  posx  ETV
vector 7374  IntersectionExampleScenario.node[34].veinsmobility  posy  ETV
vector 7375  IntersectionExampleScenario.node[34].veinsmobility  speed  ETV
vector 7376  IntersectionExampleScenario.node[34].veinsmobility  acceleration  ETV
vector 7377  IntersectionExampleScenario.node[34].veinsmobility  co2emission  ETV
7251	498628 6291 3123 7341 71.75 125.25 215 0.97223939240464 11.810082123732 589.71919735675 3051.0681518801
7250	504919 5745 3123 7341 71.75 125.25 215 -7.743688583374 4 38.680875778198 532.21179026622
7249	510664 5978 3108 7341 71.5 125.25 216 0 15.875 2183.8938484192 31045.636687105
7248	516642 6977 3093 7341 71.25 125.25 217 235.25335693359 483.14999389648 96603.498016357 44050864.025082
7247	523619 7023 3093 7341 71.25 125.25 217 184.17810058594 483.36395263672 90411.30065918 39635239.433037
7265	530642 5503 3681 7503 81.25 127 184 0.973 12.099024792222 558.61272601478 3123.7341359389
7264	536145 5588 3681 7503 81.25 127 184 -2.1758155822754 2.5 41.227170944214 307.39985386309
7263	541733 5713 3666 7503 81 127 185 2.539719581604 16.27499961853 2180.2031598091 29777.147511561
7262	547446 6034 3651 7503 80.75 127 186 238.3125 483.14999389648 82106.62789917 37180067.629037
7261	553480 6028 3651 7503 80.75 127 186 184.17810058594 483.24291992188 75206.939208984 32175339.015276
vector 7380  IntersectionExampleScenario.node[35].veinsmobility  posx  ETV
vector 7381  IntersectionExampleScenario.node[35].veinsmobility  posy  ETV
vector 7382  IntersectionExampleScenario.node[35].veinsmobility  speed  ETV
vector 7383  IntersectionExampleScenario.node[35].veinsmobility  acceleration  ETV
vector 7384  IntersectionExampleScenario.node[35].veinsmobility  co2emission  ETV
vector 7387  IntersectionExampleScenario.node[36].veinsmobility  posx  ETV
vector 7388  IntersectionExampleScenario.node[36].veinsmobility  posy  ETV
vector 7389  IntersectionExampleScenario.node[36].veinsmobility  speed  ETV
vector 7390  IntersectionExampleScenario.node[36].veinsmobility  acceleration  ETV
vector 7391  IntersectionExampleScenario.node[36].veinsmobility  co2emission  ETV
7300	560300 5047 4771 8247 96 135.5 159 0.97223939240464 11.810082123732 507.90446564047 2852.4636117653
7299	565347 4727 4771 8247 96 135.5 159 -3.3224430084229 2.5 38.680875778198 281.07750478256
7298	570074 4925 4752 8247 95.75 135.5 160 5.6500000953674 15.875 2180.3963141441 31117.975677723
7297	574999 5292 4733 8247 95.5 135.5 161 486.85000610352 732.1520690918 86462.362808228 47344177.968307
7296	580291 5291 4733 8247 95.5 135.5 161 486.73587036133 785.82187652588 92162.609840393 54496323.186597
vector 7394  IntersectionExampleScenario.node[37].veinsmobility  posx  ETV
vector 7395  IntersectionExampleScenario.node[37].veinsmobility  posy  ETV
vector 7396  IntersectionExampleScenario.node[37].veinsmobility  speed  ETV
vector 7397  IntersectionExampleScenario.node[37].veinsmobility  acceleration  ETV
vector 7398  IntersectionExampleScenario.node[37].veinsmobility  co2emission  ETV
7279	585978 6451 4004 8647 86 140.25 218 0.973 11.648172402475 614.50584734462 3188.8398665144
7278	592429 5723 4004 8647 86 140.25 218 -7.5060515403748 4 38.850629806519 553.58950062634
7277	598152 6207 3985 8647 85.75 140.25 219 0 15.64999961853 2272.8432859182 32445.858041956
7276	604359 7186 3966 8647 85.5 140.25 220 483.14999389648 802.22579193115 122707.81703949 70731994.896428
7275	611545 7195 3966 8647 85.5 140.25 220 483.14999389648 734.32060241699 114709.9594574 60897008.522294
7293	618740 5783 4682 8723 94.75 141.25 187 0.973 11.36141391502 588.96972800336 3050.7648493792
7292	624523 5799 4682 8723 94.75 141.25 187 -4.5 2.5000002384186 42.749433517456 447.36028825394
7291	630322 5944 4665 8723 94.5 141.25 188 0 16.492519378662 2183.7833329998 31390.122138527
7290	636266 6191 4648 8723 94.25 141.25 189 184.17810058594 483.41217041016 76994.822875977 33206774.853797
7289	642457 6208 4648 8723 94.25 141.25 189 486.85000610352 733.51167297363 99762.269210815 53608901.579835
7286	648665 6228 4312 8723 90 141.25 206 0.973 11.00486315618 545.71031141593 2552.3448023443
7285	654893 5927 4312 8723 90 141.25 206 -7.1774373054504 4 34.267293930054 447.3346061545
7284	660820 6067 4291 8723 89.75 141.25 207 0 14.75 2200.6698740721 29382.602079988
7283	666887 6797 4270 8723 89.5 141.25 208 184.17810058594 486.85000610352 85838.71572876 37436988.403251
7282	673684 6818 4270 8723 89.5 141.25 208 236.70440673828 486.85000610352 92282.791046143 42054834.93751
7307	680502 5535 4929 8843 98.25 143 180 0.973 11.648172402475 543.12876277168 2909.5682357557
7306	686037 5471 4929 8843 98.25 143 180 -3.4377250671387 2.5 38.341367721558 301.19808540788
7305	691508 5729 4910 8843 98 143 181 4.0333337783813 15.64999961853 2261.2508935928 30642.646399848
7304	697237 5877 4891 8843 97.75 143 182 174.53436279297 734.63424682617 80676.420227051 40157653.662565
7303	703114 5996 4891 8843 97.75 143 182 486.85000610352 486.85000610352 88606.70111084 43138172.976625
vector 7401  IntersectionExampleScenario.node[38].veinsmobility  posx  ETV
vector 7402  IntersectionExampleScenario.node[38].veinsmobility  posy  ETV
vector 7403  IntersectionExampleScenario.node[38].veinsmobility  speed  ETV
vector 7404  IntersectionExampleScenario.node[38].veinsmobility  acceleration  ETV
vector 7405  IntersectionExampleScenario.node[38].veinsmobility  co2emission  ETV
7335	709506 5017 5869 9195 110.5 149.25 156 0.973 11.54047740176 466.24734855685 2350.2721061927
7334	714523 4820 5869 9195 110.5 149.25 156 -3.2414894104004 2.5 37.492597579956 182.08862885007
7333	719343 4953 5848 9195 110.25 149.25 157 5.6500000953674 15.5 2221.6117200851 32027.736933013
7332	724296 5179 5827 9195 110 149.25 158 184.17810058594 734.48606872559 70998.196014404 36114893.231938
7331	729475 5213 5827 9195 110 149.25 158 486.85000610352 486.85000610352 76922.300964355 37449622.693993
7349	734688 4970 6202 9390 114.5 153 155 0.973 11.90022389248 506.96171737772 2730.2723926101
7348	739658 4672 6202 9390 114.5 153 155 -3.2546234130859 2.5 40.548154830933 237.86887088366
7347	744330 4849 6179 9390 114.25 153 156 5.6500000953674 16 2228.5811367035 32917.592513626
7346	749179 5137 6156 9390 114 153 157 177.97814941406 486.85000610352 62012.425628662 26336858.436691
7345	754316 5168 6156 9390 114 153 157 238.00274658203 486.85000610352 68376.990234375 30700429.266719
7356	759484 4957 6323 9455 115.75 154.25 155 0.973 12.099024792222 528.81127581127 2979.4289348597
7355	764441 4671 6323 9455 115.75 154.25 155 -3.2766227722168 2.5000019073486 41.566686630249 291.76534960736
7354	769112 4863 6296 9455 115.5 154.25 156 5.6500000953674 16.27499961853 2209.6790366173 32710.014425191
7353	773975 5168 6271 9455 115.25 154.25 157 483.14999389648 733.60424804688 83904.020965576 45767189.803615
7352	779143 5154 6271 9455 115.25 154.25 157 184.17810058594 486.87741088867 62648.567901611 26744535.439199
vector 7408  IntersectionExampleScenario.node[39].veinsmobility  posx  ETV
vector 7409  IntersectionExampleScenario.node[39].veinsmobility  posy  ETV
vector 7410  IntersectionExampleScenario.node[39].veinsmobility  speed  ETV
7314	784526 6225 5433 9532 105 156 205 0.973 11.200708441096 553.43983787405 2660.6132659052
7313	790751 5690 5433 9532 105 156 205 -7.2424693107605 4 35.455564498901 450.01298811648
7312	796441 6072 5414 9532 104.75 156 206 0 15.02499961853 2202.8812993765 29887.57015602
7311	802513 6822 5395 9532 104.5 156 207 236.20440673828 486.85000610352 91932.946777344 41930270.276399
7310	809335 6818 5395 9532 104.5 156 207 483.14999389648 785.82187652588 115250.46050262 66162020.09056
vector 7411  IntersectionExampleScenario.node[39].veinsmobility  acceleration  ETV
vector 7412  IntersectionExampleScenario.node[39].veinsmobility  co2emission  ETV
7321	816320 6652 5475 9600 105.5 157.75 210 0.973 10.909273263756 578.43038501804 2646.8447543403
7320	822972 6476 5475 9600 105.5 157.75 210 -4.5 2.5 37.15309715271 420.45737928194
7319	829448 6794 5454 9600 105.25 157.75 211 0 15.094114303589 2291.796009792 31176.005467895
7318	836242 6993 5433 9600 105 157.75 212 238.62475585938 486.85000610352 94767.731414795 43423935.639343
7317	843235 6973 5433 9600 105 157.75 212 483.021484375 809.56562805176 120221.00443268 70573207.96438
vector 7415  IntersectionExampleScenario.node[40].veinsmobility  posx  ETV
vector 7416  IntersectionExampleScenario.node[40].veinsmobility  posy  ETV
vector 7422  IntersectionExampleScenario.node[41].veinsmobility  posx  ETV
vector 7423  IntersectionExampleScenario.node[41].veinsmobility  posy  ETV
vector 7417  IntersectionExampleScenario.node[40].veinsmobility  speed  ETV
vector 7424  IntersectionExampleScenario.node[41].veinsmobility  speed  ETV
vector 7418  IntersectionExampleScenario.node[40].veinsmobility  acceleration  ETV
vector 7419  IntersectionExampleScenario.node[40].veinsmobility  co2emission  ETV
vector 7425  IntersectionExampleScenario.node[41].veinsmobility  acceleration  ETV
vector 7426  IntersectionExampleScenario.node[41].veinsmobility  co2emission  ETV
vector 7429  IntersectionExampleScenario.node[42].veinsmobility  posx  ETV
vector 7430  IntersectionExampleScenario.node[42].veinsmobility  posy  ETV
7328	851152 6282 5751 9679 109 159.5 203 0.973 11.200708441096 577.75634787329 2783.7506692966
7327	857434 6338 5751 9679 109 159.5 203 -4.3219604492188 2.5 39.020376205444 368.33399298496
7326	863772 6531 5732 9679 108.75 159.5 204 0 15.451061248779 2295.7387221418 31667.209948602
7325	870303 6760 5712 9679 108.5 159.5 205 236.38940429688 486.85000610352 91453.140106201 41851239.923413
7324	877063 6741 5712 9679 108.5 159.5 205 482.94592285156 808.0074005127 116453.24977112 68409626.007272
vector 7431  IntersectionExampleScenario.node[42].veinsmobility  speed  ETV
vector 7432  IntersectionExampleScenario.node[42].veinsmobility  acceleration  ETV
vector 7433  IntersectionExampleScenario.node[42].veinsmobility  co2emission  ETV
7342	884048 5949 6030 9754 112.5 160.75 194 0.973 11.990504229548 577.83970687687 3086.4243909365
7341	889997 5877 6030 9754 112.5 160.75 194 -4.5 2.5000009536743 39.869146347046 364.88859586149
7340	895874 6196 6009 9754 112.25 160.75 195 1.5421965122223 16.125 2291.9384766817 31698.98921983
7339	902070 6468 5988 9754 112 160.75 196 486.85000610352 486.85000610352 95422.601196289 46456493.974827
7338	908538 6440 5988 9754 112 160.75 196 238.86413574219 806.55840301514 104270.86849976 59967019.776475
vector 7436  IntersectionExampleScenario.node[43].veinsmobility  posx  ETV
vector 7437  IntersectionExampleScenario.node[43].veinsmobility  posy  ETV
vector 7438  IntersectionExampleScenario.node[43].veinsmobility  speed  ETV
vector 7439  IntersectionExampleScenario.node[43].veinsmobility  acceleration  ETV
vector 7440  IntersectionExampleScenario.node[43].veinsmobility  co2emission  ETV
vector 7443  IntersectionExampleScenario.node[44].veinsmobility  posx  ETV
vector 7444  IntersectionExampleScenario.node[44].veinsmobility  posy  ETV
vector 7445  IntersectionExampleScenario.node[44].veinsmobility  speed  ETV
vector 7446  IntersectionExampleScenario.node[44].veinsmobility  acceleration  ETV
vector 7447  IntersectionExampleScenario.node[44].veinsmobility  co2emission  ETV
7370	915770 5491 6729 9979 119.5 164 179 0.973 11.450879080643 535.41401677473 2897.6719876869
7369	921261 5507 6729 9979 119.5 164 179 -3.3782348632812 2.5 37.492597579956 304.43214248544
7368	926768 5649 6702 9979 119.25 164 180 5.6500000953674 15.375 2207.2197551727 28906.357942136
7367	932417 5968 6674 9979 119 164 181 236.70379638672 486.85000610352 79591.9737854 36019380.029305
7366	938385 5960 6674 9979 119 164 181 483.14999389648 785.82187652588 103110.50983429 60548435.755813
vector 7450  IntersectionExampleScenario.node[45].veinsmobility  posx  ETV
vector 7451  IntersectionExampleScenario.node[45].veinsmobility  posy  ETV
vector 7452  IntersectionExampleScenario.node[45].veinsmobility  speed  ETV
vector 7453  IntersectionExampleScenario.node[45].veinsmobility  acceleration  ETV
vector 7454  IntersectionExampleScenario.node[45].veinsmobility  co2emission  ETV
vector 7457  IntersectionExampleScenario.node[46].veinsmobility  posx  ETV
vector 7458  IntersectionExampleScenario.node[46].veinsmobility  posy  ETV
vector 7464  IntersectionExampleScenario.node[47].veinsmobility  posx  ETV
vector 7465  IntersectionExampleScenario.node[47].veinsmobility  posy  ETV
vector 7459  IntersectionExampleScenario.node[46].veinsmobility  speed  ETV
vector 7460  IntersectionExampleScenario.node[46].veinsmobility  acceleration  ETV
vector 7461  IntersectionExampleScenario.node[46].veinsmobility  co2emission  ETV
vector 7466  IntersectionExampleScenario.node[47].veinsmobility  speed  ETV
vector 7467  IntersectionExampleScenario.node[47].veinsmobility  acceleration  ETV
vector 7468  IntersectionExampleScenario.node[47].veinsmobility  co2emission  ETV
7363	945533 6571 6350 10505 116 170.5 219 0.973 11.450879080643 584.21123998424 2842.4124209518
7362	952104 5951 6350 10505 116 170.5 219 -27.056358337402 4 37.15309715271 1121.0848014451
7361	958055 6226 6323 10505 115.75 170.5 220 0 15.375 2199.4944648743 30951.075363721
7360	964281 7308 6296 10505 115.5 170.5 221 483.14999389648 785.82187652588 122002.92118073 69380426.752651
7359	971589 7311 6296 10505 115.5 170.5 221 483.14999389648 732.66976928711 115302.59136963 61246657.818353
7377	978900 5715 7341 10630 125.25 172 188 0.973 11.810082123732 556.43714882947 3028.8405391923
7376	984615 5819 7341 10630 125.25 172 188 -2.644495010376 2.5 39.699392318726 322.52659213805
7375	990434 5927 7316 10630 125 172 189 2.1412968635559 15.875 2192.6492898464 29487.191485658
7374	996361 6290 7291 10630 124.75 172 190 486.85000610352 785.82187652588 107362.92603302 62461481.142027
7373	1002651 6293 7291 10630 124.75 172 190 235.13079833984 483.14999389648 83665.919464111 37832961.593519
7391	1008944 5108 8086 10725 133.75 173.25 159 0.973 11.648172402475 508.8940503053 2758.8708910966
7390	1014052 4667 8086 10725 133.75 173.25 159 -3.4376411437988 2.5 38.850629806519 277.43183512305
7389	1018719 5013 8063 10725 133.5 173.25 160 5.6500000953674 15.64999961853 2190.1913118362 31358.056735822
7388	1023732 5322 8040 10725 133.25 173.25 161 184.17810058594 483.14999389648 64029.702514648 27203817.82146
7387	1029054 5342 8040 10725 133.25 173.25 161 486.85000610352 734.66619873047 86603.599182129 47518976.507279
vector 7471  IntersectionExampleScenario.node[48].veinsmobility  posx  ETV
vector 7472  IntersectionExampleScenario.node[48].veinsmobility  posy  ETV
vector 7473  IntersectionExampleScenario.node[48].veinsmobility  speed  ETV
vector 7474  IntersectionExampleScenario.node[48].veinsmobility  acceleration  ETV
vector 7475  IntersectionExampleScenario.node[48].veinsmobility  co2emission  ETV
vector 7478  IntersectionExampleScenario.node[49].veinsmobility  posx  ETV
vector 7479  IntersectionExampleScenario.node[49].veinsmobility  posy  ETV
vector 7480  IntersectionExampleScenario.node[49].veinsmobility  speed  ETV
vector 7485  IntersectionExampleScenario.node[50].veinsmobility  posx  ETV
vector 7486  IntersectionExampleScenario.node[50].veinsmobility  posy  ETV
vector 7481  IntersectionExampleScenario.node[49].veinsmobility  acceleration  ETV
vector 7482  IntersectionExampleScenario.node[49].veinsmobility  co2emission  ETV
vector 7492  IntersectionExampleScenario.node[51].veinsmobility  posx  ETV
vector 7493  IntersectionExampleScenario.node[51].veinsmobility  posy  ETV
vector 7487  IntersectionExampleScenario.node[50].veinsmobility  speed  ETV
vector 7488  IntersectionExampleScenario.node[50].veinsmobility  acceleration  ETV
vector 7489  IntersectionExampleScenario.node[50].veinsmobility  co2emission  ETV
vector 7494  IntersectionExampleScenario.node[51].veinsmobility  speed  ETV
vector 7495  IntersectionExampleScenario.node[51].veinsmobility  acceleration  ETV
vector 7496  IntersectionExampleScenario.node[51].veinsmobility  co2emission  ETV
vector 7499  IntersectionExampleScenario.node[52].veinsmobility  posx  ETV
vector 7500  IntersectionExampleScenario.node[52].veinsmobility  posy  ETV
vector 7506  IntersectionExampleScenario.node[53].veinsmobility  posx  ETV
vector 7507  IntersectionExampleScenario.node[53].veinsmobility  posy  ETV
vector 7501  IntersectionExampleScenario.node[52].veinsmobility  speed  ETV
vector 7502  IntersectionExampleScenario.node[52].veinsmobility  acceleration  ETV
vector 7503  IntersectionExampleScenario.node[52].veinsmobility  co2emission  ETV
vector 7508  IntersectionExampleScenario.node[53].veinsmobility  speed  ETV
vector 7509  IntersectionExampleScenario.node[53].veinsmobility  acceleration  ETV
vector 7510  IntersectionExampleScenario.node[53].veinsmobility  co2emission  ETV
7384	1036772 6414 7949 11867 132.25 185 212 0.973 11.810082123732 593.81018292777 3075.0996675014
7383	1043186 5807 7949 11867 132.25 185 212 -8.7819776535034 4 39.699392318726 546.27907563317
7382	1048993 6101 7926 11867 132 185 213 0 15.875 2180.2343225479 31380.212794336
7381	1055094 7075 7903 11867 131.75 185 214 486.85000610352 733.87629699707 112248.76211548 59896673.102072
7380	1062169 7137 7903 11867 131.75 185 214 486.63604736328 785.82187652588 118483.72589874 67550161.994375
7398	1069306 5737 8628 11893 140 185.25 182 0.973 11.648172402475 555.06690388029 2953.0052037234
7397	1075043 5509 8628 11893 140 185.25 182 -9.2494468688965 4 38.341367721558 516.25434868684
7396	1080552 5637 8609 11893 139.75 185.25 183 0 15.64999961853 2211.1903357506 31438.923687529
7395	1086189 6156 8590 11893 139.5 185.25 184 483.14999389648 483.14999389648 88899.598876953 42951840.6548
7394	1092345 6124 8590 11893 139.5 185.25 184 184.17810058594 733.41819763184 83178.168014526 41755922.958222
vector 7513  IntersectionExampleScenario.node[54].veinsmobility  posx  ETV
vector 7514  IntersectionExampleScenario.node[54].veinsmobility  posy  ETV
vector 7515  IntersectionExampleScenario.node[54].veinsmobility  speed  ETV
vector 7516  IntersectionExampleScenario.node[54].veinsmobility  acceleration  ETV
vector 7517  IntersectionExampleScenario.node[54].veinsmobility  co2emission  ETV
7405	1098865 5100 9103 12116 147.5 187.5 161 0.973 11.90022389248 560.87145119685 3379.009281298
7404	1103965 4775 9103 12116 147.5 187.5 161 -3.5288734436035 2.5 41.566686630249 340.04097744617
7403	1108740 5117 9088 12116 147.25 187.5 162 5.6500000953674 16.086673736572 2212.8629517555 31771.942348121
7402	1113857 5463 9073 12116 147 187.5 163 483.14999389648 734.11279296875 86825.318511963 47196993.436538
7401	1119320 5441 9073 12116 147 187.5 163 184.17810058594 486.88079833984 65070.593841553 27721621.87093
vector 7520  IntersectionExampleScenario.node[55].veinsmobility  posx  ETV
vector 7521  IntersectionExampleScenario.node[55].veinsmobility  posy  ETV
vector 7522  IntersectionExampleScenario.node[55].veinsmobility  speed  ETV
vector 7523  IntersectionExampleScenario.node[55].veinsmobility  acceleration  ETV
vector 7524  IntersectionExampleScenario.node[55].veinsmobility  co2emission  ETV
vector 7527  IntersectionExampleScenario.node[56].veinsmobility  posx  ETV
vector 7528  IntersectionExampleScenario.node[56].veinsmobility  posy  ETV
vector 7529  IntersectionExampleScenario.node[56].veinsmobility  speed  ETV
vector 7530  IntersectionExampleScenario.node[56].veinsmobility  acceleration  ETV
vector 7531  IntersectionExampleScenario.node[56].veinsmobility  co2emission  ETV
vector 7534  IntersectionExampleScenario.node[57].veinsmobility  posx  ETV
vector 7535  IntersectionExampleScenario.node[57].veinsmobility  posy  ETV
vector 7536  IntersectionExampleScenario.node[57].veinsmobility  speed  ETV
vector 7537  IntersectionExampleScenario.node[57].veinsmobility  acceleration  ETV
vector 7538  IntersectionExampleScenario.node[57].veinsmobility  co2emission  ETV
7412	1125949 5573 9543 13258 156.25 199.75 175 0.973 12.099024792222 564.83524720147 3223.676418945
7411	1131522 5454 9543 13258 156.25 199.75 175 -7.5213665962219 4 40.378400802612 504.03290933985
7410	1136976 5509 9532 13258 156 199.75 176 0 16.27499961853 2210.1460965872 32259.464489957
7409	1142485 5952 9521 13258 155.75 199.75 177 184.17810058594 732.75503540039 79803.351104736 40023592.38039
7408	1148437 5984 9521 13258 155.75 199.75 177 486.85000610352 486.85000610352 86172.451080322 41953058.33441
7419	1154421 5393 9653 13277 159 200 165 0.973 11.450879080643 514.76622600808 2702.2721777182
7418	1159814 4968 9653 13277 159 200 165 -3.2608547210693 2.5 37.15309715271 313.82031643682
7417	1164782 5405 9640 13277 158.75 200 166 4.7276864051819 15.375 2200.9702992439 30617.230319441
7416	1170187 5642 9627 13277 158.5 200 167 483.01370239258 785.82187652588 95134.999534607 56012638.855564
7415	1175829 5647 9627 13277 158.5 200 167 483.14999389648 732.30316162109 89194.002838135 48617494.631469
vector 7541  IntersectionExampleScenario.node[58].veinsmobility  posx  ETV
vector 7542  IntersectionExampleScenario.node[58].veinsmobility  posy  ETV
7447	1181628 4971 9903 13353 163 201 153 0.973 11.990504229548 513.23250591913 2996.8231895871
7446	1186599 4796 9903 13353 163 201 153 -3.7920417785645 2.5000038146973 40.038900375366 251.48138512115
7445	1191395 4990 9884 13353 162.75 201 154 5.6500000953674 16.125 2235.8357400894 33178.58595334
7444	1196385 5216 9865 13353 162.5 201 155 238.52954101562 792.02188110352 81584.404281616 47108162.335023
7443	1201601 5261 9865 13353 162.5 201 155 483.14999389648 483.14999389648 74888.249053955 36182257.073337
vector 7543  IntersectionExampleScenario.node[58].veinsmobility  speed  ETV
vector 7544  IntersectionExampleScenario.node[58].veinsmobility  acceleration  ETV
vector 7545  IntersectionExampleScenario.node[58].veinsmobility  co2emission  ETV
7433	1207106 5452 9709 13416 160 201.75 168 0.97223939240464 11.648172402475 529.12709761579 2795.2462239239
7432	1212558 5195 9709 13416 160 201.75 168 -4.5 2.5 38.680875778198 387.1931242428
7431	1217753 5454 9694 13416 159.75 201.75 169 2.3045477867126 15.64999961853 2135.3322963715 29651.913725549
7430	1223207 5748 9679 13416 159.5 201.75 170 196.93048095703 483.14999389648 69128.626556396 29701526.998682
7429	1228955 5743 9679 13416 159.5 201.75 170 486.85000610352 733.90072631836 90959.140487671 49618083.228023
7426	1234698 5787 9653 13563 159 203.5 179 0.973 11.450879080643 562.11584906208 3007.7320053887
7425	1240485 5535 9653 13563 159 203.5 179 -4.5 2.5 38.341367721558 364.37210842431
7424	1246020 5817 9640 13563 158.75 203.5 180 5.6500000953674 15.675498962402 2256.7220206261 30333.087304019
7423	1251837 6105 9627 13563 158.5 203.5 181 169.95465087891 486.8759765625 70526.455413818 29694848.503084
7422	1257942 6127 9627 13563 158.5 203.5 181 238.51580810547 486.85000610352 79823.114562988 36195296.624531
7454	1264069 5121 10116 13710 165.75 205.25 159 0.973 11.648172402475 505.51641950032 2934.440424251
7453	1269190 5045 10116 13710 165.75 205.25 159 -3.9971618652344 2.5 38.341367721558 256.15477896794
7452	1274235 5209 10095 13710 165.5 205.25 160 5.6500000953674 15.64999961853 2219.7735538483 31487.165304069
7451	1279444 5440 10074 13710 165.25 205.25 161 184.17810058594 733.82650756836 72132.719543457 36475283.374941
7450	1284884 5475 10074 13710 165.25 205.25 161 486.85000610352 486.85000610352 78382.850982666 38160691.479322
vector 7548  IntersectionExampleScenario.node[59].veinsmobility  posx  ETV
vector 7549  IntersectionExampleScenario.node[59].veinsmobility  posy  ETV
vector 7550  IntersectionExampleScenario.node[59].veinsmobility  speed  ETV
vector 7551  IntersectionExampleScenario.node[59].veinsmobility  acceleration  ETV
vector 7552  IntersectionExampleScenario.node[59].veinsmobility  co2emission  ETV
vector 7555  IntersectionExampleScenario.node[60].veinsmobility  posx  ETV
vector 7556  IntersectionExampleScenario.node[60].veinsmobility  posy  ETV
vector 7557  IntersectionExampleScenario.node[60].veinsmobility  speed  ETV
vector 7558  IntersectionExampleScenario.node[60].veinsmobility  acceleration  ETV
vector 7559  IntersectionExampleScenario.node[60].veinsmobility  co2emission  ETV
7461	1291151 5161 10463 14004 170 208.75 156 0.973 11.648172402475 496.73490700182 2685.218901311
7460	1296312 4820 10463 14004 170 208.75 156 -3.5821800231934 2.5 38.850629806519 246.69389866374
7459	1301132 5051 10442 14004 169.75 208.75 157 5.6500000953674 15.64999961853 2207.6418781281 31987.71155487
7458	1306183 5365 10423 14004 169.5 208.75 158 483.11929321289 785.82187652588 90391.550834656 53480071.138116
7457	1311548 5364 10423 14004 169.5 208.75 158 483.14999389648 733.2000579834 84683.984909058 46337513.175082
7475	1316912 5323 10824 14411 174.5 214.25 160 0.973 11.200708441096 454.78650599077 2190.3074413497
7474	1322235 4806 10824 14411 174.5 214.25 160 -3.1778335571289 2.5 35.455564498901 171.03101740571
7473	1327041 5259 10803 14411 174.25 214.25 161 5.6500000953674 15.02499961853 2219.631685257 31094.052777967
7472	1332300 5491 10782 14411 174 214.25 162 235.83654785156 785.82187652588 84224.071556091 48093965.194114
7471	1337791 5507 10782 14411 174 214.25 162 483.14999389648 483.14999389648 78270.29901123 37816294.489552
7440	1343298 6541 9848 14451 162.25 215 212 0.973 11.648172402475 582.50759477908 2944.3468612624
7439	1349839 5958 9848 14451 162.25 215 212 -7.1918835639954 4 38.171613693237 514.37894936172
7438	1355797 6281 9831 14451 162 215 213 0 15.64999961853 2182.9434281588 30903.24912104
7437	1362078 7254 9814 14451 161.75 215 214 483.14999389648 733.1785736084 111818.74261475 59500138.84411
7436	1369332 7236 9814 14451 161.75 215 214 184.17810058594 486.85000610352 89170.505737305 39147660.559164
7468	1376568 5811 10484 14464 170.25 215.25 181 0.973 11.648172402475 554.22231502183 2956.4115017291
7467	1382379 5593 10484 14464 170.25 215.25 181 -9.1567153930664 4 38.341367721558 515.59074995278
7466	1387972 5714 10463 14464 170 215.25 182 0 15.64999961853 2211.2412629128 31443.325861414
7465	1393686 6222 10442 14464 169.75 215.25 183 486.85000610352 486.85000610352 89093.551116943 43375195.905068
7464	1399908 6204 10442 14464 169.75 215.25 183 236.58178710938 785.82187652588 94802.592948914 53266598.854956
vector 7562  IntersectionExampleScenario.node[61].veinsmobility  posx  ETV
vector 7563  IntersectionExampleScenario.node[61].veinsmobility  posy  ETV
vector 7564  IntersectionExampleScenario.node[61].veinsmobility  speed  ETV
vector 7565  IntersectionExampleScenario.node[61].veinsmobility  acceleration  ETV
vector 7566  IntersectionExampleScenario.node[61].veinsmobility  co2emission  ETV
7510	1406508 5088 11813 14821 184.5 222.75 154 0.96333723109819 12.099024792222 504.50358273717 2905.2200946772
7509	1411596 4757 11813 14821 184.5 222.75 154 -3.3863906860352 2.5 40.208654403687 255.11559227802
7508	1416353 4979 11785 14821 184.25 222.75 155 5.6500000953674 16.27499961853 2213.2808465958 32664.460429439
7507	1421332 5293 11756 14821 184 222.75 156 483.14999389648 734.43801879883 83625.36656189 45772226.508759
7506	1426625 5275 11756 14821 184 222.75 156 184.17810058594 486.85186767578 62103.636322021 26473105.121736
7503	1431900 5404 11785 14925 184.25 224.75 163 0.973 11.200708441096 474.15464992028 2360.3789174587
7502	1437304 4885 11785 14925 184.25 224.75 163 -3.2816162109375 2.5 35.455564498901 212.29400860196
7501	1442189 5305 11756 14925 184 224.75 164 5.6500000953674 15.02499961853 2209.4984531403 30505.792811107
7500	1447494 5587 11729 14925 183.75 224.75 165 236.24322509766 486.85000610352 71484.248809814 31973964.779214
7499	1453081 5595 11729 14925 183.75 224.75 165 483.14999389648 785.82187652588 94273.767692566 55684778.070264
7524	1458676 4956 12324 15029 189.75 226.75 149 0.973 12.099024792222 489.73144628598 2775.1476361873
7523	1463632 4785 12324 15029 189.75 226.75 149 -3.2177124023438 2.5 41.227170944214 213.36363452123
7522	1468417 4858 12301 15029 189.5 226.75 150 5.6500000953674 16.27499961853 2221.5683193207 33701.35644568
7521	1473275 5136 12277 15029 189.25 226.75 151 483.14999389648 483.14999389648 72955.649078369 35248521.406928
7520	1478411 5108 12277 15029 189.25 226.75 151 184.17810058594 734.16021728516 67642.4349823 34326744.594241
7517	1483519 5505 11992 15068 186.25 227.5 166 0.973 11.200708441096 492.19563637092 2435.0584341188
7516	1489024 4999 11992 15068 186.25 227.5 166 -4.5 2.5 36.474081039429 225.74726651505
7515	1494023 5407 11967 15068 186 227.5 167 5.6500000953674 15.02499961853 2277.9808855057 31860.145531047
7514	1499430 5701 11942 15068 185.75 227.5 168 237.19732666016 486.85000610352 73154.763366699 32848313.927939
7513	1505131 5702 11942 15068 185.75 227.5 168 483.12048339844 803.92188262939 97251.822624207 58387619.303413
7489	1510833 6444 11216 15199 179 230.5 207 0.973 11.36141391502 564.01940770487 2776.8702720374
7488	1517277 5921 11216 15199 179 230.5 207 -6.771110534668 4 36.98334312439 450.59377556158
7487	1523198 6235 11189 15199 178.75 230.5 208 0 15.25 2175.7518162727 29985.055771734
7486	1529433 7079 11164 15199 178.5 230.5 209 184.17810058594 483.36395263672 86388.668273926 37660644.334503
7485	1536512 7039 11164 15199 178.5 230.5 209 486.85000610352 732.63011169434 110075.49963379 59003472.588167
7482	1543551 6512 11164 15199 178.5 230.5 209 0.973 11.450879080643 573.29078415448 2837.6814364012
7481	1550063 5921 11164 15199 178.5 230.5 209 -7.00679063797 4 37.15309715271 467.70134331027
7480	1555984 6350 11141 15199 178.25 230.5 210 0 15.375 2235.9853316545 31231.028313581
7479	1562334 7162 11118 15199 178 230.5 211 236.75714111328 792.02188110352 109308.12657166 60992246.7807
7478	1569496 7173 11118 15199 178 230.5 211 483.14999389648 483.14999389648 101944.64871216 49254556.403058
vector 7569  IntersectionExampleScenario.node[62].veinsmobility  posx  ETV
vector 7570  IntersectionExampleScenario.node[62].veinsmobility  posy  ETV
vector 7571  IntersectionExampleScenario.node[62].veinsmobility  speed  ETV
vector 7572  IntersectionExampleScenario.node[62].veinsmobility  acceleration  ETV
vector 7573  IntersectionExampleScenario.node[62].veinsmobility  co2emission  ETV
7496	1577065 6965 11243 15253 179.25 232.75 215 0.973 11.36141391502 593.97299977331 2845.7212807173
7495	1584030 6509 11243 15253 179.25 232.75 215 -4.5 2.5 38.511121749878 452.13577773832
7494	1590539 6891 11216 15253 179 232.75 216 0 15.319514274597 2285.5948526105 31533.306133511
7493	1597430 7337 11189 15253 178.75 232.75 217 159.76721191406 483.14999389648 87529.780059814 37705654.111106
7492	1604767 7348 11189 15253 178.75 232.75 217 486.85000610352 733.99192810059 113869.77700806 60791139.249753
vector 7576  IntersectionExampleScenario.node[63].veinsmobility  posx  ETV
vector 7577  IntersectionExampleScenario.node[63].veinsmobility  posy  ETV
vector 7578  IntersectionExampleScenario.node[63].veinsmobility  speed  ETV
vector 7579  IntersectionExampleScenario.node[63].veinsmobility  acceleration  ETV
vector 7580  IntersectionExampleScenario.node[63].veinsmobility  co2emission  ETV
vector 7583  IntersectionExampleScenario.node[64].veinsmobility  posx  ETV
vector 7584  IntersectionExampleScenario.node[64].veinsmobility  posy  ETV
vector 7585  IntersectionExampleScenario.node[64].veinsmobility  speed  ETV
vector 7586  IntersectionExampleScenario.node[64].veinsmobility  acceleration  ETV
vector 7587  IntersectionExampleScenario.node[64].veinsmobility  co2emission  ETV
vector 7590  IntersectionExampleScenario.node[65].veinsmobility  posx  ETV
vector 7591  IntersectionExampleScenario.node[65].veinsmobility  posy  ETV
vector 7592  IntersectionExampleScenario.node[65].veinsmobility  speed  ETV
vector 7593  IntersectionExampleScenario.node[65].veinsmobility  acceleration  ETV
vector 7594  IntersectionExampleScenario.node[65].veinsmobility  co2emission  ETV
vector 7597  IntersectionExampleScenario.node[66].veinsmobility  posx  ETV
vector 7598  IntersectionExampleScenario.node[66].veinsmobility  posy  ETV
vector 7599  IntersectionExampleScenario.node[66].veinsmobility  speed  ETV
vector 7600  IntersectionExampleScenario.node[66].veinsmobility  acceleration  ETV
vector 7601  IntersectionExampleScenario.node[66].veinsmobility  co2emission  ETV
vector 7604  IntersectionExampleScenario.node[67].veinsmobility  posx  ETV
vector 7605  IntersectionExampleScenario.node[67].veinsmobility  posy  ETV
vector 7606  IntersectionExampleScenario.node[67].veinsmobility  speed  ETV
vector 7607  IntersectionExampleScenario.node[67].veinsmobility  acceleration  ETV
vector 7608  IntersectionExampleScenario.node[67].veinsmobility  co2emission  ETV
vector 7611  IntersectionExampleScenario.node[68].veinsmobility  posx  ETV
vector 7612  IntersectionExampleScenario.node[68].veinsmobility  posy  ETV
vector 7613  IntersectionExampleScenario.node[68].veinsmobility  speed  ETV
vector 7618  IntersectionExampleScenario.node[69].veinsmobility  posx  ETV
vector 7619  IntersectionExampleScenario.node[69].veinsmobility  posy  ETV
vector 7614  IntersectionExampleScenario.node[68].veinsmobility  acceleration  ETV
vector 7615  IntersectionExampleScenario.node[68].veinsmobility  co2emission  ETV
vector 7620  IntersectionExampleScenario.node[69].veinsmobility  speed  ETV
vector 7621  IntersectionExampleScenario.node[69].veinsmobility  acceleration  ETV
vector 7622  IntersectionExampleScenario.node[69].veinsmobility  co2emission  ETV
7531	1614887 6434 12535 15956 192 244.5 211 0.973 12.26218747632 605.87060497212 3363.1520136966
7530	1621321 6256 12535 15956 192 244.5 211 -7.3707284927368 4 41.227170944214 525.44142506884
7529	1627577 6212 12510 15956 191.75 244.5 212 0 16.5 2237.3493521214 32849.897979487
7528	1633789 7164 12485 15956 191.5 244.5 213 238.96862792969 483.14999389648 95209.856872559 43528081.786256
7527	1640953 7216 12485 15956 191.5 244.5 213 167.29217529297 483.36395263672 87402.800323486 38079749.198569
7545	1648169 5681 13395 16013 201.5 245.25 176 0.973 11.648172402475 549.40827313783 2937.9174562191
7544	1653850 5284 13395 16013 201.5 245.25 176 -7.7750473022461 4 38.511121749878 480.0267975717
7543	1659134 5632 13374 16013 201.25 245.25 177 0 15.64999961853 2214.2518191338 31459.954721098
7542	1664766 6051 13353 16013 201 245.25 178 486.85000610352 486.85000610352 86659.301086426 42190081.262853
7541	1670817 6036 13353 16013 201 245.25 178 236.02325439453 785.82187652588 92292.869026184 52010306.587916
7538	1676853 6389 12935 16108 196.25 246.5 202 0.973 11.54047740176 560.3468365744 2803.8594673613
7537	1683242 6364 12935 16108 196.25 246.5 202 -3.80872797966 2.5000004768372 37.32285118103 356.92205281782
7536	1689606 6751 12910 16108 196 246.5 203 0 15.5 2266.4250827543 30870.569794569
7535	1696357 6936 12885 16108 195.75 246.5 204 483.14999389648 483.14999389648 98562.598754883 47620518.986843
7534	1703293 6903 12885 16108 195.75 246.5 204 171.37420654297 733.22123718262 90983.495605469 45074532.99893
7552	1710196 5188 13860 16127 207 246.75 160 0.973 11.90022389248 539.06529579567 3161.3946089406
7551	1715384 5127 13860 16127 207 246.75 160 -3.3777770996094 2.5 40.378400802612 319.18387168914
7550	1720511 5209 13838 16127 206.75 246.75 161 5.6500000953674 16 2202.2624254227 31520.729291353
7549	1725720 5499 13815 16127 206.5 246.75 162 238.74108886719 486.85000610352 70839.527801514 31904722.611094
7548	1731219 5500 13815 16127 206.5 246.75 162 483.14999389648 785.82187652588 92465.567359924 54533970.229925
vector 7625  IntersectionExampleScenario.node[70].veinsmobility  posx  ETV
vector 7626  IntersectionExampleScenario.node[70].veinsmobility  posy  ETV
vector 7627  IntersectionExampleScenario.node[70].veinsmobility  speed  ETV
vector 7628  IntersectionExampleScenario.node[70].veinsmobility  acceleration  ETV
vector 7629  IntersectionExampleScenario.node[70].veinsmobility  co2emission  ETV
vector 7632  IntersectionExampleScenario.node[71].veinsmobility  posx  ETV
vector 7633  IntersectionExampleScenario.node[71].veinsmobility  posy  ETV
7559	1737267 6382 14004 17106 208.75 260 206 0.973 11.90022389248 590.74597800749 3116.4349798201
7558	1743649 5799 14004 17106 208.75 260 206 -6.9388580322266 4 39.869146347046 486.92859168984
7557	1749448 6187 13983 17106 208.5 260 207 0 16 2219.9751734734 32151.358126084
7556	1755635 7046 13962 17106 208.25 260 208 184.17810058594 735.07762145996 94550.428497314 47109615.073309
7555	1762681 7072 13962 17106 208.25 260 208 486.85000610352 486.85000610352 101264.80126953 49300769.116142
vector 7634  IntersectionExampleScenario.node[71].veinsmobility  speed  ETV
vector 7635  IntersectionExampleScenario.node[71].veinsmobility  acceleration  ETV
vector 7636  IntersectionExampleScenario.node[71].veinsmobility  co2emission  ETV
vector 7639  IntersectionExampleScenario.node[72].veinsmobility  posx  ETV
vector 7640  IntersectionExampleScenario.node[72].veinsmobility  posy  ETV
vector 7641  IntersectionExampleScenario.node[72].veinsmobility  speed  ETV
vector 7642  IntersectionExampleScenario.node[72].veinsmobility  acceleration  ETV
vector 7643  IntersectionExampleScenario.node[72].veinsmobility  co2emission  ETV
vector 7646  IntersectionExampleScenario.node[73].veinsmobility  posx  ETV
vector 7647  IntersectionExampleScenario.node[73].veinsmobility  posy  ETV
vector 7653  IntersectionExampleScenario.node[74].veinsmobility  posx  ETV
vector 7654  IntersectionExampleScenario.node[74].veinsmobility  posy  ETV
vector 7648  IntersectionExampleScenario.node[73].veinsmobility  speed  ETV
vector 7649  IntersectionExampleScenario.node[73].veinsmobility  acceleration  ETV
vector 7650  IntersectionExampleScenario.node[73].veinsmobility  co2emission  ETV
vector 7655  IntersectionExampleScenario.node[74].veinsmobility  speed  ETV
vector 7656  IntersectionExampleScenario.node[74].veinsmobility  acceleration  ETV
vector 7657  IntersectionExampleScenario.node[74].veinsmobility  co2emission  ETV
vector 7660  IntersectionExampleScenario.node[75].veinsmobility  posx  ETV
vector 7661  IntersectionExampleScenario.node[75].veinsmobility  posy  ETV
vector 7662  IntersectionExampleScenario.node[75].veinsmobility  speed  ETV
vector 7663  IntersectionExampleScenario.node[75].veinsmobility  acceleration  ETV
vector 7664  IntersectionExampleScenario.node[75].veinsmobility  co2emission  ETV
vector 7667  IntersectionExampleScenario.node[76].veinsmobility  posx  ETV
vector 7668  IntersectionExampleScenario.node[76].veinsmobility  posy  ETV
vector 7669  IntersectionExampleScenario.node[76].veinsmobility  speed  ETV
vector 7670  IntersectionExampleScenario.node[76].veinsmobility  acceleration  ETV
vector 7671  IntersectionExampleScenario.node[76].veinsmobility  co2emission  ETV
vector 7674  IntersectionExampleScenario.node[77].veinsmobility  posx  ETV
vector 7675  IntersectionExampleScenario.node[77].veinsmobility  posy  ETV
vector 7676  IntersectionExampleScenario.node[77].veinsmobility  speed  ETV
vector 7677  IntersectionExampleScenario.node[77].veinsmobility  acceleration  ETV
vector 7678  IntersectionExampleScenario.node[77].veinsmobility  co2emission  ETV
vector 7681  IntersectionExampleScenario.node[78].veinsmobility  posx  ETV
vector 7682  IntersectionExampleScenario.node[78].veinsmobility  posy  ETV
vector 7683  IntersectionExampleScenario.node[78].veinsmobility  speed  ETV
vector 7684  IntersectionExampleScenario.node[78].veinsmobility  acceleration  ETV
vector 7685  IntersectionExampleScenario.node[78].veinsmobility  co2emission  ETV
vector 7688  IntersectionExampleScenario.node[79].veinsmobility  posx  ETV
vector 7689  IntersectionExampleScenario.node[79].veinsmobility  posy  ETV
vector 7695  IntersectionExampleScenario.node[80].veinsmobility  posx  ETV
vector 7696  IntersectionExampleScenario.node[80].veinsmobility  posy  ETV
vector 7690  IntersectionExampleScenario.node[79].veinsmobility  speed  ETV
vector 7691  IntersectionExampleScenario.node[79].veinsmobility  acceleration  ETV
vector 7692  IntersectionExampleScenario.node[79].veinsmobility  co2emission  ETV
vector 7697  IntersectionExampleScenario.node[80].veinsmobility  speed  ETV
vector 7698  IntersectionExampleScenario.node[80].veinsmobility  acceleration  ETV
vector 7699  IntersectionExampleScenario.node[80].veinsmobility  co2emission  ETV
7580	1773561 5223 15285 18214 233.75 273.25 159 0.97223939240464 11.810082123732 507.90446564047 2852.4636117653
7579	1778784 4903 15285 18214 233.75 273.25 159 -3.3224430084229 2.5 38.680875778198 281.07744140111
7578	1783687 5103 15276 18214 233.5 273.25 160 5.6500000953674 15.875 2180.3963646889 31117.976693899
7577	1788790 5451 15267 18214 233.25 273.25 161 184.17810058594 483.26412963867 64007.387817383 27185758.505355
7576	1794241 5472 15267 18214 233.25 273.25 161 486.85000610352 732.1520690918 86462.362838745 47344178.003173
vector 7702  IntersectionExampleScenario.node[81].veinsmobility  posx  ETV
vector 7703  IntersectionExampleScenario.node[81].veinsmobility  posy  ETV
vector 7704  IntersectionExampleScenario.node[81].veinsmobility  speed  ETV
vector 7709  IntersectionExampleScenario.node[82].veinsmobility  posx  ETV
vector 7710  IntersectionExampleScenario.node[82].veinsmobility  posy  ETV
vector 7705  IntersectionExampleScenario.node[81].veinsmobility  acceleration  ETV
vector 7706  IntersectionExampleScenario.node[81].veinsmobility  co2emission  ETV
vector 7711  IntersectionExampleScenario.node[82].veinsmobility  speed  ETV
vector 7712  IntersectionExampleScenario.node[82].veinsmobility  acceleration  ETV
vector 7713  IntersectionExampleScenario.node[82].veinsmobility  co2emission  ETV
7566	1800505 6662 14717 18382 220.75 274.75 217 0.973 11.90022389248 602.62950310302 3110.8315223568
7565	1807167 5865 14717 18382 220.75 274.75 217 -34.263294219971 4 39.869146347046 1530.1045721023
7564	1813032 6283 14704 18382 220.5 274.75 218 0 16 2192.7548847198 32053.716321718
7563	1819315 7443 14691 18382 220.25 274.75 219 483.14999389648 735.15585327148 114143.28710938 60574311.334538
7562	1826758 7427 14691 18382 220.25 274.75 219 184.17810058594 486.85000610352 91726.9609375 40416701.625686
7594	1834185 5085 15483 18544 238.25 276.25 153 0.973 11.648172402475 472.36109078316 2472.4626324617
7593	1839270 4616 15483 18544 238.25 276.25 153 -3.134407043457 2.5 38.850629806519 190.00318840039
7592	1843886 5008 15470 18544 238 276.25 154 5.6500000953674 15.64999961853 2212.9728755951 32466.91806447
7591	1848894 5270 15457 18544 237.75 276.25 155 486.85000610352 486.85000610352 75461.750946045 36738553.908664
7590	1854164 5257 15457 18544 237.75 276.25 155 237.76147460938 785.82187652588 80917.276130676 46337449.03171
7573	1859421 5914 15253 18814 232.75 278.75 185 0.973 11.00486315618 511.174585385 2436.8945258174
7572	1865335 5875 15253 18814 232.75 278.75 185 -2.089656829834 2.5 34.77654838562 246.87754756149
7571	1871210 6091 15246 18814 232.5 278.75 186 4.0281329154968 14.75 2216.2590179443 28453.021657176
7570	1877301 6352 15239 18814 232.25 278.75 187 483.14999389648 735.27410888672 99399.81628418 53920461.695572
7569	1883653 6328 15239 18814 232.25 278.75 187 184.17810058594 486.85000610352 75414.237365723 32289295.885982
7587	1889981 5834 15325 18895 234.75 279.5 180 0.973 11.54047740176 573.99538053414 3005.9404864819
7586	1895815 5559 15325 18895 234.75 279.5 180 -4.5 2.5 38.850629806519 394.03479140542
7585	1901374 5926 15314 18895 234.5 279.5 181 3.9412026405334 15.5 2294.8417329788 31410.686107698
7584	1907300 6189 15303 18895 234.25 279.5 182 483.14999389648 483.14999389648 87933.29888916 42484972.821595
7583	1913489 6125 15303 18895 234.25 279.5 182 166.078125 734.57984924316 79550.887176514 39359889.37985
7622	1919614 5119 15705 18949 241.5 280 155 0.973 11.648172402475 503.2120748776 2849.9126626696
7621	1924733 4722 15705 18949 241.5 280 155 -4.5 2.5 38.341367721558 268.02167416338
7620	1929455 5021 15684 18949 241.25 280 156 5.6500000953674 15.64999961853 2172.2946205139 31163.894206574
7619	1934476 5335 15663 18949 241 280 157 237.77825927734 486.85000610352 68087.564910889 30469204.817739
7618	1939811 5331 15663 18949 241 280 157 483.14999389648 777.92579650879 89301.243354797 52451543.245177
vector 7716  IntersectionExampleScenario.node[83].veinsmobility  posx  ETV
vector 7717  IntersectionExampleScenario.node[83].veinsmobility  posy  ETV
vector 7718  IntersectionExampleScenario.node[83].veinsmobility  speed  ETV
vector 7719  IntersectionExampleScenario.node[83].veinsmobility  acceleration  ETV
vector 7720  IntersectionExampleScenario.node[83].veinsmobility  co2emission  ETV
7615	1945538 5563 15663 19255 241 282.75 168 0.973 11.254682320102 493.62652911989 2462.2650105606
7614	1951101 5351 15663 19255 241 282.75 168 -4.0074691772461 2.5 35.795072555542 213.74301600614
7613	1956452 5519 15644 19255 240.75 282.75 169 5.0568885803223 15.100633621216 2272.4817657471 31517.218013398
7612	1961971 5781 15625 19255 240.5 282.75 170 486.85000610352 486.85000610352 82764.501037598 40293897.835309
7611	1967752 5751 15625 19255 240.5 282.75 170 237.078125 800.04531860352 90876.611297607 53463532.595189
vector 7723  IntersectionExampleScenario.node[84].veinsmobility  posx  ETV
vector 7724  IntersectionExampleScenario.node[84].veinsmobility  posy  ETV
vector 7725  IntersectionExampleScenario.node[84].veinsmobility  speed  ETV
vector 7730  IntersectionExampleScenario.node[85].veinsmobility  posx  ETV
vector 7731  IntersectionExampleScenario.node[85].veinsmobility  posy  ETV
vector 7726  IntersectionExampleScenario.node[84].veinsmobility  acceleration  ETV
vector 7727  IntersectionExampleScenario.node[84].veinsmobility  co2emission  ETV
vector 7732  IntersectionExampleScenario.node[85].veinsmobility  speed  ETV
vector 7733  IntersectionExampleScenario.node[85].veinsmobility  acceleration  ETV
vector 7734  IntersectionExampleScenario.node[85].veinsmobility  co2emission  ETV
7601	1974295 6330 15526 20102 239 290 205 0.973 11.90022389248 591.14133413386 3139.0105555103
7600	1980625 5870 15526 20102 239 290 205 -9.0313835144043 4 39.869146347046 519.53701716637
7599	1986495 6121 15511 20102 238.75 290 206 0 16 2205.586180687 31852.559968517
7598	1992616 7029 15496 20102 238.5 290 207 483.14999389648 785.82187652588 114751.3045578 65572663.818689
7597	1999645 7031 15496 20102 238.5 290 207 483.14999389648 734.16282653809 108284.08418274 57697123.552194
7608	2006676 6315 15591 20129 240 290.25 202 0.97223939240464 11.648172402475 576.39992201569 2977.2713057884
7607	2012991 5961 15591 20129 240 290.25 202 -6.907163143158 4 38.680875778198 474.78108228247
7606	2018952 6152 15573 20129 239.75 290.25 203 0 15.64999961853 2217.3036814928 31599.43103697
7605	2025104 6903 15556 20129 239.5 290.25 204 184.17810058594 734.53523254395 92669.246765137 46265817.542015
7604	2032007 6936 15556 20129 239.5 290.25 204 486.85000610352 486.85000610352 99317.401245117 48352677.40237
vector 7737  IntersectionExampleScenario.node[86].veinsmobility  posx  ETV
vector 7738  IntersectionExampleScenario.node[86].veinsmobility  posy  ETV
vector 7739  IntersectionExampleScenario.node[86].veinsmobility  speed  ETV
vector 7744  IntersectionExampleScenario.node[87].veinsmobility  posx  ETV
vector 7745  IntersectionExampleScenario.node[87].veinsmobility  posy  ETV
vector 7740  IntersectionExampleScenario.node[86].veinsmobility  acceleration  ETV
vector 7741  IntersectionExampleScenario.node[86].veinsmobility  co2emission  ETV
vector 7746  IntersectionExampleScenario.node[87].veinsmobility  speed  ETV
vector 7747  IntersectionExampleScenario.node[87].veinsmobility  acceleration  ETV
vector 7748  IntersectionExampleScenario.node[87].veinsmobility  co2emission  ETV
7629	2039735 5198 17089 20933 259.75 298.75 157 0.973 11.648172402475 491.52726649725 2636.9338880946
7628	2044933 4727 17089 20933 259.75 298.75 157 -3.3749504089355 2.5 38.511121749878 234.68495490327
7627	2049660 5085 17072 20933 259.5 298.75 158 5.6500000953674 15.64999961853 2208.4046278 31807.746712363
7626	2054745 5388 17055 20933 259.25 298.75 159 184.17810058594 486.85000610352 63312.023651123 26984298.110733
7625	2060133 5403 17055 20933 259.25 298.75 159 236.83752441406 486.85000610352 69019.078063965 30914108.780926
7657	2065536 5143 17349 21210 263.25 301.75 155 0.973 11.648172402475 469.58057745547 2455.5999638002
7656	2070679 4807 17349 21210 263.25 301.75 155 -3.1870803833008 2.5 38.001859664917 189.58775871629
7655	2075486 5058 17328 21210 263 301.75 156 5.6500000953674 15.64999961853 2219.450006485 32203.741730044
7654	2080544 5326 17307 21210 262.75 301.75 157 236.16278076172 785.82187652588 81782.554969788 46768732.120331
7653	2085870 5339 17307 21210 262.75 301.75 157 483.14999389648 483.14999389648 75854.549041748 36649124.906541
vector 7751  IntersectionExampleScenario.node[88].veinsmobility  posx  ETV
vector 7752  IntersectionExampleScenario.node[88].veinsmobility  posy  ETV
vector 7753  IntersectionExampleScenario.node[88].veinsmobility  speed  ETV
vector 7754  IntersectionExampleScenario.node[88].veinsmobility  acceleration  ETV
vector 7755  IntersectionExampleScenario.node[88].veinsmobility  co2emission  ETV
vector 7758  IntersectionExampleScenario.node[89].veinsmobility  posx  ETV
vector 7759  IntersectionExampleScenario.node[89].veinsmobility  posy  ETV
vector 7760  IntersectionExampleScenario.node[89].veinsmobility  speed  ETV
vector 7761  IntersectionExampleScenario.node[89].veinsmobility  acceleration  ETV
vector 7762  IntersectionExampleScenario.node[89].veinsmobility  co2emission  ETV
7643	2092001 5701 17200 21568 261.25 305.5 178 0.96997852711604 12.44402232946 581.72819404839 3198.1759271197
7642	2097702 5396 17200 21568 261.25 305.5 178 -4.5 2.5 42.585195541382 503.1663224265
7641	2103098 5681 17181 21568 261 305.5 179 0 16.75 2315.2440719604 34287.781969215
7640	2108779 6120 17162 21568 260.75 305.5 180 483.14999389648 483.14999389648 86966.998901367 42018104.988391
7639	2114899 6078 17162 21568 260.75 305.5 180 161.1796875 735.10926818848 79067.172637939 39271948.019237
7636	2120977 5844 17144 21593 260.5 305.75 182 0.973 11.36141391502 534.46567797725 2733.2601740991
7635	2126821 5484 17144 21593 260.5 305.75 182 -7.5492105484009 4 35.964826583862 470.2091144509
7634	2132305 5747 17125 21593 260.25 305.75 183 0 15.25 2176.5375258923 29657.885744963
7633	2138052 6183 17106 21593 260 305.75 184 236.85040283203 483.14999389648 80408.933044434 36139458.525553
7632	2144235 6226 17106 21593 260 305.75 184 184.17810058594 483.36395263672 74491.935913086 32020105.238683
vector 7765  IntersectionExampleScenario.node[90].veinsmobility  posx  ETV
vector 7766  IntersectionExampleScenario.node[90].veinsmobility  posy  ETV
vector 7767  IntersectionExampleScenario.node[90].veinsmobility  speed  ETV
vector 7768  IntersectionExampleScenario.node[90].veinsmobility  acceleration  ETV
vector 7769  IntersectionExampleScenario.node[90].veinsmobility  co2emission  ETV
7650	2150857 6007 17328 21913 263 309 185 0.973 11.00486315618 538.26231735539 2629.5983552768
7649	2156864 5646 17328 21913 263 309 185 -4.3381805419922 2.5 36.134572982788 332.53507818375
7648	2162510 6060 17307 21913 262.75 309 186 3.6895697116852 14.91993522644 2325.9873616695 31244.548884502
7647	2168570 6341 17288 21913 262.5 309 187 483.14999389648 732.15547180176 98989.719467163 53436011.220415
7646	2174911 6333 17288 21913 262.5 309 187 153.44293212891 486.85000610352 73160.56463623 30996931.427679
7685	2181244 5293 17846 22013 269.75 310.25 163 0.973 11.54047740176 537.03402803326 3031.1408900927
7684	2186537 4972 17846 22013 269.75 310.25 163 -3.8921279907227 2.5 38.341367721558 298.713232443
7683	2191509 5346 17823 22013 269.5 310.25 164 5.6500000953674 15.5 2217.107878685 30900.40091435
7682	2196855 5611 17800 22013 269.25 310.25 165 483.14999389648 483.14999389648 79719.74899292 38516596.239358
7681	2202466 5578 17800 22013 269.25 310.25 165 184.17810058594 733.53833007812 73768.623336792 37141129.073619
vector 7772  IntersectionExampleScenario.node[91].veinsmobility  posx  ETV
vector 7773  IntersectionExampleScenario.node[91].veinsmobility  posy  ETV
vector 7774  IntersectionExampleScenario.node[91].veinsmobility  speed  ETV
vector 7775  IntersectionExampleScenario.node[91].veinsmobility  acceleration  ETV
vector 7776  IntersectionExampleScenario.node[91].veinsmobility  co2emission  ETV
vector 7779  IntersectionExampleScenario.node[92].veinsmobility  posx  ETV
vector 7780  IntersectionExampleScenario.node[92].veinsmobility  posy  ETV
vector 7781  IntersectionExampleScenario.node[92].veinsmobility  speed  ETV
vector 7782  IntersectionExampleScenario.node[92].veinsmobility  acceleration  ETV
vector 7783  IntersectionExampleScenario.node[92].veinsmobility  co2emission  ETV
7692	2208836 5537 17944 22184 270.75 312.5 168 0.973 11.648172402475 567.58536045864 3064.8210767294
7691	2214373 5275 17944 22184 270.75 312.5 168 -4.5 2.5 41.057416915894 340.34566009284
7690	2219648 5468 17917 22184 270.5 312.5 169 5.6500000953674 15.939305305481 2307.2173042297 32794.425198931
7689	2225116 5768 17892 22184 270.25 312.5 170 483.14999389648 734.94087219238 90356.831695557 49001665.426287
7688	2230884 5736 17892 22184 270.25 312.5 170 162.00311279297 486.85000610352 66401.840484619 28036438.658116
7664	2236620 6660 17531 22679 265.75 319.75 217 0.973 12.018956456326 638.20630319634 3431.0037081599
7663	2243280 5813 17531 22679 265.75 319.75 217 -30.586181640625 4 41.057416915894 1364.5805877753
7662	2249093 6332 17512 22679 265.5 319.75 218 0 16.164354324341 2265.9210453033 33654.921867855
7661	2255425 7439 17493 22679 265.25 319.75 219 483.14999389648 801.41563415527 121854.90802002 70059529.283929
7660	2262864 7443 17493 22679 265.25 319.75 219 483.14999389648 733.81205749512 113918.1557312 60309698.914037
vector 7786  IntersectionExampleScenario.node[93].veinsmobility  posx  ETV
vector 7787  IntersectionExampleScenario.node[93].veinsmobility  posy  ETV
vector 7788  IntersectionExampleScenario.node[93].veinsmobility  speed  ETV
vector 7789  IntersectionExampleScenario.node[93].veinsmobility  acceleration  ETV
vector 7790  IntersectionExampleScenario.node[93].veinsmobility  co2emission  ETV
vector 7793  IntersectionExampleScenario.node[94].veinsmobility  posx  ETV
vector 7794  IntersectionExampleScenario.node[94].veinsmobility  posy  ETV
vector 7795  IntersectionExampleScenario.node[94].veinsmobility  speed  ETV
vector 7796  IntersectionExampleScenario.node[94].veinsmobility  acceleration  ETV
vector 7797  IntersectionExampleScenario.node[94].veinsmobility  co2emission  ETV
7671	2271099 6839 17676 22935 267.75 323.25 223 0.973 11.36141391502 581.96501219063 2801.6558161538
7670	2277938 6227 17676 22935 267.75 323.25 223 -8.487024307251 4 37.15309715271 495.2038807551
7669	2284165 6566 17657 22935 267.5 323.25 224 0 15.25 2174.2661561966 30066.938700887
7668	2290731 7628 17638 22935 267.25 323.25 225 184.17810058594 483.24322509766 93955.020690918 41235309.31242
7667	2298359 7646 17638 22935 267.25 323.25 225 486.85000610352 731.89202880859 117792.06617737 62708814.082374
vector 7800  IntersectionExampleScenario.node[95].veinsmobility  posx  ETV
[...]
10551	14807175 6098 119789 122643 1720 1761 165 237.47985839844 486.85000610352 71663.448944092 32110611.206946
vector 10677  IntersectionExampleScenario.node[506].veinsmobility  posx  ETV
vector 10678  IntersectionExampleScenario.node[506].veinsmobility  posy  ETV
10562	14813429 5341 120148 122751 1725 1762 149 0.973 11.990504229548 495.28969288378 2730.4448179234
10561	14818770 5189 120148 122751 1725 1762 149 -3.5623588562012 2.5 41.396924972534 215.71677775274
10560	14823959 5307 120129 122751 1724.75 1762 150 5.6500000953674 16.236574172974 2212.8444375992 33433.824299837
10559	14829266 5542 120110 122751 1724.5 1762 151 184.17810058594 731.96798706055 67379.956604004 34059456.060484
10558	14834808 5586 120110 122751 1724.5 1762 151 486.85000610352 486.85000610352 73514.350921631 35790462.194892
vector 10679  IntersectionExampleScenario.node[506].veinsmobility  speed  ETV
vector 10680  IntersectionExampleScenario.node[506].veinsmobility  acceleration  ETV
vector 10681  IntersectionExampleScenario.node[506].veinsmobility  co2emission  ETV
10569	14840644 5716 120255 123144 1726.5 1765.75 158 0.973 11.648172402475 480.12260517156 2485.4970709313
10568	14846360 5357 120255 123144 1726.5 1765.75 158 -3.3395652770996 2.5 39.020376205444 188.60526979444
10567	14851717 5652 120236 123144 1726.25 1765.75 159 5.6500000953674 15.64999961853 2294.8695650101 33797.96829184
10566	14857369 5881 120217 123144 1726 1765.75 160 163.88433837891 732.39141845703 70084.380340576 35244957.974925
10565	14863250 5920 120217 123144 1726 1765.75 160 486.85000610352 486.85000610352 77896.000976562 37923668.550879
vector 10684  IntersectionExampleScenario.node[507].veinsmobility  posx  ETV
vector 10685  IntersectionExampleScenario.node[507].veinsmobility  posy  ETV
vector 10686  IntersectionExampleScenario.node[507].veinsmobility  speed  ETV
vector 10687  IntersectionExampleScenario.node[507].veinsmobility  acceleration  ETV
vector 10688  IntersectionExampleScenario.node[507].veinsmobility  co2emission  ETV
10576	14869576 5948 120743 124104 1733.75 1775 166 0.973 11.450879080643 517.77284233753 2723.9638366307
10575	14875524 5559 120743 124104 1733.75 1775 166 -3.5163040161133 2.5 36.813589096069 341.4209365471
10574	14881083 5986 120728 124104 1733.5 1775 167 3.9038696289062 15.375 2199.1204199791 30518.122431455
10573	14887069 6207 120713 124104 1733.25 1775 168 237.83062744141 486.85000610352 73255.893951416 32927413.867689
10572	14893276 6209 120713 124104 1733.25 1775 168 483.14999389648 785.82187652588 95670.137397766 56304089.858176
10548	14899485 7706 119701 124154 1718.75 1775.5 228 0.973 11.200708441096 586.08484322398 2728.8165525629
10547	14907191 7016 119701 124154 1718.75 1775.5 228 -35.881484985352 4 36.134572982788 1608.529120649
10546	14914207 7365 119682 124154 1718.5 1775.5 229 0 15.02499961853 2254.4055891037 31375.196779101
10545	14921572 8503 119663 124154 1718.25 1775.5 230 483.14999389648 733.58811950684 119854.63043213 63584744.395868
10544	14930075 8464 119663 124154 1718.25 1775.5 230 166.078125 486.85000610352 94910.976074219 41552562.977259
vector 10691  IntersectionExampleScenario.node[508].veinsmobility  posx  ETV
vector 10692  IntersectionExampleScenario.node[508].veinsmobility  posy  ETV
vector 10693  IntersectionExampleScenario.node[508].veinsmobility  speed  ETV
vector 10694  IntersectionExampleScenario.node[508].veinsmobility  acceleration  ETV
vector 10695  IntersectionExampleScenario.node[508].veinsmobility  co2emission  ETV
10583	14938945 6154 120807 124357 1734.75 1777.5 172 0.973 11.385953267212 534.2120979909 2767.1146388369
10582	14945099 5794 120807 124357 1734.75 1777.5 172 -4.5 2.5 36.813589096069 336.39649784605
10581	14950893 6208 120790 124357 1734.5 1777.5 173 5.6500000953674 15.284304618835 2271.5007815361 31203.963538594
10580	14957101 6435 120773 124357 1734.25 1777.5 174 486.85000610352 732.47169494629 93057.234344482 50730213.606559
10579	14963536 6429 120773 124357 1734.25 1777.5 174 486.83901977539 807.99687957764 100987.59584808 60757182.952911
10590	14969965 5813 120977 124507 1737.5 1779 167 0.973 11.648172402475 551.08018781314 3078.2170796561
10589	14975778 6108 120977 124507 1737.5 1779 167 -2.8407096862793 2.5 39.356420516968 296.30590157348
10588	14981886 6178 120960 124507 1737.25 1779 168 5.6500000953674 15.64999961853 2216.4439659119 30487.515500266
10587	14988064 6241 120943 124507 1737 1779 169 483.14999389648 735.1499786377 90297.455154419 49255672.522769
10586	14994305 6221 120943 124507 1737 1779 169 184.17810058594 486.85000610352 67690.306121826 28905374.711468
10597	15000526 5934 121032 124557 1738.25 1779.5 166 0.973 11.990504229548 543.9331784029 3022.6287303284
10596	15006460 5697 121032 124557 1738.25 1779.5 166 -4.5 2.5 40.038900375366 300.6308672315
10595	15012157 5943 121013 124557 1738 1779.5 167 5.6500000953674 16.125 2315.9172039032 33157.703476436
10594	15018100 6216 120994 124557 1737.75 1779.5 168 483.14999389648 483.14999389648 81169.198974609 39216897.989165
10593	15024316 6189 120994 124557 1737.75 1779.5 168 161.1796875 734.75361633301 73322.838851929 36618772.703117
vector 10698  IntersectionExampleScenario.node[509].veinsmobility  posx  ETV
vector 10699  IntersectionExampleScenario.node[509].veinsmobility  posy  ETV
vector 10700  IntersectionExampleScenario.node[509].veinsmobility  speed  ETV
vector 10701  IntersectionExampleScenario.node[509].veinsmobility  acceleration  ETV
vector 10702  IntersectionExampleScenario.node[509].veinsmobility  co2emission  ETV
vector 10705  IntersectionExampleScenario.node[510].veinsmobility  posx  ETV
vector 10706  IntersectionExampleScenario.node[510].veinsmobility  posy  ETV
10604	15031067 6141 121513 125465 1745.25 1789.75 179 0.973 12.099024792222 567.42707637606 3296.6715663879
10603	15037208 6046 121513 125465 1745.25 1789.75 179 -8.7545375823975 4 40.038900375366 531.92828644424
10602	15043254 6161 121496 125465 1745 1789.75 180 0 16.27499961853 2204.8698763847 31988.943928568
10601	15049415 6663 121479 125465 1744.75 1789.75 181 184.17810058594 731.70051574707 81609.203521729 40833522.954244
10600	15056078 6698 121479 125465 1744.75 1789.75 181 486.85000610352 486.85000610352 88119.851104736 42901150.048182
vector 10707  IntersectionExampleScenario.node[510].veinsmobility  speed  ETV
vector 10708  IntersectionExampleScenario.node[510].veinsmobility  acceleration  ETV
vector 10709  IntersectionExampleScenario.node[510].veinsmobility  co2emission  ETV
vector 10712  IntersectionExampleScenario.node[511].veinsmobility  posx  ETV
vector 10713  IntersectionExampleScenario.node[511].veinsmobility  posy  ETV
vector 10714  IntersectionExampleScenario.node[511].veinsmobility  speed  ETV
vector 10715  IntersectionExampleScenario.node[511].veinsmobility  acceleration  ETV
vector 10716  IntersectionExampleScenario.node[511].veinsmobility  co2emission  ETV
vector 10719  IntersectionExampleScenario.node[512].veinsmobility  posx  ETV
vector 10720  IntersectionExampleScenario.node[512].veinsmobility  posy  ETV
vector 10721  IntersectionExampleScenario.node[512].veinsmobility  speed  ETV
10618	15063667 5599 122024 125705 1753.5 1793.25 160 0.973 12.099024792222 564.37225975017 3649.1865747009
10617	15069266 5406 122024 125705 1753.5 1793.25 160 -3.6499710083008 2.5 40.038900375366 353.13338622294
10616	15074672 5660 122007 125705 1753.25 1793.25 161 5.6500000953674 16.27499961853 2213.1679134369 31595.12661426
10615	15080332 5964 121990 125705 1753 1793.25 162 184.17810058594 486.85000610352 64593.270996094 27509975.635939
10614	15086296 5990 121990 125705 1753 1793.25 162 235.46472167969 486.85000610352 70588.042816162 31719795.148503
vector 10722  IntersectionExampleScenario.node[512].veinsmobility  acceleration  ETV
vector 10723  IntersectionExampleScenario.node[512].veinsmobility  co2emission  ETV
vector 10726  IntersectionExampleScenario.node[513].veinsmobility  posx  ETV
vector 10727  IntersectionExampleScenario.node[513].veinsmobility  posy  ETV
vector 10728  IntersectionExampleScenario.node[513].veinsmobility  speed  ETV
vector 10729  IntersectionExampleScenario.node[513].veinsmobility  acceleration  ETV
vector 10730  IntersectionExampleScenario.node[513].veinsmobility  co2emission  ETV
vector 10733  IntersectionExampleScenario.node[514].veinsmobility  posx  ETV
vector 10734  IntersectionExampleScenario.node[514].veinsmobility  posy  ETV
vector 10735  IntersectionExampleScenario.node[514].veinsmobility  speed  ETV
vector 10736  IntersectionExampleScenario.node[514].veinsmobility  acceleration  ETV
vector 10737  IntersectionExampleScenario.node[514].veinsmobility  co2emission  ETV
10646	15093269 5668 122446 126006 1759 1798.25 158 0.973 11.648172402475 486.15821995189 2634.1014031894
10645	15098937 5553 122446 126006 1759 1798.25 158 -3.8742408752441 2.5 37.662351608276 234.81968218967
10644	15104490 5587 122422 126006 1758.75 1798.25 159 5.6500000953674 15.64999961853 2205.1978120804 31455.096845992
10643	15110077 5890 122398 126006 1758.5 1798.25 160 184.17810058594 487.02416992188 63689.704986572 27132942.712817
10642	15115967 5911 122398 126006 1758.5 1798.25 160 236.62799072266 486.85000610352 69389.352874756 31059894.013192
vector 10740  IntersectionExampleScenario.node[515].veinsmobility  posx  ETV
vector 10741  IntersectionExampleScenario.node[515].veinsmobility  posy  ETV
10674	15122034 5496 122643 126040 1761 1798.75 152 0.973 12.099024792222 511.45495105884 2938.8279188599
10673	15127530 4797 122643 126040 1761 1798.75 152 -3.5300941467285 2.5 41.396924972534 261.77575690681
10672	15132327 5364 122616 126040 1760.75 1798.75 153 5.6500000953674 16.27499961853 2211.960146904 33120.898315581
10671	15137691 5694 122588 126040 1760.5 1798.75 154 483.14999389648 785.82187652588 88114.721855164 52152744.675182
10670	15143385 5677 122588 126040 1760.5 1798.75 154 483.14999389648 734.02450561523 82493.788208008 45114496.686756
vector 10742  IntersectionExampleScenario.node[515].veinsmobility  speed  ETV
vector 10743  IntersectionExampleScenario.node[515].veinsmobility  acceleration  ETV
vector 10744  IntersectionExampleScenario.node[515].veinsmobility  co2emission  ETV
vector 10747  IntersectionExampleScenario.node[516].veinsmobility  posx  ETV
vector 10748  IntersectionExampleScenario.node[516].veinsmobility  posy  ETV
vector 10749  IntersectionExampleScenario.node[516].veinsmobility  speed  ETV
10611	15149547 6652 121855 126138 1750.75 1800 198 0.973 11.648172402475 552.76294501655 2901.8942465654
10610	15156199 6080 121855 126138 1750.75 1800 198 -43.138442993164 4 38.511125564575 2188.3610561527
10609	15162279 6275 121840 126138 1750.5 1800 199 0 15.64999961853 1894.4258460999 27193.02139102
10608	15168554 7400 121825 126138 1750.25 1800 200 486.85000610352 486.85000610352 97370.001220703 47404585.688598
10607	15175954 7388 121825 126138 1750.25 1800 200 316.23162841797 785.82187652588 107904.1362381 61039051.07858
10625	15183342 5931 122249 126138 1756.75 1800 174 0.973 11.450879080643 537.90329227851 2854.4647682706
10624	15189273 5779 122249 126138 1756.75 1800 174 -4.5 2.5 39.699445724487 530.7143127569
10623	15195052 5809 122230 126138 1756.5 1800 175 0 15.79939365387 1815.7838387489 24417.455786823
10622	15200861 6502 122211 126138 1756.25 1800 176 483.14999389648 635.59976196289 88186.174819946 44446838.51367
10621	15207363 6490 122211 126138 1756.25 1800 176 184.17810058594 487.02020263672 68993.046081543 28998586.347509
10632	15213853 5914 122310 126138 1757.5 1800 171 0.973 11.450879080643 501.41080287847 2578.5705494444
10631	15219767 6105 122310 126138 1757.5 1800 171 -4.5 2.5 38.344511032104 394.89159057383
10630	15225872 6094 122289 126138 1757.25 1800 172 0 15.375 1748.7452663407 22228.192312773
10629	15231966 6387 122268 126138 1757 1800 173 483.14999389648 595.53060913086 85380.163208008 42250949.993178
10628	15238353 6375 122268 126138 1757 1800 173 161.1796875 486.85000610352 65062.235992432 26609623.51285
10639	15244728 5685 122398 126138 1758.5 1800 167 0.973 11.494330612431 508.04319817228 2756.4805247748
10638	15250413 5431 122398 126138 1758.5 1800 167 -7.3438858985901 4 38.850629806519 472.35305309018
10637	15255844 5551 122375 126138 1758.25 1800 168 0 15.435643196106 1771.6808782816 24726.065432174
10636	15261395 6251 122352 126138 1758 1800 169 483.14999389648 483.14999389648 81652.348968506 39450331.905767
10635	15267646 6226 122352 126138 1758 1800 169 214.94219970703 654.43981933594 73806.212341309 34489849.928226
10653	15273872 5540 122469 126138 1759.25 1800 164 0.97223939240464 11.648172402475 489.77746274687 2750.8103607373
10652	15279412 5782 122469 126138 1759.25 1800 164 -2.1208915710449 2.5 38.680959701538 304.75193830518
10651	15285194 5843 122446 126138 1759 1800 165 1.767107963562 15.64999961853 1796.7419883013 23201.033359315
10650	15291037 6125 122422 126138 1758.75 1800 166 339.85095214844 486.85000610352 77839.460723877 36735492.67339
10649	15297162 6135 122422 126138 1758.75 1800 166 483.14999389648 785.82187652588 95675.732276917 56790226.993825
10660	15303297 5747 122588 126138 1760.5 1800 159 0.973 11.648172402475 514.23979796472 2926.6220981428
10659	15309044 5309 122588 126138 1760.5 1800 159 -4.5 2.5 38.341367721558 256.12097174072
10658	15314353 5690 122563 126138 1760.25 1800 160 5.6500000953674 15.64999961853 2282.8422269821 33211.097649557
10657	15320043 5924 122538 126138 1760 1800 161 163.88433837891 729.16448974609 70304.983200073 35205883.510286
10656	15325967 5955 122538 126138 1760 1800 161 486.85000610352 486.85000610352 78382.850982666 38160691.479322
10667	15331922 5441 122643 126138 1761 1800 157 0.973 11.450879080643 473.09786758858 2603.5031354939
10666	15337363 5526 122643 126138 1761 1800 157 -4.5 2.5 36.661432266235 339.32899951032
10665	15342889 5542 122616 126138 1760.75 1800 158 4.0063605308533 15.375 1708.3714075089 21130.425352471
10664	15348431 5880 122588 126138 1760.5 1800 159 380.64227294922 486.85000610352 75769.324707031 36204322.182431
10663	15354311 5861 122588 126138 1760.5 1800 159 483.11923217773 805.05782318115 94733.539741516 58198761.521444
10681	15360172 5159 122808 126138 1762.5 1800 151 0.973 11.450879080643 478.50211579663 2687.4307288334
10680	15365331 4992 122808 126138 1762.5 1800 151 -4.5 2.5 39.706254959106 411.99470115986
10679	15370323 5331 122780 126138 1762.25 1800 152 0 15.584492683411 1581.4728114605 20256.815574532
10678	15375654 5653 122751 126138 1762 1800 153 483.14999389648 560.6057434082 74816.541320801 36624399.223853
10677	15381307 5652 122751 126138 1762 1800 153 168.39251708984 486.87609863281 57514.722290039 23286916.320313
10688	15386959 3916 123623 126138 1770.5 1800 119 0.973 11.200708441096 289.56488750668 1356.8687684296
10687	15390875 3524 123623 126138 1770.5 1800 119 -6.9984560012817 2.5 -22.60000038147 309.55024989786
10686	15394399 3991 123596 126138 1770.25 1800 120 0 15.02499961853 1146.9659695625 15892.422638761
10685	15398390 4451 123569 126138 1770 1800 121 184.17810058594 471.60000610352 44103.40725708 17329248.196011
10684	15402841 4475 123569 126138 1770 1800 121 486.85000610352 486.85000610352 58908.850738525 28679774.341602
10695	15407316 3133 124357 126138 1777.5 1800 91 0.973 11.881870328283 289.42941935766 1726.0507620617
10694	15410449 3238 124357 126138 1777.5 1800 91 -3.340503692627 2.5 5.3999996185303 219.00808984248
10693	15413687 3245 124331 126138 1777.25 1800 92 5.6500000953674 15.974564552307 1215.1047086716 17082.201341851
10692	15416932 3438 124304 126138 1777 1800 93 486.85000610352 494.16748046875 45302.271759033 22067811.703315
10691	15420370 3432 124304 126138 1777 1800 93 486.97817993164 785.82187652588 58959.727394104 38267587.288766
10702	15423802 2342 125008 126138 1784.25 1800 64 0.973 11.648172402475 232.77809962264 1411.2682116235
10701	15426144 2330 125008 126138 1784.25 1800 64 -0.45709991455078 2.5 38.303365707397 101.62496295202
10700	15428474 2385 124985 126138 1784 1800 65 5.6500000953674 15.64999961853 912.51505470276 13234.55514067
10699	15430859 2441 124962 126138 1783.75 1800 66 483.14999389648 483.14999389648 31887.899597168 15406638.495743
10698	15433300 2422 124962 126138 1783.75 1800 66 184.17810058594 407.19061279297 18853.348510742 5702637.6336735
10709	15435722 1444 125503 126138 1790.25 1800 40 0.973 12.099024792222 189.58693771484 1420.9352580084
10708	15437166 1339 125503 126138 1790.25 1800 40 -0.5 2.5 40.042387008667 107.04940419423
10707	15438505 1499 125484 126138 1790 1800 41 5.6500000953674 16.27499961853 559.45711898804 8054.5406604271
10706	15440004 1535 125465 126138 1789.75 1800 42 184.17810058594 318.84484863281 10171.787841797 2539784.4380184
10705	15441539 1553 125465 126138 1789.75 1800 42 486.85000610352 486.85000610352 20447.700256348 9954962.9946057
10716	15443092 1325 125571 126138 1791.25 1800 36 1.8312265664558 11.887290952506 182.03000342829 1328.6605326079
10715	15444417 1227 125571 126138 1791.25 1800 36 -0.11016464233398 2.5 40.890142440796 100.66305299817
10714	15445644 1361 125554 126138 1791 1800 37 5.6500000953674 15.982077598572 493.32262802124 6983.5761333548
10713	15447005 1391 125537 126138 1790.75 1800 38 162.00311279297 280.00714111328 8047.3618164062 1756817.1050706
10712	15448396 1405 125537 126138 1790.75 1800 38 486.85000610352 486.85000610352 18500.300231934 9006871.2808337
10723	15449801 994 125720 126138 1793.5 1800 27 1.8321577376031 11.200708441096 147.08049973075 1103.202249388
10722	15450795 860 125720 126138 1793.5 1800 27 -0.086727142333984 2.5 37.164079666138 93.767165379559
10721	15451655 1026 125705 126138 1793.25 1800 28 5.6500000953674 15.02499961853 344.91120529175 4527.9954647438
10720	15452681 1071 125689 126138 1793 1800 29 483.14999389648 483.14999389648 14011.349822998 6769583.581463
10719	15453752 1054 125689 126138 1793 1800 29 184.17810058594 265.42639160156 6317.0458374023 1395265.9174289
10730	15454806 506 125906 126138 1796.75 1800 14 0.973 7.5264140913944 59.389834989453 320.67610538488
10729	15455312 420 125906 126138 1796.75 1800 14 -1.6822624206543 2.5000019073486 18.017072677612 47.036612315966
10728	15455732 551 125891 126138 1796.5 1800 15 5.6500000953674 10.154268264771 118.23354053497 974.18730416843
10727	15456283 590 125876 126138 1796.25 1800 16 177.89636230469 204.31469726562 3022.2554931641 571998.77183395
10726	15456873 592 125876 126138 1796.25 1800 16 486.85000610352 486.85000610352 7789.6000976562 3792366.8550879
10737	15457465 403 125955 126138 1797.5 1800 11 5.2162187258585 9.442030466751 80.452460202964 608.047069496
10736	15457868 286 125955 126138 1797.5 1800 11 2.4999980926514 2.5 27.499998092651 68.74999046326
10735	15458154 439 125938 126138 1797.25 1800 12 5.6500000953674 12.52499961853 109.04999732971 1046.8511919308
10734	15458593 479 125921 126138 1797 1800 13 208.03881835938 231.38879394531 2827.0263671875 615521.70740236
10733	15459072 479 125921 126138 1797 1800 13 486.85000610352 486.85000610352 6329.0500793457 3081298.0697589
10744	15459551 148 126078 126138 1799.25 1800 4 5.2162187258585 6.4635356930995 23.356389703243 137.24455235531
10743	15459699 112 126078 126138 1799.25 1800 4 2.4999980926514 2.5 9.9999980926514 24.99999046326
10742	15459811 183 126059 126138 1799 1800 5 5.6500000953674 8.1499996185303 34.5 241.95624880791
10741	15459994 220 126040 126138 1798.75 1800 6 163.89868164062 170.17364501953 998.29821777344 166131.99005615
10740	15460214 221 126040 126138 1798.75 1800 6 486.85000610352 486.85000610352 2921.1000366211 1422137.570658
10749	15460435 35 126138 126138 1800 1800 1 5.6500000953674 5.6500000953674 5.6500000953674 31.922501077652
10748	15460470 73 126116 126138 1799.75 1800 2 151.86340332031 151.86340332031 303.72680664062 46124.986536056
10747	15460543 73 126116 126138 1799.75 1800 2 486.85000610352 486.85000610352 973.70001220703 474045.85688599
7131	15460616 594 0 126137 0 1800 31 0 23 393 5653
7132	15461210 605 0 126137 0 1800 31 0 128 2047 177867
