file 15167637 1591473041                                        
version 2
run nodebug-22-20200606-15:48:29-20656
attr configname nodebug
attr datetime 20200606-15:48:29
attr experiment nodebug
attr inifile omnetpp.ini
attr iterationvars ""
attr iterationvars2 $repetition=22
attr measurement ""
attr network "\"org.car2x.veins.modules.application.ExtTraCIScenarioManagerLaunchd.IntersectionExampleScenario\""
attr processid 20656
attr repetition 22
attr replication #22
attr resultdir results
attr runnumber 22
attr seedset 22
param **.coreDebug false
param **.debug false
param *.**.nic.mac1609_4.bitrate 18Mbps
param *.**.nic.mac1609_4.txPower 20mW
param *.**.nic.mac1609_4.useServiceChannel false
param *.**.nic.phy80211p.analogueModels "xmldoc(\"config.xml\")"
param *.**.nic.phy80211p.decider "xmldoc(\"config.xml\")"
param *.**.nic.phy80211p.sensitivity -89dBm
param *.**.nic.phy80211p.thermalNoise -110dBm
param *.**.nic.phy80211p.usePropagationDelay true
param *.**.nic.phy80211p.useThermalNoise true
param *.annotations.draw false
param *.connectionManager.alpha 2.0
param *.connectionManager.carrierFrequency "5.890e9 Hz"
param *.connectionManager.pMax 20mW
param *.connectionManager.sat -89dBm
param *.connectionManager.sendDirect true
param *.manager.autoShutdown true
param *.manager.host "\"localhost\""
param *.manager.launchConfig "xmldoc(\"paramics.launchd.xml\")"
param *.manager.margin 25
param *.manager.moduleDisplayString "\"\""
param *.manager.moduleName "\"node\""
param *.manager.moduleType "\"org.car2x.veins.nodes.Car\""
param *.manager.port 9999
param *.manager.updateInterval 250ms
param *.node[*0].veinsmobility.accidentCount 0
param *.node[*0].veinsmobility.accidentDuration 30s
param *.node[*0].veinsmobility.accidentStart 75s
param *.node[*].appl.LiderSelectZoneRadio 55.0
param *.node[*].appl.ShareDataZoneRadio 110.0
param *.node[*].appl.TiempoSemaforo 30.0
param *.node[*].appl.beaconInterval 1s
param *.node[*].appl.beaconPriority 3
param *.node[*].appl.dataOnSch false
param *.node[*].appl.dataPriority 2
param *.node[*].appl.debug false
param *.node[*].appl.headerLength "256 bit"
param *.node[*].appl.maxOffset 0.005s
param *.node[*].appl.sendBeacons false
param *.node[*].appl.sendData true
param *.node[*].applType "\"Dummy\""
param *.node[*].mobilityType "\"TraCIMobility\""
param *.node[*].mobilityType.debug true
param *.node[*].veinsmobility.x 0
param *.node[*].veinsmobility.y 0
param *.node[*].veinsmobility.z 1.895
param *.node[*].veinsmobilityType "\"org.car2x.veins.modules.mobility.traci.TraCIMobility\""
param *.node[*].veinsmobilityType.debug true
param *.playgroundSizeX 8500m
param *.playgroundSizeY 8500m
param *.playgroundSizeZ 50m
param *.world.use2D false
param *.world.useTorus false

vector 17852  IntersectionExampleScenario.manager  vehiclesinsim  ETV
attr type  int
vector 17853  IntersectionExampleScenario.manager  realtime  ETV
attr type  int
attr unit  s
vector 17856  IntersectionExampleScenario.node[0].veinsmobility  posx  ETV
vector 17857  IntersectionExampleScenario.node[0].veinsmobility  posy  ETV
vector 17858  IntersectionExampleScenario.node[0].veinsmobility  speed  ETV
vector 17859  IntersectionExampleScenario.node[0].veinsmobility  acceleration  ETV
vector 17860  IntersectionExampleScenario.node[0].veinsmobility  co2emission  ETV
vector 17863  IntersectionExampleScenario.node[1].veinsmobility  posx  ETV
vector 17864  IntersectionExampleScenario.node[1].veinsmobility  posy  ETV
vector 17865  IntersectionExampleScenario.node[1].veinsmobility  speed  ETV
vector 17866  IntersectionExampleScenario.node[1].veinsmobility  acceleration  ETV
vector 17867  IntersectionExampleScenario.node[1].veinsmobility  co2emission  ETV
vector 17870  IntersectionExampleScenario.node[2].veinsmobility  posx  ETV
vector 17871  IntersectionExampleScenario.node[2].veinsmobility  posy  ETV
vector 17872  IntersectionExampleScenario.node[2].veinsmobility  speed  ETV
vector 17873  IntersectionExampleScenario.node[2].veinsmobility  acceleration  ETV
vector 17874  IntersectionExampleScenario.node[2].veinsmobility  co2emission  ETV
vector 17877  IntersectionExampleScenario.node[3].veinsmobility  posx  ETV
vector 17878  IntersectionExampleScenario.node[3].veinsmobility  posy  ETV
vector 17879  IntersectionExampleScenario.node[3].veinsmobility  speed  ETV
vector 17880  IntersectionExampleScenario.node[3].veinsmobility  acceleration  ETV
vector 17881  IntersectionExampleScenario.node[3].veinsmobility  co2emission  ETV
vector 17884  IntersectionExampleScenario.node[4].veinsmobility  posx  ETV
vector 17885  IntersectionExampleScenario.node[4].veinsmobility  posy  ETV
vector 17891  IntersectionExampleScenario.node[5].veinsmobility  posx  ETV
vector 17892  IntersectionExampleScenario.node[5].veinsmobility  posy  ETV
vector 17886  IntersectionExampleScenario.node[4].veinsmobility  speed  ETV
vector 17887  IntersectionExampleScenario.node[4].veinsmobility  acceleration  ETV
vector 17888  IntersectionExampleScenario.node[4].veinsmobility  co2emission  ETV
vector 17893  IntersectionExampleScenario.node[5].veinsmobility  speed  ETV
vector 17894  IntersectionExampleScenario.node[5].veinsmobility  acceleration  ETV
vector 17895  IntersectionExampleScenario.node[5].veinsmobility  co2emission  ETV
vector 17898  IntersectionExampleScenario.node[6].veinsmobility  posx  ETV
vector 17899  IntersectionExampleScenario.node[6].veinsmobility  posy  ETV
vector 17905  IntersectionExampleScenario.node[7].veinsmobility  posx  ETV
vector 17906  IntersectionExampleScenario.node[7].veinsmobility  posy  ETV
vector 17900  IntersectionExampleScenario.node[6].veinsmobility  speed  ETV
vector 17907  IntersectionExampleScenario.node[7].veinsmobility  speed  ETV
vector 17901  IntersectionExampleScenario.node[6].veinsmobility  acceleration  ETV
vector 17902  IntersectionExampleScenario.node[6].veinsmobility  co2emission  ETV
vector 17908  IntersectionExampleScenario.node[7].veinsmobility  acceleration  ETV
vector 17909  IntersectionExampleScenario.node[7].veinsmobility  co2emission  ETV
vector 17912  IntersectionExampleScenario.node[8].veinsmobility  posx  ETV
vector 17913  IntersectionExampleScenario.node[8].veinsmobility  posy  ETV
vector 17919  IntersectionExampleScenario.node[9].veinsmobility  posx  ETV
vector 17920  IntersectionExampleScenario.node[9].veinsmobility  posy  ETV
vector 17914  IntersectionExampleScenario.node[8].veinsmobility  speed  ETV
vector 17921  IntersectionExampleScenario.node[9].veinsmobility  speed  ETV
vector 17915  IntersectionExampleScenario.node[8].veinsmobility  acceleration  ETV
vector 17916  IntersectionExampleScenario.node[8].veinsmobility  co2emission  ETV
vector 17922  IntersectionExampleScenario.node[9].veinsmobility  acceleration  ETV
vector 17923  IntersectionExampleScenario.node[9].veinsmobility  co2emission  ETV
vector 17926  IntersectionExampleScenario.node[10].veinsmobility  posx  ETV
vector 17927  IntersectionExampleScenario.node[10].veinsmobility  posy  ETV
vector 17928  IntersectionExampleScenario.node[10].veinsmobility  speed  ETV
vector 17929  IntersectionExampleScenario.node[10].veinsmobility  acceleration  ETV
vector 17930  IntersectionExampleScenario.node[10].veinsmobility  co2emission  ETV
vector 17933  IntersectionExampleScenario.node[11].veinsmobility  posx  ETV
vector 17934  IntersectionExampleScenario.node[11].veinsmobility  posy  ETV
vector 17935  IntersectionExampleScenario.node[11].veinsmobility  speed  ETV
vector 17936  IntersectionExampleScenario.node[11].veinsmobility  acceleration  ETV
vector 17937  IntersectionExampleScenario.node[11].veinsmobility  co2emission  ETV
vector 17940  IntersectionExampleScenario.node[12].veinsmobility  posx  ETV
vector 17941  IntersectionExampleScenario.node[12].veinsmobility  posy  ETV
vector 17942  IntersectionExampleScenario.node[12].veinsmobility  speed  ETV
vector 17943  IntersectionExampleScenario.node[12].veinsmobility  acceleration  ETV
vector 17944  IntersectionExampleScenario.node[12].veinsmobility  co2emission  ETV
17860	8099 5116 32 2455 6.75 47.5 164 0.973 11.36141391502 493.09962632924 2581.4212800182
17859	13215 4728 32 2455 6.75 47.5 164 -3.5849685668945 2.5 35.964826583862 268.87659629982
17858	17943 5010 29 2455 6.5 47.5 165 5.6500000953674 15.25 2185.0118789673 30091.539931081
17857	22953 5355 26 2455 6.25 47.5 166 486.85000610352 733.70835876465 89348.825836182 49054811.610176
17856	28308 5357 26 2455 6.25 47.5 166 486.78659057617 785.82187652588 94985.708610535 56128584.495314
vector 17947  IntersectionExampleScenario.node[13].veinsmobility  posx  ETV
vector 17948  IntersectionExampleScenario.node[13].veinsmobility  posy  ETV
vector 17949  IntersectionExampleScenario.node[13].veinsmobility  speed  ETV
vector 17950  IntersectionExampleScenario.node[13].veinsmobility  acceleration  ETV
vector 17951  IntersectionExampleScenario.node[13].veinsmobility  co2emission  ETV
17867	34066 5053 60 2588 8.75 49.5 164 0.973 12.553400930962 573.58059094885 3317.5390974709
17866	39119 4896 60 2588 8.75 49.5 164 -8.2048778533936 4 42.585195541382 523.01622604546
17865	44015 5036 55 2588 8.5 49.5 165 0 16.89999961853 2216.7794718742 33190.744968186
17864	49051 5360 50 2588 8.25 49.5 166 184.17810058594 734.35038757324 74714.756362915 37607436.390614
17863	54411 5388 50 2588 8.25 49.5 166 486.85000610352 486.85000610352 80817.101013184 39345806.121537
17874	59799 5035 94 2618 10.25 50 160 0.973 11.810082123732 521.59095656476 2912.9491040786
17873	64834 4615 94 2618 10.25 50 160 -3.1266498565674 2.5 39.699392318726 298.77557824982
17872	69449 4919 87 2618 10 50 161 5.6500000953674 15.875 2189.5083637238 31422.339907499
17871	74368 5266 80 2618 9.75 50 162 486.85000610352 785.82187652588 92587.982673645 54654865.586781
17870	79634 5266 80 2618 9.75 50 162 235.48394775391 483.14999389648 70162.25390625 31314800.032488
17881	84900 4927 196 2761 13.75 52.5 156 0.973 11.648172402475 481.70103190903 2630.7695289977
17880	89827 4743 196 2761 13.75 52.5 156 -3.223690032959 2.5 38.511121749878 201.44947918575
17879	94570 4885 187 2761 13.5 52.5 157 5.6500000953674 15.64999961853 2247.0086917877 32807.964755286
17878	99455 5137 178 2761 13.25 52.5 158 238.75122070312 795.46562957764 83287.092651367 48205230.566442
17877	104592 5160 178 2761 13.25 52.5 158 483.14999389648 483.14999389648 76337.699035645 36882558.823143
17895	109752 5289 296 2990 16.25 57.5 166 0.973 11.450879080643 494.82408370981 2520.559990037
17894	115041 4738 296 2990 16.25 57.5 166 -3.4051704406738 2.5 36.813589096069 225.69535685238
17893	119779 5177 283 2990 16 57.5 167 5.6500000953674 15.375 2296.5198993683 32410.167743723
17892	124956 5485 270 2990 15.75 57.5 168 483.14999389648 806.23751068115 97383.907333374 58578129.547402
17891	130441 5490 270 2990 15.75 57.5 168 483.14999389648 735.00746154785 89903.590881348 49123867.664823
17902	135931 4820 525 3012 20.5 58 151 0.973 11.54047740176 544.33289271752 2966.8868858459
17901	140751 4624 525 3012 20.5 58 151 -4.5 2.5 44.112981796265 259.07497377778
17900	145375 4760 508 3012 20.25 58 152 5.6500000953674 16.722036361694 2281.0344057083 35179.27508901
17899	150135 5007 491 3012 20 58 153 236.22552490234 800.39064025879 81305.838554382 47463265.261733
17898	155142 5019 491 3012 20 58 153 483.14999389648 483.14999389648 73921.949066162 35715389.240132
vector 17954  IntersectionExampleScenario.node[14].veinsmobility  posx  ETV
vector 17955  IntersectionExampleScenario.node[14].veinsmobility  posy  ETV
vector 17956  IntersectionExampleScenario.node[14].veinsmobility  speed  ETV
vector 17957  IntersectionExampleScenario.node[14].veinsmobility  acceleration  ETV
vector 17958  IntersectionExampleScenario.node[14].veinsmobility  co2emission  ETV
vector 17961  IntersectionExampleScenario.node[15].veinsmobility  posx  ETV
vector 17962  IntersectionExampleScenario.node[15].veinsmobility  posy  ETV
vector 17963  IntersectionExampleScenario.node[15].veinsmobility  speed  ETV
vector 17968  IntersectionExampleScenario.node[16].veinsmobility  posx  ETV
vector 17969  IntersectionExampleScenario.node[16].veinsmobility  posy  ETV
vector 17964  IntersectionExampleScenario.node[15].veinsmobility  acceleration  ETV
vector 17965  IntersectionExampleScenario.node[15].veinsmobility  co2emission  ETV
vector 17970  IntersectionExampleScenario.node[16].veinsmobility  speed  ETV
vector 17971  IntersectionExampleScenario.node[16].veinsmobility  acceleration  ETV
vector 17972  IntersectionExampleScenario.node[16].veinsmobility  co2emission  ETV
vector 17975  IntersectionExampleScenario.node[17].veinsmobility  posx  ETV
vector 17976  IntersectionExampleScenario.node[17].veinsmobility  posy  ETV
vector 17977  IntersectionExampleScenario.node[17].veinsmobility  speed  ETV
17888	161596 6143 283 3409 16 66.25 202 0.973 11.00486315618 544.59326732628 2544.6476821185
17887	167739 5523 283 3409 16 66.25 202 -9.2687568664551 4 34.606801986694 478.02837339951
17886	173262 5980 270 3409 15.75 66.25 203 0 14.75 2204.3600749969 29580.539234354
17885	179242 6676 259 3409 15.5 66.25 204 235.53033447266 486.85000610352 90302.193908691 41086747.202117
17884	185918 6679 259 3409 15.5 66.25 204 483.14999389648 785.82187652588 113884.75382996 65573422.199702
vector 17978  IntersectionExampleScenario.node[17].veinsmobility  acceleration  ETV
vector 17979  IntersectionExampleScenario.node[17].veinsmobility  co2emission  ETV
vector 17982  IntersectionExampleScenario.node[18].veinsmobility  posx  ETV
vector 17983  IntersectionExampleScenario.node[18].veinsmobility  posy  ETV
vector 17984  IntersectionExampleScenario.node[18].veinsmobility  speed  ETV
vector 17985  IntersectionExampleScenario.node[18].veinsmobility  acceleration  ETV
vector 17986  IntersectionExampleScenario.node[18].veinsmobility  co2emission  ETV
vector 17989  IntersectionExampleScenario.node[19].veinsmobility  posx  ETV
vector 17990  IntersectionExampleScenario.node[19].veinsmobility  posy  ETV
vector 17991  IntersectionExampleScenario.node[19].veinsmobility  speed  ETV
17909	193399 5838 525 3525 20.5 68.25 192 0.973 11.648172402475 557.07971984407 2811.1929301384
17908	199237 5570 525 3525 20.5 68.25 192 -7.11266040802 4 37.662351608276 477.05746589394
17907	204807 5723 508 3525 20.25 68.25 193 0 15.64999961853 2179.8724844456 30336.942928428
17906	210530 6368 491 3525 20 68.25 194 236.9306640625 483.14999389648 85461.008361816 38648165.543011
17905	216898 6341 491 3525 20 68.25 194 184.17810058594 483.24322509766 79430.526733398 34412171.126862
vector 17992  IntersectionExampleScenario.node[19].veinsmobility  acceleration  ETV
vector 17993  IntersectionExampleScenario.node[19].veinsmobility  co2emission  ETV
17923	223408 5642 805 3610 24.5 69.5 181 0.973 11.648172402475 594.5269794383 3077.1468321661
17922	229050 5639 805 3610 24.5 69.5 181 -4.5 2.5 44.113210678101 447.94603034924
17921	234689 5717 784 3610 24.25 69.5 182 0 16.721492767334 2211.6720436681 32479.239942625
17920	240406 6022 763 3610 24 69.5 183 236.82849121094 483.14999389648 80773.836791992 36571874.330003
17919	246428 5986 763 3610 24 69.5 183 177.97814941406 483.14999389648 74093.274658203 31888534.740337
vector 17996  IntersectionExampleScenario.node[20].veinsmobility  posx  ETV
vector 17997  IntersectionExampleScenario.node[20].veinsmobility  posy  ETV
vector 17998  IntersectionExampleScenario.node[20].veinsmobility  speed  ETV
vector 17999  IntersectionExampleScenario.node[20].veinsmobility  acceleration  ETV
vector 18000  IntersectionExampleScenario.node[20].veinsmobility  co2emission  ETV
vector 18003  IntersectionExampleScenario.node[21].veinsmobility  posx  ETV
vector 18004  IntersectionExampleScenario.node[21].veinsmobility  posy  ETV
vector 18005  IntersectionExampleScenario.node[21].veinsmobility  speed  ETV
vector 18006  IntersectionExampleScenario.node[21].veinsmobility  acceleration  ETV
vector 18007  IntersectionExampleScenario.node[21].veinsmobility  co2emission  ETV
vector 18010  IntersectionExampleScenario.node[22].veinsmobility  posx  ETV
vector 18011  IntersectionExampleScenario.node[22].veinsmobility  posy  ETV
vector 18012  IntersectionExampleScenario.node[22].veinsmobility  speed  ETV
vector 18013  IntersectionExampleScenario.node[22].veinsmobility  acceleration  ETV
vector 18014  IntersectionExampleScenario.node[22].veinsmobility  co2emission  ETV
vector 18017  IntersectionExampleScenario.node[23].veinsmobility  posx  ETV
vector 18018  IntersectionExampleScenario.node[23].veinsmobility  posy  ETV
17937	253771 5038 1918 4223 38.75 78 158 0.973 11.810082123732 513.43619907667 2875.6901887968
17936	258809 4648 1918 4223 38.75 78 158 -3.2696113586426 2.5 39.529638290405 284.07429327694
17935	263457 4916 1901 4223 38.5 78 159 5.6500000953674 15.875 2188.4402418137 31584.250986053
17934	268373 5276 1884 4223 38.25 78 160 486.85000610352 734.31695556641 86012.819915771 47160665.558399
17933	273649 5275 1884 4223 38.25 78 160 486.85000610352 785.82187652588 91574.494667053 54143684.307907
vector 18019  IntersectionExampleScenario.node[23].veinsmobility  speed  ETV
vector 18020  IntersectionExampleScenario.node[23].veinsmobility  acceleration  ETV
vector 18021  IntersectionExampleScenario.node[23].veinsmobility  co2emission  ETV
vector 18024  IntersectionExampleScenario.node[24].veinsmobility  posx  ETV
vector 18025  IntersectionExampleScenario.node[24].veinsmobility  posy  ETV
vector 18026  IntersectionExampleScenario.node[24].veinsmobility  speed  ETV
vector 18027  IntersectionExampleScenario.node[24].veinsmobility  acceleration  ETV
vector 18028  IntersectionExampleScenario.node[24].veinsmobility  co2emission  ETV
17916	279572 6704 805 4448 24.5 80.5 225 0.973 11.36141391502 590.15273186854 2822.546261522
17915	286276 6250 805 4448 24.5 80.5 225 -24.821556091309 4 37.15309715271 994.27648652133
17914	292526 6332 784 4448 24.25 80.5 226 0 15.25 2229.6401576996 31203.39311289
17913	298858 7467 763 4448 24 80.5 227 486.63604736328 799.30626678467 126403.02639771 72633387.020014
17912	306325 7413 763 4448 24 80.5 227 236.84155273438 483.14999389648 101337.71029663 46298863.649494
17930	313738 6339 1312 4609 30.5 82.25 208 0.973 11.200708441096 569.98328416268 2648.0199329338
17929	320077 5949 1312 4609 30.5 82.25 208 -7.4570107460022 4 37.32285118103 461.60924100727
17928	326026 6404 1290 4609 30.25 82.25 209 0 15.02499961853 2196.9958245158 30438.957457982
17927	332430 6901 1267 4609 30 82.25 210 184.17810058594 486.85000610352 87177.632324219 38182640.75576
17926	339331 6919 1267 4609 30 82.25 210 237.66046142578 486.85000610352 93727.324615479 42897489.338637
17951	346250 4796 2504 4931 48.25 85.75 151 0.973 12.354977921754 537.56766445259 3253.9441623638
17950	351046 4617 2504 4931 48.25 85.75 151 -3.4915657043457 2.5 42.415441513062 282.9524831585
17949	355663 4732 2487 4931 48 85.75 152 5.6500000953674 16.627674102783 2206.087723732 33214.640666779
17948	360395 5015 2470 4931 47.75 85.75 153 184.17810058594 486.85000610352 60831.76461792 25911353.687761
17947	365410 5047 2470 4931 47.75 85.75 153 237.73846435547 486.85000610352 66606.967254639 29893556.838616
vector 18031  IntersectionExampleScenario.node[25].veinsmobility  posx  ETV
vector 18032  IntersectionExampleScenario.node[25].veinsmobility  posy  ETV
vector 18033  IntersectionExampleScenario.node[25].veinsmobility  speed  ETV
vector 18034  IntersectionExampleScenario.node[25].veinsmobility  acceleration  ETV
vector 18035  IntersectionExampleScenario.node[25].veinsmobility  co2emission  ETV
vector 18038  IntersectionExampleScenario.node[26].veinsmobility  posx  ETV
vector 18039  IntersectionExampleScenario.node[26].veinsmobility  posy  ETV
vector 18045  IntersectionExampleScenario.node[27].veinsmobility  posx  ETV
vector 18046  IntersectionExampleScenario.node[27].veinsmobility  posy  ETV
vector 18040  IntersectionExampleScenario.node[26].veinsmobility  speed  ETV
vector 18041  IntersectionExampleScenario.node[26].veinsmobility  acceleration  ETV
vector 18042  IntersectionExampleScenario.node[26].veinsmobility  co2emission  ETV
vector 18047  IntersectionExampleScenario.node[27].veinsmobility  speed  ETV
vector 18052  IntersectionExampleScenario.node[28].veinsmobility  posx  ETV
vector 18053  IntersectionExampleScenario.node[28].veinsmobility  posy  ETV
vector 18048  IntersectionExampleScenario.node[27].veinsmobility  acceleration  ETV
vector 18049  IntersectionExampleScenario.node[27].veinsmobility  co2emission  ETV
vector 18054  IntersectionExampleScenario.node[28].veinsmobility  speed  ETV
vector 18055  IntersectionExampleScenario.node[28].veinsmobility  acceleration  ETV
vector 18056  IntersectionExampleScenario.node[28].veinsmobility  co2emission  ETV
17944	372061 6005 2260 5781 44.25 94.25 201 0.973 12.353032912318 605.97083312605 3410.3196535563
17943	378066 5494 2260 5781 44.25 94.25 201 -7.0093479156494 4 42.415441513062 506.24826068856
17942	383560 5801 2245 5781 44 94.25 202 0 16.625 2206.4864721298 32988.607272104
17941	389361 6699 2230 5781 43.75 94.25 203 483.14999389648 483.14999389648 98079.448760986 47387085.070241
17940	396060 6661 2230 5781 43.75 94.25 203 184.17810058594 731.48355102539 91910.838409424 45561886.041361
vector 18059  IntersectionExampleScenario.node[29].veinsmobility  posx  ETV
vector 18060  IntersectionExampleScenario.node[29].veinsmobility  posy  ETV
vector 18061  IntersectionExampleScenario.node[29].veinsmobility  speed  ETV
vector 18062  IntersectionExampleScenario.node[29].veinsmobility  acceleration  ETV
vector 18063  IntersectionExampleScenario.node[29].veinsmobility  co2emission  ETV
vector 18066  IntersectionExampleScenario.node[30].veinsmobility  posx  ETV
vector 18067  IntersectionExampleScenario.node[30].veinsmobility  posy  ETV
vector 18068  IntersectionExampleScenario.node[30].veinsmobility  speed  ETV
vector 18069  IntersectionExampleScenario.node[30].veinsmobility  acceleration  ETV
vector 18070  IntersectionExampleScenario.node[30].veinsmobility  co2emission  ETV
vector 18073  IntersectionExampleScenario.node[31].veinsmobility  posx  ETV
vector 18074  IntersectionExampleScenario.node[31].veinsmobility  posy  ETV
vector 18075  IntersectionExampleScenario.node[31].veinsmobility  speed  ETV
vector 18076  IntersectionExampleScenario.node[31].veinsmobility  acceleration  ETV
vector 18077  IntersectionExampleScenario.node[31].veinsmobility  co2emission  ETV
vector 18080  IntersectionExampleScenario.node[32].veinsmobility  posx  ETV
vector 18081  IntersectionExampleScenario.node[32].veinsmobility  posy  ETV
vector 18082  IntersectionExampleScenario.node[32].veinsmobility  speed  ETV
vector 18083  IntersectionExampleScenario.node[32].veinsmobility  acceleration  ETV
vector 18084  IntersectionExampleScenario.node[32].veinsmobility  co2emission  ETV
17965	404325 5230 3293 6660 64 104.25 162 0.973 11.200708441096 476.08751514023 2369.9055514619
17964	409555 4690 3293 6660 64 104.25 162 -3.5818061828613 2.5 35.795072555542 221.15525065147
17963	414245 5121 3282 6660 63.75 104.25 163 5.6500000953674 15.02499961853 2208.9696474075 30681.575618734
17962	419366 5426 3270 6660 63.5 104.25 164 236.22680664062 486.85000610352 71047.201873779 31777297.866269
17961	424792 5423 3270 6660 63.5 104.25 164 482.92910766602 785.82187652588 93739.506111145 55393529.358209
17993	430215 4916 3542 6819 68.5 106.25 152 0.973 11.103698714662 467.93064372168 2475.730195245
17992	435131 4520 3542 6819 68.5 106.25 152 -4.5 2.5 35.455564498901 236.25436515891
17991	439651 4863 3525 6819 68.25 106.25 153 5.6500000953674 14.888891220093 2093.741938591 29139.819891368
17990	444514 5107 3508 6819 68 106.25 154 486.85000610352 486.85000610352 74974.900939941 36501530.980221
17989	449621 5088 3508 6819 68 106.25 154 236.33697509766 754.96339416504 77784.554893494 42917333.167511
17972	454709 5699 3319 7025 64.5 109 179 0.973 11.36141391502 611.14059637561 3286.2984535851
17971	460408 5498 3319 7025 64.5 109 179 -4.5 2.5 37.15309715271 486.1913538696
17970	465906 5665 3306 7025 64.25 109 180 5.6500000953674 15.25 2278.6178016663 30387.287221885
17969	471571 6000 3293 7025 64 109 181 486.85000610352 733.76564025879 96501.275787354 52438034.687907
17968	477571 6000 3293 7025 64 109 181 486.83770751953 809.56562805176 106658.27833557 65238051.919143
17979	483571 5603 3422 7127 66.5 110.5 177 0.973 11.36141391502 539.85195336068 2767.485037378
17978	489174 4971 3422 7127 66.5 110.5 177 -6.9984560012817 4 37.492597579956 464.16787738279
17977	494145 5484 3409 7127 66.25 110.5 178 0 15.25 2181.771545887 30316.950911517
17976	499629 5925 3396 7127 66 110.5 179 184.17810058594 483.36395263672 72309.770141602 31043540.944271
17975	505554 5884 3396 7127 66 110.5 179 486.85000610352 734.21499633789 95510.462554932 51947165.639135
17958	511438 6190 3116 7127 60.25 110.5 202 0.973 11.200708441096 561.04048792121 2720.8799649583
17957	517628 5569 3116 7127 60.25 110.5 202 -8.2099418640137 4 36.813589096069 479.88621466705
17956	523197 6034 3103 7127 60 110.5 203 0 15.02499961853 2203.7757983208 30609.842716037
17955	529231 6762 3089 7127 59.75 110.5 204 238.36450195312 785.82187652588 105391.06800079 58648954.334976
17954	535993 6775 3089 7127 59.75 110.5 204 483.14999389648 483.14999389648 98562.598754883 47620518.986843
18000	542768 5245 3741 7263 71.5 112.5 165 0.973 11.200708441096 512.75979649336 2724.9238688727
17999	548013 4904 3741 7263 71.5 112.5 165 -2.9716110229492 2.5 37.15309715271 269.47506981506
17998	552917 5261 3724 7263 71.25 112.5 166 5.6500000953674 15.02499961853 2203.8605880737 30315.219953154
17997	558178 5542 3707 7263 71 112.5 167 184.17810058594 486.85000610352 66714.607574463 28454883.839842
17996	563720 5551 3707 7263 71 112.5 167 237.97784423828 486.85000610352 72810.596710205 32721276.849559
18007	569271 5065 4017 7374 75.5 114.5 157 0.973 11.550842287125 488.28894342428 2647.1475297566
18006	574336 4672 4017 7374 75.5 114.5 157 -2.9877014160156 2.5 37.32285118103 211.9575480895
18005	579008 5056 3998 7374 75.25 114.5 158 5.6500000953674 15.514448165894 2218.1297922134 31720.854829462
18004	584064 5294 3979 7374 75 114.5 159 236.48846435547 785.82187652588 82881.878013611 47405758.001058
18003	589358 5305 3979 7374 75 114.5 159 483.14999389648 483.14999389648 76820.849029541 37115992.739745
vector 18087  IntersectionExampleScenario.node[33].veinsmobility  posx  ETV
vector 18088  IntersectionExampleScenario.node[33].veinsmobility  posy  ETV
vector 18089  IntersectionExampleScenario.node[33].veinsmobility  speed  ETV
vector 18090  IntersectionExampleScenario.node[33].veinsmobility  acceleration  ETV
vector 18091  IntersectionExampleScenario.node[33].veinsmobility  co2emission  ETV
vector 18094  IntersectionExampleScenario.node[34].veinsmobility  posx  ETV
vector 18095  IntersectionExampleScenario.node[34].veinsmobility  posy  ETV
18021	595218 4945 4269 7474 78.5 116.5 153 0.973 11.990504229548 506.51694263984 2901.8721740871
18020	600163 4729 4269 7474 78.5 116.5 153 -3.2995071411133 2.5 39.699392318726 231.82342713993
18019	604892 4887 4246 7474 78.25 116.5 154 5.6500000953674 16.125 2225.0371570587 32853.569157619
18018	609779 5155 4223 7474 78 116.5 155 184.17810058594 735.16299438477 69469.74911499 35268586.029044
18017	614934 5181 4223 7474 78 116.5 155 486.85000610352 486.85000610352 75461.750946045 36738553.908664
vector 18096  IntersectionExampleScenario.node[34].veinsmobility  speed  ETV
vector 18097  IntersectionExampleScenario.node[34].veinsmobility  acceleration  ETV
vector 18098  IntersectionExampleScenario.node[34].veinsmobility  co2emission  ETV
18014	620362 5366 4097 7549 76.5 117.75 166 0.973 11.36141391502 517.44074310068 2680.7449675667
18013	625728 5055 4097 7549 76.5 117.75 166 -3.3901062011719 2.5 38.511121749878 265.84078148983
18012	630783 5263 4076 7549 76.25 117.75 167 5.6500000953674 15.322694778442 2279.3353843689 32490.721544885
18011	636046 5600 4055 7549 76 117.75 168 486.8359375 807.99687957764 97579.002998352 58773713.147541
18010	641646 5610 4055 7549 76 117.75 168 235.24725341797 483.14999389648 72891.222167969 32580539.230897
18028	647256 5383 4448 7790 80.5 122 167 0.973 11.36141391502 507.32805662675 2659.9995854242
18027	652639 5028 4448 7790 80.5 122 167 -3.1926612854004 2.5 37.15309715271 259.9940497118
18026	657667 5315 4425 7790 80.25 122 168 5.6500000953674 15.25 2255.1288528442 31528.06967032
18025	662982 5657 4402 7790 80 122 169 486.82080078125 803.10939025879 97841.354988098 58679622.706027
18024	668639 5662 4402 7790 80 122 169 236.13970947266 483.14999389648 73264.001647949 32722149.963092
17986	674301 6890 3478 7921 67.5 124.75 230 0.973 12.26218747632 633.48465609098 3105.0276847856
17985	681191 6551 3478 7921 67.5 124.75 230 -11.446132659912 4 41.227170944214 595.05537718069
17984	687742 6610 3463 7921 67.25 124.75 231 0 16.5 2284.4965820312 32195.560395929
17983	694352 7677 3448 7921 67 124.75 232 486.85000610352 735.02058410645 120898.46395874 64039327.61898
17982	702029 7737 3448 7921 67 124.75 232 486.63604736328 810.76818084717 130916.22658539 76503986.252555
vector 18101  IntersectionExampleScenario.node[35].veinsmobility  posx  ETV
vector 18102  IntersectionExampleScenario.node[35].veinsmobility  posy  ETV
vector 18103  IntersectionExampleScenario.node[35].veinsmobility  speed  ETV
vector 18104  IntersectionExampleScenario.node[35].veinsmobility  acceleration  ETV
vector 18105  IntersectionExampleScenario.node[35].veinsmobility  co2emission  ETV
vector 18108  IntersectionExampleScenario.node[36].veinsmobility  posx  ETV
vector 18109  IntersectionExampleScenario.node[36].veinsmobility  posy  ETV
vector 18110  IntersectionExampleScenario.node[36].veinsmobility  speed  ETV
vector 18111  IntersectionExampleScenario.node[36].veinsmobility  acceleration  ETV
vector 18112  IntersectionExampleScenario.node[36].veinsmobility  co2emission  ETV
18042	710568 5156 5291 8073 89.5 129 159 0.973 11.54047740176 505.53782911429 2898.1019321981
18041	715724 4927 5291 8073 89.5 129 159 -3.7129096984863 2.5 36.98334312439 253.28935104006
18040	720651 5142 5264 8073 89.25 129 160 5.6500000953674 15.5 2220.4784812927 31413.057815775
18039	725793 5428 5239 8073 89 129 161 486.85000610352 486.85000610352 78382.850982666 38160691.479322
18038	731221 5420 5239 8073 89 129 161 235.73913574219 785.82187652588 83900.848243713 47958913.48155
18056	736641 5174 5371 8084 90.25 129.25 157 0.973 11.54047740176 464.515727801 2331.5343583805
18055	741815 4663 5371 8084 90.25 129.25 157 -3.6199226379395 2.5 36.98334312439 185.99752778846
18054	746478 5078 5344 8084 90 129.25 158 5.6500000953674 15.5 2220.1633729935 31769.099536895
18053	751556 5365 5317 8084 89.75 129.25 159 483.14999389648 483.14999389648 76820.849029541 37115992.739745
18052	756921 5327 5317 8084 89.75 129.25 159 184.17810058594 734.11010742188 71456.595001221 36341496.178864
18049	762248 5163 5317 8084 89.75 129.25 159 0.973 12.80944146078 583.46707216811 3495.8513255132
18048	767411 4933 5317 8084 89.75 129.25 159 -4.5 2.5 44.112981796265 346.12941201264
18047	772344 5080 5291 8084 89.5 129.25 160 5.6500000953674 17.25 2298.847943306 34394.402406862
18046	777424 5428 5264 8084 89.25 129.25 161 238.98809814453 486.85000610352 70793.222259521 32020655.098108
18045	782852 5415 5264 8084 89.25 129.25 161 483.14999389648 810.23281097412 94034.103614807 57038223.053381
vector 18115  IntersectionExampleScenario.node[37].veinsmobility  posx  ETV
vector 18116  IntersectionExampleScenario.node[37].veinsmobility  posy  ETV
vector 18122  IntersectionExampleScenario.node[38].veinsmobility  posx  ETV
vector 18123  IntersectionExampleScenario.node[38].veinsmobility  posy  ETV
vector 18129  IntersectionExampleScenario.node[39].veinsmobility  posx  ETV
vector 18130  IntersectionExampleScenario.node[39].veinsmobility  posy  ETV
vector 18117  IntersectionExampleScenario.node[37].veinsmobility  speed  ETV
vector 18118  IntersectionExampleScenario.node[37].veinsmobility  acceleration  ETV
vector 18119  IntersectionExampleScenario.node[37].veinsmobility  co2emission  ETV
vector 18124  IntersectionExampleScenario.node[38].veinsmobility  speed  ETV
vector 18131  IntersectionExampleScenario.node[39].veinsmobility  speed  ETV
vector 18125  IntersectionExampleScenario.node[38].veinsmobility  acceleration  ETV
vector 18126  IntersectionExampleScenario.node[38].veinsmobility  co2emission  ETV
vector 18132  IntersectionExampleScenario.node[39].veinsmobility  acceleration  ETV
vector 18133  IntersectionExampleScenario.node[39].veinsmobility  co2emission  ETV
vector 18136  IntersectionExampleScenario.node[40].veinsmobility  posx  ETV
vector 18137  IntersectionExampleScenario.node[40].veinsmobility  posy  ETV
vector 18143  IntersectionExampleScenario.node[41].veinsmobility  posx  ETV
vector 18144  IntersectionExampleScenario.node[41].veinsmobility  posy  ETV
vector 18138  IntersectionExampleScenario.node[40].veinsmobility  speed  ETV
vector 18145  IntersectionExampleScenario.node[41].veinsmobility  speed  ETV
vector 18139  IntersectionExampleScenario.node[40].veinsmobility  acceleration  ETV
vector 18140  IntersectionExampleScenario.node[40].veinsmobility  co2emission  ETV
vector 18146  IntersectionExampleScenario.node[41].veinsmobility  acceleration  ETV
vector 18147  IntersectionExampleScenario.node[41].veinsmobility  co2emission  ETV
18070	790272 5256 6030 8587 97 136.5 159 0.973 11.450879080643 484.64407355861 2520.0194093288
18069	795528 4948 6030 8587 97 136.5 159 -3.7292709350586 2.5 37.32285118103 232.86067042328
18068	800476 5146 6007 8587 96.75 136.5 160 5.6500000953674 15.375 2208.0385255814 31327.212442834
18067	805622 5452 5984 8587 96.5 136.5 161 236.81829833984 486.85000610352 69839.025848389 31265377.718258
18066	811074 5452 5984 8587 96.5 136.5 161 483.14999389648 785.82187652588 92068.149497986 54441725.527357
vector 18150  IntersectionExampleScenario.node[42].veinsmobility  posx  ETV
vector 18151  IntersectionExampleScenario.node[42].veinsmobility  posy  ETV
vector 18152  IntersectionExampleScenario.node[42].veinsmobility  speed  ETV
vector 18153  IntersectionExampleScenario.node[42].veinsmobility  acceleration  ETV
vector 18154  IntersectionExampleScenario.node[42].veinsmobility  co2emission  ETV
vector 18157  IntersectionExampleScenario.node[43].veinsmobility  posx  ETV
vector 18158  IntersectionExampleScenario.node[43].veinsmobility  posy  ETV
vector 18159  IntersectionExampleScenario.node[43].veinsmobility  speed  ETV
vector 18164  IntersectionExampleScenario.node[44].veinsmobility  posx  ETV
vector 18165  IntersectionExampleScenario.node[44].veinsmobility  posy  ETV
vector 18160  IntersectionExampleScenario.node[43].veinsmobility  acceleration  ETV
vector 18161  IntersectionExampleScenario.node[43].veinsmobility  co2emission  ETV
vector 18166  IntersectionExampleScenario.node[44].veinsmobility  speed  ETV
vector 18167  IntersectionExampleScenario.node[44].veinsmobility  acceleration  ETV
vector 18168  IntersectionExampleScenario.node[44].veinsmobility  co2emission  ETV
18035	817729 6619 5027 8952 86.75 140.25 215 0.973 11.648172402475 596.76323228511 3006.9203222621
18034	824348 5632 5027 8952 86.75 140.25 215 -29.950630187988 4 38.850629806519 1298.7293114693
18033	829980 6274 5002 8952 86.5 140.25 216 0 15.64999961853 2221.1931409836 32176.058181826
18032	836254 7293 4977 8952 86.25 140.25 217 184.17810058594 735.09378051758 98883.005828857 49237481.593956
18031	843547 7324 4977 8952 86.25 140.25 217 486.85000610352 486.85000610352 105646.45132446 51433975.472129
18063	850871 5857 5849 8975 95 140.5 183 0.973 11.36141391502 542.26698256408 2760.1072157943
18062	856728 5375 5849 8975 95 140.5 183 -8.4870567321777 4 37.15309715271 476.36065124764
18061	862103 5720 5826 8975 94.75 140.5 184 0 15.25 2176.7448656559 30094.704683899
18060	867823 6257 5803 8975 94.5 140.5 185 486.63604736328 785.82187652588 104356.81014252 60726849.781893
18059	874080 6203 5803 8975 94.5 140.5 185 236.84155273438 483.14999389648 81045.410552979 36494639.152203
18077	880283 5437 6192 9066 98.75 141.5 172 0.973 11.648172402475 564.76883163049 3255.876429146
18076	885720 5690 6192 9066 98.75 141.5 172 -2.1857795715332 2.5000019073486 43.286520004272 314.96495152201
18075	891410 5813 6169 9066 98.5 141.5 173 3.9282701015472 16.572513580322 2202.8701612949 30881.811451135
18074	897223 5884 6145 9066 98.25 141.5 174 184.17810058594 486.85000610352 69968.364379883 29894752.442027
18073	903107 5899 6145 9066 98.25 141.5 174 238.72186279297 486.85000610352 76861.556213379 34892258.777715
vector 18171  IntersectionExampleScenario.node[45].veinsmobility  posx  ETV
vector 18172  IntersectionExampleScenario.node[45].veinsmobility  posy  ETV
vector 18173  IntersectionExampleScenario.node[45].veinsmobility  speed  ETV
vector 18174  IntersectionExampleScenario.node[45].veinsmobility  acceleration  ETV
vector 18175  IntersectionExampleScenario.node[45].veinsmobility  co2emission  ETV
vector 18178  IntersectionExampleScenario.node[46].veinsmobility  posx  ETV
vector 18179  IntersectionExampleScenario.node[46].veinsmobility  posy  ETV
vector 18180  IntersectionExampleScenario.node[46].veinsmobility  speed  ETV
vector 18181  IntersectionExampleScenario.node[46].veinsmobility  acceleration  ETV
vector 18182  IntersectionExampleScenario.node[46].veinsmobility  co2emission  ETV
vector 18185  IntersectionExampleScenario.node[47].veinsmobility  posx  ETV
vector 18186  IntersectionExampleScenario.node[47].veinsmobility  posy  ETV
vector 18192  IntersectionExampleScenario.node[48].veinsmobility  posx  ETV
vector 18193  IntersectionExampleScenario.node[48].veinsmobility  posy  ETV
vector 18187  IntersectionExampleScenario.node[47].veinsmobility  speed  ETV
vector 18188  IntersectionExampleScenario.node[47].veinsmobility  acceleration  ETV
vector 18189  IntersectionExampleScenario.node[47].veinsmobility  co2emission  ETV
vector 18194  IntersectionExampleScenario.node[48].veinsmobility  speed  ETV
vector 18195  IntersectionExampleScenario.node[48].veinsmobility  acceleration  ETV
vector 18196  IntersectionExampleScenario.node[48].veinsmobility  co2emission  ETV
18084	910610 6456 6555 10308 103 155 209 0.973 11.90022389248 594.98852957254 3036.140253032
18083	917066 6163 6555 10308 103 155 209 -7.1118631362915 4 40.038900375366 504.67055185098
18082	923229 6221 6534 10308 102.75 155 210 0 16 2208.6575489044 31993.558114225
18081	929450 7177 6513 10308 102.5 155 211 235.31896972656 486.85000610352 94440.328460693 43332636.352528
18080	936627 7171 6513 10308 102.5 155 211 483.14999389648 785.82187652588 116747.3615036 66573404.368661
18098	943798 5319 7504 10457 117 156.5 159 0.973 11.200708441096 456.73025792377 2199.7707180944
18097	949117 4774 7504 10457 117 156.5 159 -3.609977722168 2.5 35.964826583862 173.546437922
18096	953891 5226 7489 10457 116.75 156.5 160 5.6500000953674 15.02499961853 2217.4476184845 31251.739127246
18095	959117 5492 7474 10457 116.5 156.5 161 483.14999389648 483.14999389648 77787.149017334 37582860.57295
18094	964609 5437 7474 10457 116.5 156.5 161 184.17810058594 733.53187561035 72390.111434937 36815025.161462
18091	970046 5525 7422 10571 115.5 157.75 170 0.973 11.200708441096 526.83319307183 2824.046059082
18090	975571 5113 7422 10571 115.5 157.75 170 -4.5 2.5 36.813589096069 290.79077462265
18089	980684 5619 7409 10571 115.25 157.75 171 5.6500000953674 15.02499961853 2223.8503527641 30181.462863497
18088	986303 5871 7396 10571 115 157.75 172 486.85000610352 486.85000610352 83738.201049805 40767943.692195
18087	992174 5844 7396 10571 115 157.75 172 235.26318359375 785.82187652588 89724.66620636 51064217.216241
vector 18199  IntersectionExampleScenario.node[49].veinsmobility  posx  ETV
vector 18200  IntersectionExampleScenario.node[49].veinsmobility  posy  ETV
vector 18201  IntersectionExampleScenario.node[49].veinsmobility  speed  ETV
vector 18202  IntersectionExampleScenario.node[49].veinsmobility  acceleration  ETV
vector 18203  IntersectionExampleScenario.node[49].veinsmobility  co2emission  ETV
vector 18206  IntersectionExampleScenario.node[50].veinsmobility  posx  ETV
vector 18207  IntersectionExampleScenario.node[50].veinsmobility  posy  ETV
18105	998573 5159 8013 11143 127.5 165.5 153 0.97223939240464 11.648172402475 471.80125096764 2469.8143218926
18104	1003732 4681 8013 11143 127.5 165.5 153 -3.5467834472656 2.5 38.680875778198 197.15959754627
18103	1008413 5062 8004 11143 127.25 165.5 154 5.6500000953674 15.64999961853 2210.3583860397 32381.156427409
18102	1013475 5323 7995 11143 127 165.5 155 483.14999389648 483.14999389648 74888.249053955 36182257.073337
18101	1018798 5291 7995 11143 127 165.5 155 184.17810058594 731.58805847168 69392.785324097 35155219.959426
vector 18208  IntersectionExampleScenario.node[50].veinsmobility  speed  ETV
vector 18209  IntersectionExampleScenario.node[50].veinsmobility  acceleration  ETV
vector 18210  IntersectionExampleScenario.node[50].veinsmobility  co2emission  ETV
18112	1024336 5466 8062 11475 128.75 170 166 0.973 11.810082123732 533.49013814054 2972.1922076821
18111	1029802 5256 8062 11475 128.75 170 166 -3.4469776153564 2.5 38.511121749878 371.42465353581
18110	1035058 5490 8051 11475 128.5 170 167 2.8422920703888 15.875 2185.5047976971 30804.193854953
18109	1040548 5760 8040 11475 128.25 170 168 184.17810058594 483.35855102539 67254.192474365 28695058.625558
18108	1046308 5779 8040 11475 128.25 170 168 486.85000610352 734.21641540527 90017.50289917 49183217.022519
18133	1052087 5493 8186 11621 131.25 172.75 167 0.973 11.810082123732 512.92723031303 2848.5025611625
18132	1057580 5342 8186 11621 131.25 172.75 167 -4.5 2.5 38.511121749878 268.70689522409
18131	1062922 5444 8169 11621 131 172.75 168 5.6500000953674 15.875 2241.196750164 31477.403235667
18130	1068366 5803 8152 11621 130.75 172.75 169 168.58435058594 483.22366333008 66359.924468994 28048704.731114
18129	1074169 5826 8152 11621 130.75 172.75 169 486.85000610352 731.60729980469 90341.471679688 49219847.076374
vector 18213  IntersectionExampleScenario.node[51].veinsmobility  posx  ETV
vector 18214  IntersectionExampleScenario.node[51].veinsmobility  posy  ETV
vector 18215  IntersectionExampleScenario.node[51].veinsmobility  speed  ETV
18140	1080227 5444 8398 11703 134.25 174.5 162 0.973 11.36141391502 497.59860970425 2603.3112020495
18139	1085671 4958 8398 11703 134.25 174.5 162 -3.4656429290771 2.5 36.98334312439 274.19288198751
18138	1090629 5312 8377 11703 134 174.5 163 5.6500000953674 15.25 2183.7128014565 30486.636126182
18137	1095941 5659 8356 11703 133.75 174.5 164 486.84750366211 785.82187652588 93870.51108551 55493257.774969
18136	1101600 5599 8356 11703 133.75 174.5 164 236.71746826172 483.14999389648 70865.358886719 31565680.27796
vector 18216  IntersectionExampleScenario.node[51].veinsmobility  acceleration  ETV
vector 18217  IntersectionExampleScenario.node[51].veinsmobility  co2emission  ETV
18154	1107368 5208 8675 11785 137.5 176.25 156 0.973 11.487044930275 537.72693387264 3000.7684315441
18153	1112576 4974 8675 11785 137.5 176.25 156 -4.5 2.5 41.057416915894 288.18743790302
18152	1117550 5155 8652 11785 137.25 176.25 157 5.6500000953674 15.948476791382 2248.414390564 33280.491751756
18151	1122705 5456 8629 11785 137 176.25 158 482.93499755859 797.07032012939 91189.077194214 54543242.939872
18150	1128161 5460 8629 11785 137 176.25 158 483.14999389648 731.78460693359 84327.270385742 45923893.779686
18147	1133621 5616 8398 11796 134.25 176.5 170 0.973 11.200708441096 516.64358401536 2695.6449435799
18146	1139237 5671 8398 11796 134.25 176.5 170 -3.3469581604004 2.5 35.964826583862 256.61941075507
18145	1144908 5860 8377 11796 134 176.5 171 5.6500000953674 15.02499961853 2283.4089770317 31386.723724126
18144	1150768 5917 8356 11796 133.75 176.5 172 163.60626220703 486.85000610352 67255.024383545 28450448.067065
18143	1156685 5939 8356 11796 133.75 176.5 172 237.97241210938 486.85000610352 75064.255157471 33758636.911058
vector 18220  IntersectionExampleScenario.node[52].veinsmobility  posx  ETV
vector 18221  IntersectionExampleScenario.node[52].veinsmobility  posy  ETV
vector 18222  IntersectionExampleScenario.node[52].veinsmobility  speed  ETV
vector 18223  IntersectionExampleScenario.node[52].veinsmobility  acceleration  ETV
vector 18224  IntersectionExampleScenario.node[52].veinsmobility  co2emission  ETV
vector 18227  IntersectionExampleScenario.node[53].veinsmobility  posx  ETV
vector 18228  IntersectionExampleScenario.node[53].veinsmobility  posy  ETV
vector 18229  IntersectionExampleScenario.node[53].veinsmobility  speed  ETV
vector 18230  IntersectionExampleScenario.node[53].veinsmobility  acceleration  ETV
vector 18231  IntersectionExampleScenario.node[53].veinsmobility  co2emission  ETV
vector 18234  IntersectionExampleScenario.node[54].veinsmobility  posx  ETV
vector 18235  IntersectionExampleScenario.node[54].veinsmobility  posy  ETV
vector 18236  IntersectionExampleScenario.node[54].veinsmobility  speed  ETV
vector 18237  IntersectionExampleScenario.node[54].veinsmobility  acceleration  ETV
vector 18238  IntersectionExampleScenario.node[54].veinsmobility  co2emission  ETV
18168	1163827 5767 8825 12085 139 181.5 171 0.973 10.916047529558 488.5706596133 2368.5573498438
18167	1169594 5538 8825 12085 139 181.5 171 -3.5519371032715 2.5 34.267293930054 247.31368941247
18166	1175132 5655 8798 12085 138.75 181.5 172 5.6500000953674 14.625 2231.846698761 29987.426054618
18165	1180787 5994 8771 12085 138.5 181.5 173 173.26501464844 483.14999389648 68126.116424561 28809732.772452
18164	1186781 5991 8771 12085 138.5 181.5 173 486.85000610352 734.66340637207 93069.471801758 51076111.165743
vector 18241  IntersectionExampleScenario.node[55].veinsmobility  posx  ETV
vector 18242  IntersectionExampleScenario.node[55].veinsmobility  posy  ETV
vector 18243  IntersectionExampleScenario.node[55].veinsmobility  speed  ETV
vector 18244  IntersectionExampleScenario.node[55].veinsmobility  acceleration  ETV
vector 18245  IntersectionExampleScenario.node[55].veinsmobility  co2emission  ETV
vector 18248  IntersectionExampleScenario.node[56].veinsmobility  posx  ETV
vector 18249  IntersectionExampleScenario.node[56].veinsmobility  posy  ETV
vector 18250  IntersectionExampleScenario.node[56].veinsmobility  speed  ETV
vector 18251  IntersectionExampleScenario.node[56].veinsmobility  acceleration  ETV
vector 18252  IntersectionExampleScenario.node[56].veinsmobility  co2emission  ETV
18161	1193574 6034 8771 12334 138.5 185 187 0.973 11.648172402475 571.93564978741 2960.3257590941
18160	1199608 5628 8771 12334 138.5 185 187 -7.1993722915649 4 39.699392318726 480.95443295373
18159	1205236 5966 8746 12334 138.25 185 188 0 15.64999961853 2211.7980046272 31859.421992126
18158	1211202 6556 8721 12334 138 185 189 483.14999389648 483.14999389648 91315.348846436 44119010.237811
18157	1217758 6522 8721 12334 138 185 189 184.17810058594 733.11128234863 85479.981933594 42753510.519848
18119	1224280 6867 8169 12353 131 185.25 218 0.97223939240464 11.648172402475 595.45974007928 2975.4690019876
18118	1231147 6013 8169 12353 131 185.25 218 -31.591388702393 4 38.680875778198 1369.6957503599
18117	1237160 6493 8152 12353 130.75 185.25 219 0 15.64999961853 2205.074090004 31739.453863626
18116	1243653 7608 8139 12353 130.5 185.25 220 236.21789550781 486.85000610352 98704.043334961 45366092.781185
18115	1251261 7609 8139 12353 130.5 185.25 220 483.14999389648 785.82187652588 121301.0872879 68892236.323031
18126	1258870 7345 8186 12439 131.25 186.5 222 0.973 11.54047740176 600.6731877955 2858.2247111033
18125	1266215 7157 8186 12439 131.25 186.5 222 -4.5 2.5000009536743 37.32285118103 441.86016398438
18124	1273372 7566 8169 12439 131 186.5 223 0 15.5 2311.6102682129 31803.259953507
18123	1280938 7754 8152 12439 130.75 186.5 224 486.85000610352 486.85000610352 109054.40136719 53093135.97123
18122	1288692 7723 8152 12439 130.75 186.5 224 237.07958984375 810.23281097412 118188.16394043 67210698.291223
vector 18255  IntersectionExampleScenario.node[57].veinsmobility  posx  ETV
vector 18256  IntersectionExampleScenario.node[57].veinsmobility  posy  ETV
vector 18262  IntersectionExampleScenario.node[58].veinsmobility  posx  ETV
vector 18263  IntersectionExampleScenario.node[58].veinsmobility  posy  ETV
vector 18257  IntersectionExampleScenario.node[57].veinsmobility  speed  ETV
vector 18264  IntersectionExampleScenario.node[58].veinsmobility  speed  ETV
vector 18258  IntersectionExampleScenario.node[57].veinsmobility  acceleration  ETV
vector 18259  IntersectionExampleScenario.node[57].veinsmobility  co2emission  ETV
vector 18265  IntersectionExampleScenario.node[58].veinsmobility  acceleration  ETV
vector 18266  IntersectionExampleScenario.node[58].veinsmobility  co2emission  ETV
vector 18269  IntersectionExampleScenario.node[59].veinsmobility  posx  ETV
vector 18270  IntersectionExampleScenario.node[59].veinsmobility  posy  ETV
vector 18271  IntersectionExampleScenario.node[59].veinsmobility  speed  ETV
vector 18272  IntersectionExampleScenario.node[59].veinsmobility  acceleration  ETV
vector 18273  IntersectionExampleScenario.node[59].veinsmobility  co2emission  ETV
18175	1297618 5698 9574 12723 147.5 190.25 172 0.973 11.200708441096 546.26075862197 3073.5608171215
18174	1303316 5393 9574 12723 147.5 190.25 172 -3.4225482940674 2.5 35.625318527222 350.871571353
18173	1308709 5730 9551 12723 147.25 190.25 173 5.6500000953674 15.02499961853 2180.0301995277 28772.826637412
18172	1314439 6062 9528 12723 147 190.25 174 486.85000610352 732.51429748535 93222.315612793 50918702.022302
18171	1320501 6062 9528 12723 147 190.25 174 486.81741333008 785.82187652588 99419.337226868 58592457.779414
18196	1326563 5319 10024 12807 152.25 191.25 157 0.973 11.810082123732 519.33963994817 2981.1530590044
18195	1331882 5132 10024 12807 152.25 191.25 157 -3.4569835662842 2.5 39.699392318726 296.05089949462
18194	1337014 5203 9997 12807 152 191.25 158 5.6500000953674 15.875 2176.8353428841 31472.026744609
18193	1342217 5556 9970 12807 151.75 191.25 159 238.80706787109 483.14999389648 68920.846099854 30763166.583723
18192	1347773 5537 9970 12807 151.75 191.25 159 184.17810058594 483.24114990234 63163.063720703 26816808.069282
vector 18276  IntersectionExampleScenario.node[60].veinsmobility  posx  ETV
vector 18277  IntersectionExampleScenario.node[60].veinsmobility  posy  ETV
vector 18278  IntersectionExampleScenario.node[60].veinsmobility  speed  ETV
vector 18279  IntersectionExampleScenario.node[60].veinsmobility  acceleration  ETV
vector 18280  IntersectionExampleScenario.node[60].veinsmobility  co2emission  ETV
vector 18283  IntersectionExampleScenario.node[61].veinsmobility  posx  ETV
vector 18284  IntersectionExampleScenario.node[61].veinsmobility  posy  ETV
vector 18285  IntersectionExampleScenario.node[61].veinsmobility  speed  ETV
vector 18286  IntersectionExampleScenario.node[61].veinsmobility  acceleration  ETV
vector 18287  IntersectionExampleScenario.node[61].veinsmobility  co2emission  ETV
18182	1354112 6351 9807 13549 150 199.5 199 0.94600815583079 12.26218747632 594.59970566392 3350.1424507743
18181	1360463 6058 9807 13549 150 199.5 199 -7.3752541542053 4 41.566686630249 511.11799449108
18180	1366521 6110 9783 13549 149.75 199.5 200 0 16.5 2173.4753628969 31916.933976208
18179	1372631 7013 9758 13549 149.5 199.5 201 486.63604736328 785.82187652588 111813.65074921 64091239.836478
18178	1379644 6950 9758 13549 149.5 199.5 201 238.05474853516 483.14999389648 89391.787109375 40714902.857579
18189	1386594 6540 9997 13664 152 200.75 196 0.973 12.099024792222 593.72784992799 3244.2514640612
18188	1393134 6467 9997 13664 152 200.75 196 -4.5 2.5000000596046 40.887662887573 464.97163645366
18187	1399601 6733 9970 13664 151.75 200.75 197 0 16.27499961853 2290.3460568953 33268.220392939
18186	1406334 6902 9945 13664 151.5 200.75 198 236.41052246094 803.92188262939 104143.10201263 59223518.723309
18185	1413236 6928 9945 13664 151.5 200.75 198 483.14999389648 483.14999389648 95663.698791504 46219915.48723
vector 18290  IntersectionExampleScenario.node[62].veinsmobility  posx  ETV
vector 18291  IntersectionExampleScenario.node[62].veinsmobility  posy  ETV
vector 18292  IntersectionExampleScenario.node[62].veinsmobility  speed  ETV
vector 18293  IntersectionExampleScenario.node[62].veinsmobility  acceleration  ETV
vector 18294  IntersectionExampleScenario.node[62].veinsmobility  co2emission  ETV
vector 18297  IntersectionExampleScenario.node[63].veinsmobility  posx  ETV
vector 18298  IntersectionExampleScenario.node[63].veinsmobility  posy  ETV
vector 18299  IntersectionExampleScenario.node[63].veinsmobility  speed  ETV
vector 18300  IntersectionExampleScenario.node[63].veinsmobility  acceleration  ETV
vector 18301  IntersectionExampleScenario.node[63].veinsmobility  co2emission  ETV
18210	1420966 5159 11181 13930 166 203.5 151 0.973 11.990504229548 479.97191342524 2613.7218177773
18209	1426125 4645 11181 13930 166 203.5 151 -3.2447547912598 2.5 39.869146347046 201.41922718971
18208	1430770 5067 11162 13930 165.75 203.5 152 5.6500000953674 16.125 2212.2037334442 32921.068151754
18207	1435837 5302 11143 13930 165.5 203.5 153 184.17810058594 731.93894958496 68437.339279175 34655173.1069
18206	1441139 5355 11143 13930 165.5 203.5 153 486.85000610352 486.85000610352 74488.050933838 36264508.051778
vector 18304  IntersectionExampleScenario.node[64].veinsmobility  posx  ETV
vector 18305  IntersectionExampleScenario.node[64].veinsmobility  posy  ETV
vector 18306  IntersectionExampleScenario.node[64].veinsmobility  speed  ETV
vector 18307  IntersectionExampleScenario.node[64].veinsmobility  acceleration  ETV
vector 18308  IntersectionExampleScenario.node[64].veinsmobility  co2emission  ETV
vector 18311  IntersectionExampleScenario.node[65].veinsmobility  posx  ETV
vector 18312  IntersectionExampleScenario.node[65].veinsmobility  posy  ETV
vector 18313  IntersectionExampleScenario.node[65].veinsmobility  speed  ETV
vector 18314  IntersectionExampleScenario.node[65].veinsmobility  acceleration  ETV
vector 18315  IntersectionExampleScenario.node[65].veinsmobility  co2emission  ETV
18203	1447296 6799 11004 15080 163.5 216.25 212 0.973 11.00486315618 552.90822442426 2548.8981800145
18202	1454095 6218 11004 15080 163.5 216.25 212 -7.1268091201782 4 34.437047958374 445.46673179032
18201	1460313 6656 10985 15080 163.25 216.25 213 0 14.75 2203.0807497501 29464.737582101
18200	1466969 7481 10966 15080 163 216.25 214 236.12127685547 486.85000610352 95187.509307861 43467112.622937
18199	1474450 7479 10966 15080 163 216.25 214 483.14999389648 785.82187652588 118894.45251465 68086920.253994
vector 18318  IntersectionExampleScenario.node[66].veinsmobility  posx  ETV
vector 18319  IntersectionExampleScenario.node[66].veinsmobility  posy  ETV
vector 18320  IntersectionExampleScenario.node[66].veinsmobility  speed  ETV
vector 18325  IntersectionExampleScenario.node[67].veinsmobility  posx  ETV
vector 18326  IntersectionExampleScenario.node[67].veinsmobility  posy  ETV
vector 18321  IntersectionExampleScenario.node[66].veinsmobility  acceleration  ETV
vector 18322  IntersectionExampleScenario.node[66].veinsmobility  co2emission  ETV
vector 18327  IntersectionExampleScenario.node[67].veinsmobility  speed  ETV
vector 18328  IntersectionExampleScenario.node[67].veinsmobility  acceleration  ETV
vector 18329  IntersectionExampleScenario.node[67].veinsmobility  co2emission  ETV
18217	1482731 5727 11716 15196 174.75 217.75 173 0.973 11.200708441096 516.50084894943 2735.9602773661
18216	1488458 5612 11716 15196 174.75 217.75 173 -4.5 2.5 35.625318527222 279.70230181558
18215	1494070 5868 11703 15196 174.5 217.75 174 5.5045309066772 15.02499961853 2211.9478754997 29455.062702548
18214	1499938 6127 11690 15196 174.25 217.75 175 486.85000610352 486.85000610352 85198.751068115 41479012.477524
18213	1506065 6113 11690 15196 174.25 217.75 175 238.04656982422 785.82187652588 91408.227363586 52000611.589116
18238	1512178 5397 12034 15335 180.75 219.75 157 0.973 11.200708441096 460.15834192339 2219.9375708414
18237	1517575 4712 12034 15335 180.75 219.75 157 -3.1984786987305 2.5 36.813589096069 173.16062374352
18236	1522287 5315 12017 15335 180.5 219.75 158 5.6500000953674 15.02499961853 2213.1973628998 31558.026069874
18235	1527602 5567 12000 15335 180.25 219.75 159 483.14999389648 483.14999389648 76820.849029541 37115992.739745
18234	1533169 5532 12000 15335 180.25 219.75 159 184.17810058594 732.49557495117 71354.551269531 36223643.095734
vector 18332  IntersectionExampleScenario.node[68].veinsmobility  posx  ETV
vector 18333  IntersectionExampleScenario.node[68].veinsmobility  posy  ETV
vector 18334  IntersectionExampleScenario.node[68].veinsmobility  speed  ETV
vector 18335  IntersectionExampleScenario.node[68].veinsmobility  acceleration  ETV
vector 18336  IntersectionExampleScenario.node[68].veinsmobility  co2emission  ETV
vector 18339  IntersectionExampleScenario.node[69].veinsmobility  posx  ETV
vector 18340  IntersectionExampleScenario.node[69].veinsmobility  posy  ETV
vector 18341  IntersectionExampleScenario.node[69].veinsmobility  speed  ETV
vector 18342  IntersectionExampleScenario.node[69].veinsmobility  acceleration  ETV
vector 18343  IntersectionExampleScenario.node[69].veinsmobility  co2emission  ETV
vector 18346  IntersectionExampleScenario.node[70].veinsmobility  posx  ETV
vector 18347  IntersectionExampleScenario.node[70].veinsmobility  posy  ETV
vector 18348  IntersectionExampleScenario.node[70].veinsmobility  speed  ETV
vector 18349  IntersectionExampleScenario.node[70].veinsmobility  acceleration  ETV
vector 18350  IntersectionExampleScenario.node[70].veinsmobility  co2emission  ETV
18273	1539904 5343 12660 15930 189.5 228.75 158 0.973 11.810082123732 507.99310620607 2855.6579505063
18272	1545247 5037 12660 15930 189.5 228.75 158 -3.4376373291016 2.5 38.850629806519 284.11405286263
18271	1550284 5248 12639 15930 189.25 228.75 159 5.6500000953674 15.875 2176.8192710876 31183.809667693
18270	1555532 5588 12618 15930 189 228.75 160 238.64453125 483.14999389648 69305.658294678 30920764.77396
18269	1561120 5572 12618 15930 189 228.75 160 184.17810058594 483.14999389648 63546.552520752 26970383.904858
18224	1566692 6737 11844 16010 177.5 230 211 0.973 11.90022389248 598.0337568456 3109.1117685008
18223	1573429 6011 11844 16010 177.5 230 211 -7.3431544303894 4 39.869146347046 551.07580836456
18222	1579440 6441 11831 16010 177.25 230 212 0 16 2207.0509322882 32044.720373011
18221	1585881 7431 11818 16010 177 230 213 184.17810058594 486.85000610352 88895.023986816 39080472.258131
18220	1593312 7448 11818 16010 177 230 213 235.83721923828 486.85000610352 95427.015869141 43814437.794796
18245	1600760 6127 12241 16025 183.75 230.25 187 0.973 11.648172402475 556.98872639663 2916.9300466755
18244	1606887 5697 12241 16025 183.75 230.25 187 -7.4922199249268 4 38.171613693237 481.23603371837
18243	1612584 6007 12223 16025 183.5 230.25 188 0 15.64999961853 2197.6315107346 30998.858005783
18242	1618591 6604 12204 16025 183.25 230.25 189 483.14999389648 785.82187652588 105954.72768402 61305313.698676
18241	1625195 6612 12204 16025 183.25 230.25 189 483.14999389648 732.16635131836 99676.291122437 53585569.071817
18231	1631807 7060 11939 16115 179.25 231.75 211 0.973 11.648172402475 607.28204576251 3096.1959234171
18230	1638867 6923 11939 16115 179.25 231.75 211 -4.5 2.5 40.548154830933 439.60245079428
18229	1645790 7217 11924 16115 179 231.75 212 0 15.939518928528 2287.795184521 32871.688220913
18228	1653007 7429 11909 16115 178.75 231.75 213 164.94219970703 486.9091796875 86943.581848145 37744576.912281
18227	1660436 7405 11909 16115 178.75 231.75 213 236.0888671875 486.85000610352 95524.393829346 43891136.925584
18252	1667841 6525 12296 16190 184.5 233 195 0.973 11.438899879242 563.23640365574 2816.036021737
18251	1674366 6368 12296 16190 184.5 233 195 -4.5 2.5 37.15309715271 424.05362795277
18250	1680734 6688 12277 16190 184.25 233 196 0 15.358273506165 2303.4939600062 31572.556104522
18249	1687422 6876 12258 16190 184 233 197 483.10861206055 808.82032012939 112429.60414886 66476926.618614
18248	1694298 6883 12258 16190 184 233 197 483.14999389648 734.27319335938 103813.62187195 55774721.55404
18266	1701181 6002 12580 16250 188.5 234 183 0.973 11.200708441096 527.19330517724 2658.0229650849
18265	1707183 5946 12580 16250 188.5 234 183 -2.9773616790771 2.5 36.134572982788 288.81238337671
18264	1713129 6236 12561 16250 188.25 234 184 3.9110214710236 15.02499961853 2220.7619435787 29093.642902825
18263	1719365 6437 12541 16250 188 234 185 184.17810058594 734.19491577148 82903.897018433 41437211.321986
18262	1725802 6473 12541 16250 188 234 185 486.85000610352 486.85000610352 90067.25112915 43849241.761954
18259	1732275 6084 12580 16280 188.5 234.5 185 0.973 11.810082123732 567.98258874508 2990.8187088723
18258	1738359 5878 12580 16280 188.5 234.5 185 -3.6792907714844 2.5 40.038900375366 357.75103597263
18257	1744237 6204 12561 16280 188.25 234.5 186 3.1810529232025 15.875 2264.0250782967 31101.445529359
18256	1750441 6531 12541 16280 188 234.5 187 486.85000610352 804.21385192871 107177.61166382 63504364.986438
18255	1756972 6539 12541 16280 188 234.5 187 235.26495361328 483.14999389648 82273.68661499 37178660.642985
18287	1763511 5225 13400 16460 198 237.5 159 0.973 12.099024792222 577.88875991036 3730.696352826
18286	1768736 4870 13400 16460 198 237.5 159 -3.4292335510254 2.5 40.038900375366 369.37484279176
18285	1773606 5282 13375 16460 197.75 237.5 160 5.6500000953674 16.27499961853 2177.2939605713 31071.082642854
18284	1778888 5613 13350 16460 197.5 237.5 161 184.17810058594 483.19146728516 63930.938049316 27107796.091601
18283	1784501 5632 13350 16460 197.5 237.5 161 486.85000610352 731.63380432129 86278.984558105 47130758.64125
vector 18353  IntersectionExampleScenario.node[71].veinsmobility  posx  ETV
vector 18354  IntersectionExampleScenario.node[71].veinsmobility  posy  ETV
vector 18355  IntersectionExampleScenario.node[71].veinsmobility  speed  ETV
vector 18356  IntersectionExampleScenario.node[71].veinsmobility  acceleration  ETV
vector 18357  IntersectionExampleScenario.node[71].veinsmobility  co2emission  ETV
18301	1790534 5312 13830 16662 202.5 241.5 157 0.973 11.810082123732 517.18960944474 2938.0765176557
18300	1795846 5107 13830 16662 202.5 241.5 157 -3.6136283874512 2.5 39.869146347046 294.47416826239
18299	1800953 5211 13805 16662 202.25 241.5 158 5.6500000953674 15.875 2189.3060503006 31799.869020054
18298	1806164 5556 13780 16662 202 241.5 159 486.85000610352 785.82187652588 91039.836875916 53853235.477891
18297	1811720 5555 13780 16662 202 241.5 159 235.62591552734 483.14999389648 68747.942932129 30642598.147251
vector 18360  IntersectionExampleScenario.node[72].veinsmobility  posx  ETV
vector 18361  IntersectionExampleScenario.node[72].veinsmobility  posy  ETV
vector 18362  IntersectionExampleScenario.node[72].veinsmobility  speed  ETV
vector 18363  IntersectionExampleScenario.node[72].veinsmobility  acceleration  ETV
vector 18364  IntersectionExampleScenario.node[72].veinsmobility  co2emission  ETV
18294	1817676 5655 13757 16764 201.75 243.5 168 0.973 11.200708441096 496.89052669428 2481.5488349119
18293	1823331 5841 13757 16764 201.75 243.5 168 -3.2448768615723 2.5 36.134572982788 237.86238306108
18292	1829172 5862 13734 16764 201.5 243.5 169 5.6500000953674 15.043904304504 2241.8023333549 30883.308405035
18291	1835034 5936 13710 16764 201.25 243.5 170 176.21716308594 486.85000610352 67588.509368896 28839753.976524
18290	1840970 5946 13710 16764 201.25 243.5 170 235.96893310547 486.85000610352 73914.304718018 33145401.887507
18280	1846916 6298 13189 16815 195.75 244.5 196 0.96086398380174 11.90022389248 591.38104431699 3206.4023047812
18279	1853214 5958 13189 16815 195.75 244.5 196 -6.9447317123413 4 41.227170944214 490.91221882817
18278	1859172 6142 13166 16815 195.5 244.5 197 0 16.204494476318 2205.8216075897 32462.19992315
18277	1865314 6931 13143 16815 195.25 244.5 198 483.14999389648 483.14999389648 95663.698791504 46219915.48723
18276	1872245 6905 13143 16815 195.25 244.5 198 184.17810058594 731.40208435059 89563.087280273 44508567.120478
vector 18367  IntersectionExampleScenario.node[73].veinsmobility  posx  ETV
vector 18368  IntersectionExampleScenario.node[73].veinsmobility  posy  ETV
vector 18369  IntersectionExampleScenario.node[73].veinsmobility  speed  ETV
18315	1879382 5334 15039 17148 215.75 254.5 156 0.973 11.648172402475 493.90664985485 2648.9493700567
18314	1884716 4717 15039 17148 215.75 254.5 156 -3.4680404663086 2.5 38.850629806519 242.6620583105
18313	1889433 5208 15018 17148 215.5 254.5 157 5.6500000953674 15.64999961853 2207.15736866 31975.52612511
18312	1894641 5518 14997 17148 215.25 254.5 158 483.14999389648 733.10472106934 84677.39465332 46329556.478475
18311	1900159 5506 14997 17148 215.25 254.5 158 184.17810058594 486.87796020508 62869.884368896 26783508.367452
vector 18374  IntersectionExampleScenario.node[74].veinsmobility  posx  ETV
vector 18375  IntersectionExampleScenario.node[74].veinsmobility  posy  ETV
vector 18370  IntersectionExampleScenario.node[73].veinsmobility  acceleration  ETV
vector 18371  IntersectionExampleScenario.node[73].veinsmobility  co2emission  ETV
vector 18376  IntersectionExampleScenario.node[74].veinsmobility  speed  ETV
vector 18377  IntersectionExampleScenario.node[74].veinsmobility  acceleration  ETV
vector 18378  IntersectionExampleScenario.node[74].veinsmobility  co2emission  ETV
18322	1906235 5281 15155 17182 217.25 255.5 154 0.973 11.648172402475 472.46901827508 2482.5998158537
18321	1911516 5076 15155 17182 217.25 255.5 154 -3.6608657836914 2.5 38.511121749878 197.1933511335
18320	1916592 5195 15136 17182 217 255.5 155 5.6500000953674 15.64999961853 2222.4509515762 32514.020752185
18319	1921787 5460 15117 17182 216.75 255.5 156 486.85000610352 486.85000610352 75948.600952148 36975576.837107
18318	1927247 5446 15117 17182 216.75 255.5 156 235.38995361328 785.82187652588 81238.700660706 46466104.7955
18329	1932693 5303 15196 17218 217.75 256.5 156 0.973 12.375508589011 521.89299695734 2900.622428208
18328	1937996 5144 15196 17218 217.75 256.5 156 -3.0880470275879 2.5 44.023580551147 210.33403389797
18327	1943140 5341 15176 17218 217.5 256.5 157 5.6500000953674 16.655895233154 2313.897362709 35000.303202356
18326	1948481 5531 15155 17218 217.25 256.5 158 486.85000610352 486.85000610352 76922.300964355 37449622.693993
18325	1954012 5517 15155 17218 217.25 256.5 158 236.57489013672 809.56562805176 84511.495849609 49821930.241398
vector 18381  IntersectionExampleScenario.node[75].veinsmobility  posx  ETV
vector 18382  IntersectionExampleScenario.node[75].veinsmobility  posy  ETV
vector 18383  IntersectionExampleScenario.node[75].veinsmobility  speed  ETV
vector 18384  IntersectionExampleScenario.node[75].veinsmobility  acceleration  ETV
vector 18385  IntersectionExampleScenario.node[75].veinsmobility  co2emission  ETV
vector 18388  IntersectionExampleScenario.node[76].veinsmobility  posx  ETV
vector 18389  IntersectionExampleScenario.node[76].veinsmobility  posy  ETV
vector 18390  IntersectionExampleScenario.node[76].veinsmobility  speed  ETV
vector 18391  IntersectionExampleScenario.node[76].veinsmobility  acceleration  ETV
vector 18392  IntersectionExampleScenario.node[76].veinsmobility  co2emission  ETV
vector 18395  IntersectionExampleScenario.node[77].veinsmobility  posx  ETV
vector 18396  IntersectionExampleScenario.node[77].veinsmobility  posy  ETV
vector 18397  IntersectionExampleScenario.node[77].veinsmobility  speed  ETV
vector 18398  IntersectionExampleScenario.node[77].veinsmobility  acceleration  ETV
vector 18399  IntersectionExampleScenario.node[77].veinsmobility  co2emission  ETV
18308	1960732 6375 14804 17453 213 261.25 194 0.973 11.00486315618 532.52836214 2532.5136505626
18307	1967107 6209 14804 17453 213 261.25 194 -8.2566823959351 4 34.097539901733 456.20656403938
18306	1973316 6262 14781 17453 212.75 261.25 195 0 14.75 2197.6443080902 29254.004022489
18305	1979578 6827 14758 17453 212.5 261.25 196 184.17810058594 486.85000610352 80150.094696045 34744497.322193
18304	1986405 6848 14758 17453 212.5 261.25 196 237.28540039062 486.85000610352 86456.856506348 39220354.63431
vector 18402  IntersectionExampleScenario.node[78].veinsmobility  posx  ETV
vector 18403  IntersectionExampleScenario.node[78].veinsmobility  posy  ETV
vector 18404  IntersectionExampleScenario.node[78].veinsmobility  speed  ETV
vector 18405  IntersectionExampleScenario.node[78].veinsmobility  acceleration  ETV
vector 18406  IntersectionExampleScenario.node[78].veinsmobility  co2emission  ETV
18350	1993654 4977 15777 17611 226.5 263.75 150 0.973 12.099024792222 538.05085137573 3327.9536019115
18349	1998631 4875 15777 17611 226.5 263.75 150 -2.9980506896973 2.5 41.057416915894 305.24941461851
18348	2003506 5012 15760 17611 226.25 263.75 151 5.6500000953674 16.27499961853 2082.5243902206 29818.642534237
18347	2008518 5298 15742 17611 226 263.75 152 216.078125 486.87673950195 62420.387573242 26949746.454897
18346	2013816 5305 15742 17611 226 263.75 152 235.845703125 486.85000610352 65830.043518066 29432243.581362
18336	2019121 5653 15637 17751 224.5 266 167 0.973 11.54047740176 551.61428759199 3083.8623374532
18335	2024774 5452 15637 17751 224.5 266 167 -4.5 2.5 37.32285118103 386.62858895185
18334	2030226 5645 15620 17751 224.25 266 168 5.6500000953674 15.5 2221.1247549057 30471.946811903
18333	2035871 5876 15603 17751 224 266 169 184.17810058594 733.9930267334 74226.838226318 37165316.259187
18332	2041747 5913 15603 17751 224 266 169 486.85000610352 486.85000610352 82277.651031494 40056874.906866
vector 18409  IntersectionExampleScenario.node[79].veinsmobility  posx  ETV
vector 18410  IntersectionExampleScenario.node[79].veinsmobility  posy  ETV
vector 18411  IntersectionExampleScenario.node[79].veinsmobility  speed  ETV
vector 18412  IntersectionExampleScenario.node[79].veinsmobility  acceleration  ETV
vector 18413  IntersectionExampleScenario.node[79].veinsmobility  co2emission  ETV
18343	2048061 5825 15691 17896 225.25 268.25 173 0.973 11.450879080643 531.91075674459 2635.0543404232
18342	2053886 5683 15691 17896 225.25 268.25 173 -3.1317558288574 2.5 38.511121749878 228.80029913545
18341	2059569 5816 15673 17896 225 268.25 174 5.6500000953674 15.375 2297.5081348419 31456.263252818
18340	2065385 6101 15654 17896 224.75 268.25 175 161.1796875 486.85000610352 67083.370880127 28049219.975433
18339	2071486 6108 15654 17896 224.75 268.25 175 237.16748046875 486.85000610352 76831.655426025 34723325.700539
vector 18416  IntersectionExampleScenario.node[80].veinsmobility  posx  ETV
vector 18417  IntersectionExampleScenario.node[80].veinsmobility  posy  ETV
vector 18418  IntersectionExampleScenario.node[80].veinsmobility  speed  ETV
vector 18419  IntersectionExampleScenario.node[80].veinsmobility  acceleration  ETV
vector 18420  IntersectionExampleScenario.node[80].veinsmobility  co2emission  ETV
vector 18423  IntersectionExampleScenario.node[81].veinsmobility  posx  ETV
vector 18424  IntersectionExampleScenario.node[81].veinsmobility  posy  ETV
vector 18425  IntersectionExampleScenario.node[81].veinsmobility  speed  ETV
vector 18426  IntersectionExampleScenario.node[81].veinsmobility  acceleration  ETV
vector 18427  IntersectionExampleScenario.node[81].veinsmobility  co2emission  ETV
vector 18430  IntersectionExampleScenario.node[82].veinsmobility  posx  ETV
vector 18431  IntersectionExampleScenario.node[82].veinsmobility  posy  ETV
vector 18432  IntersectionExampleScenario.node[82].veinsmobility  speed  ETV
vector 18433  IntersectionExampleScenario.node[82].veinsmobility  acceleration  ETV
vector 18434  IntersectionExampleScenario.node[82].veinsmobility  co2emission  ETV
18357	2078797 5376 16662 18903 241.5 281 159 0.973 11.810082123732 510.17914445071 2860.4367137133
18356	2084173 5058 16662 18903 241.5 281 159 -3.4376449584961 2.5 38.850629806519 284.11421588718
18355	2089231 5281 16651 18903 241.25 281 160 5.6500000953674 15.875 2192.1818733215 31419.819843193
18354	2094512 5625 16639 18903 241 281 161 486.85000610352 735.1961517334 86629.537796021 47552300.987776
18353	2100137 5626 16639 18903 241 281 161 486.85000610352 785.82187652588 92140.295082092 54471091.923718
vector 18437  IntersectionExampleScenario.node[83].veinsmobility  posx  ETV
vector 18438  IntersectionExampleScenario.node[83].veinsmobility  posy  ETV
vector 18439  IntersectionExampleScenario.node[83].veinsmobility  speed  ETV
vector 18440  IntersectionExampleScenario.node[83].veinsmobility  acceleration  ETV
vector 18441  IntersectionExampleScenario.node[83].veinsmobility  co2emission  ETV
18364	2106164 6140 16699 19523 242.25 289.5 190 0.94600815583079 12.26218747632 585.70568046719 3324.6872604919
18363	2112304 5713 16699 19523 242.25 289.5 190 -8.3547468185425 4 41.566686630249 518.06614665604
18362	2118017 5918 16686 19523 242 289.5 191 0 16.5 2173.0886220932 31877.590970881
18361	2123935 6715 16673 19523 241.75 289.5 192 486.63604736328 785.82187652588 107340.88265228 61869907.839902
18360	2130650 6646 16673 19523 241.75 289.5 192 238.05474853516 483.14999389648 85043.437164307 38613997.608159
18385	2137296 5341 17276 19840 258 296.75 156 0.973 11.54047740176 464.21906764276 2334.0371168052
18384	2142637 4795 17276 19840 258 296.75 156 -3.3398780822754 2.5 37.15309715271 186.64487440163
18383	2147432 5259 17265 19840 257.75 296.75 157 5.6500000953674 15.5 2213.6558599472 31783.541796294
18382	2152691 5523 17254 19840 257.5 296.75 158 237.51141357422 785.82187652588 82399.831138611 47156578.047039
18381	2158214 5531 17254 19840 257.5 296.75 158 483.14999389648 483.14999389648 76337.699035645 36882558.823143
18392	2163745 5540 17335 19924 259.25 299.5 162 0.973 11.450879080643 514.08959135297 2685.9891918878
18391	2169285 4917 17335 19924 259.25 299.5 162 -4.5 2.5 38.680875778198 252.4342988774
18390	2174202 5419 17322 19924 259 299.5 163 5.6500000953674 15.376667022705 2288.6991710663 33070.936770323
18389	2179621 5726 17309 19924 258.75 299.5 164 482.97247314453 807.09531402588 95241.653251648 57413081.327492
18388	2185347 5733 17309 19924 258.75 299.5 164 483.14999389648 732.75708007812 87572.87878418 47724793.823232
vector 18444  IntersectionExampleScenario.node[84].veinsmobility  posx  ETV
vector 18445  IntersectionExampleScenario.node[84].veinsmobility  posy  ETV
vector 18446  IntersectionExampleScenario.node[84].veinsmobility  speed  ETV
vector 18447  IntersectionExampleScenario.node[84].veinsmobility  acceleration  ETV
vector 18448  IntersectionExampleScenario.node[84].veinsmobility  co2emission  ETV
18406	2191481 5428 17577 20036 263.25 302.75 159 0.973 11.450879080643 484.85277543601 2508.3976827919
18405	2196909 4773 17577 20036 263.25 302.75 159 -3.1659812927246 2.5 37.492597579956 221.06141420256
18404	2201682 5314 17560 20036 263 302.75 160 5.6500000953674 15.375 2208.8621778488 31360.982922375
18403	2206996 5609 17543 20036 262.75 302.75 161 184.17810058594 486.85000610352 64113.211181641 27322070.548609
18402	2212605 5629 17543 20036 262.75 302.75 161 236.53900146484 486.85000610352 69843.347625732 31270410.38417
vector 18451  IntersectionExampleScenario.node[85].veinsmobility  posx  ETV
vector 18452  IntersectionExampleScenario.node[85].veinsmobility  posy  ETV
vector 18458  IntersectionExampleScenario.node[86].veinsmobility  posx  ETV
vector 18459  IntersectionExampleScenario.node[86].veinsmobility  posy  ETV
vector 18453  IntersectionExampleScenario.node[85].veinsmobility  speed  ETV
vector 18454  IntersectionExampleScenario.node[85].veinsmobility  acceleration  ETV
vector 18455  IntersectionExampleScenario.node[85].veinsmobility  co2emission  ETV
vector 18460  IntersectionExampleScenario.node[86].veinsmobility  speed  ETV
vector 18461  IntersectionExampleScenario.node[86].veinsmobility  acceleration  ETV
vector 18462  IntersectionExampleScenario.node[86].veinsmobility  co2emission  ETV
vector 18465  IntersectionExampleScenario.node[87].veinsmobility  posx  ETV
vector 18466  IntersectionExampleScenario.node[87].veinsmobility  posy  ETV
vector 18472  IntersectionExampleScenario.node[88].veinsmobility  posx  ETV
vector 18473  IntersectionExampleScenario.node[88].veinsmobility  posy  ETV
vector 18467  IntersectionExampleScenario.node[87].veinsmobility  speed  ETV
vector 18468  IntersectionExampleScenario.node[87].veinsmobility  acceleration  ETV
vector 18469  IntersectionExampleScenario.node[87].veinsmobility  co2emission  ETV
vector 18474  IntersectionExampleScenario.node[88].veinsmobility  speed  ETV
vector 18475  IntersectionExampleScenario.node[88].veinsmobility  acceleration  ETV
vector 18476  IntersectionExampleScenario.node[88].veinsmobility  co2emission  ETV
18371	2219838 6447 17155 20141 254.75 304.75 201 0.973 11.90022389248 583.48214814606 3100.8608039284
18370	2226285 6197 17155 20141 254.75 304.75 201 -8.8334865570068 4 39.869146347046 513.69686063673
18369	2232482 6234 17148 20141 254.5 304.75 202 0 16 2190.0077466965 31621.149474348
18368	2238716 7102 17141 20141 254.25 304.75 203 483.14999389648 735.15585327148 106412.88720703 56839368.668903
18367	2245818 7083 17141 20141 254.25 304.75 203 184.17810058594 486.85000610352 84147.755310059 36825458.07512
18378	2252901 6482 17173 20171 255.25 305.25 201 0.973 11.648172402475 575.83048966816 2950.8244003495
18377	2259383 5852 17173 20171 255.25 305.25 201 -6.8117866516113 4 38.850629806519 469.91515502781
18376	2265235 6299 17164 20171 255 305.25 202 0 15.64999961853 2207.1536474228 31385.929364603
18375	2271534 7101 17155 20171 254.75 305.25 203 235.67944335938 486.85000610352 90413.590484619 41328297.410293
18374	2278635 7097 17155 20171 254.75 305.25 203 483.14999389648 785.82187652588 112858.7975235 64697696.719913
18399	2285732 6265 17378 20289 260 307.5 191 0.973 11.648172402475 562.41670962863 2917.9021022415
18398	2291997 6304 17378 20289 260 307.5 191 -4.122314453125 2.5 39.699392318726 381.86203644941
18397	2298301 6503 17363 20289 259.75 307.5 192 0 15.64999961853 2205.514421273 30865.783537561
18396	2304804 6744 17348 20289 259.5 307.5 193 236.96032714844 486.85000610352 85726.518951416 39095630.964673
18395	2311548 6750 17348 20289 259.5 307.5 193 482.96398925781 785.82187652588 108171.66443634 62502029.48099
vector 18479  IntersectionExampleScenario.node[89].veinsmobility  posx  ETV
vector 18480  IntersectionExampleScenario.node[89].veinsmobility  posy  ETV
vector 18481  IntersectionExampleScenario.node[89].veinsmobility  speed  ETV
vector 18482  IntersectionExampleScenario.node[89].veinsmobility  acceleration  ETV
vector 18483  IntersectionExampleScenario.node[89].veinsmobility  co2emission  ETV
18420	2318699 5409 18036 20462 270.25 310.75 163 0.973 11.810082123732 577.16333944174 3667.0892720483
18419	2324108 5172 18036 20462 270.25 310.75 163 -3.5010871887207 2.5 39.529638290405 388.68704089063
18418	2329280 5407 18017 20462 270 310.75 164 5.6500000953674 15.875 2188.0533685684 30679.646148755
18417	2334687 5764 17998 20462 269.75 310.75 165 486.85000610352 734.36514282227 88450.500289917 48349902.205548
18416	2340451 5769 17998 20462 269.75 310.75 165 486.85000610352 785.82187652588 94415.9477005 55759409.887342
vector 18486  IntersectionExampleScenario.node[90].veinsmobility  posx  ETV
vector 18487  IntersectionExampleScenario.node[90].veinsmobility  posy  ETV
vector 18488  IntersectionExampleScenario.node[90].veinsmobility  speed  ETV
vector 18489  IntersectionExampleScenario.node[90].veinsmobility  acceleration  ETV
vector 18490  IntersectionExampleScenario.node[90].veinsmobility  co2emission  ETV
18434	2346621 5097 18465 20609 275.75 313 150 0.95858896007212 11.990504229548 489.65860350354 2799.8269001912
18433	2351718 5008 18465 20609 275.75 313 150 -3.356071472168 2.5 40.548154830933 216.01385154215
18432	2356726 5042 18444 20609 275.5 313 151 5.6500000953674 16.337337493896 2217.4212112427 33324.561415273
[...]
21118	14452531 7609 114074 118207 1708 1759.75 208 486.85000610352 734.55892944336 109203.72428894 58336763.9145
21129	14460140 7021 114280 118409 1712.25 1762.5 202 0.973 11.250137737878 563.36289296427 2716.3634658604
21128	14467161 6710 114280 118409 1712.25 1762.5 202 -8.4870567321777 4 37.15309715271 475.90348695695
21127	14473871 7117 114267 118409 1712 1762.5 203 0 15.094267845154 2203.2145664543 30465.744317636
21126	14480988 7537 114254 118409 1711.75 1762.5 204 482.99185180664 785.82187652588 113545.55431366 65173645.41437
21125	14488525 7539 114254 118409 1711.75 1762.5 204 483.14999389648 734.25428771973 107223.33699036 57435719.846305
21136	14496064 6882 114375 118474 1714 1763.5 199 0.96292093515819 12.334436571055 623.47965722968 3230.2797548114
21135	14502946 6832 114375 118474 1714 1763.5 199 -4.5 2.5000038146973 43.79762840271 481.44080779777
21134	14509778 6968 114360 118474 1713.75 1763.5 200 0 16.599407196045 2269.4573117271 32656.786230962
21133	14516746 7418 114345 118474 1713.5 1763.5 201 483.11016845703 805.05782318115 113436.06572723 66255229.602941
21132	14524164 7431 114345 118474 1713.5 1763.5 201 483.14999389648 731.98374938965 105349.28483582 56251042.327539
21157	14531595 5902 114892 118489 1722.25 1763.75 167 0.973 11.450879080643 541.35867195539 3119.8390901676
21156	14537497 5662 114892 118489 1722.25 1763.75 167 -3.7111778259277 2.5 36.98334312439 324.10485074995
21155	14543159 5929 114869 118489 1722 1763.75 168 5.6500000953674 15.375 2211.7946434021 30164.959339083
21154	14549088 6219 114848 118489 1721.75 1763.75 169 184.17810058594 487.06326293945 67465.608276367 28735253.20205
21153	14555307 6249 114848 118489 1721.75 1763.75 169 235.20989990234 486.85000610352 73584.423553467 33051325.236826
vector 21237  IntersectionExampleScenario.node[483].veinsmobility  posx  ETV
vector 21238  IntersectionExampleScenario.node[483].veinsmobility  posy  ETV
vector 21239  IntersectionExampleScenario.node[483].veinsmobility  speed  ETV
21164	14561791 5883 114915 118565 1722.5 1765 171 0.973 12.099024792222 556.93483736894 3233.8882656452
21163	14567674 5890 114915 118565 1722.5 1765 171 -2.319408416748 2.5 42.585195541382 303.73816692354
21162	14573564 6125 114892 118565 1722.25 1765 172 4.9076337814331 16.348478317261 2204.9808592796 30923.310035239
21161	14579689 6386 114869 118565 1722 1765 173 483.02081298828 785.82187652588 98358.446434021 57673445.809314
21160	14586075 6380 114869 118565 1722 1765 173 483.14999389648 733.30278015137 91487.410675049 49334659.646015
vector 21240  IntersectionExampleScenario.node[483].veinsmobility  acceleration  ETV
vector 21241  IntersectionExampleScenario.node[483].veinsmobility  co2emission  ETV
vector 21244  IntersectionExampleScenario.node[484].veinsmobility  posx  ETV
vector 21245  IntersectionExampleScenario.node[484].veinsmobility  posy  ETV
21171	14592782 5947 115080 118595 1724.25 1765.5 166 0.973 11.54047740176 523.22399985523 2924.0388641209
21170	14598729 5676 115080 118595 1724.25 1765.5 166 -4.5 2.5 36.98334312439 287.24935180584
21169	14604405 5901 115055 118595 1724 1765.5 167 5.6500000953674 15.5 2286.7772350311 31943.029868737
21168	14610306 6159 115030 118595 1723.75 1765.5 168 166.078125 732.40231323242 73729.561691284 36967822.147745
21167	14616465 6216 115030 118595 1723.75 1765.5 168 486.85000610352 486.85000610352 81790.801025391 39819851.978423
vector 21246  IntersectionExampleScenario.node[484].veinsmobility  speed  ETV
vector 21247  IntersectionExampleScenario.node[484].veinsmobility  acceleration  ETV
vector 21248  IntersectionExampleScenario.node[484].veinsmobility  co2emission  ETV
21185	14622931 5653 115472 118762 1728 1768 161 0.973 11.54047740176 521.67550165114 3129.5356295279
21184	14628584 5568 115472 118762 1728 1768 161 -2.9737892150879 2.5 37.32285118103 270.53387309597
21183	14634152 5742 115445 118762 1727.75 1768 162 5.6500000953674 15.5 2218.2155818939 31015.564741309
21182	14639894 6011 115418 118762 1727.5 1768 163 236.49169921875 785.82187652588 85221.261039734 48773818.775158
21181	14645905 6030 115418 118762 1727.5 1768 163 483.14999389648 483.14999389648 78753.449005127 38049728.406154
vector 21251  IntersectionExampleScenario.node[485].veinsmobility  posx  ETV
vector 21252  IntersectionExampleScenario.node[485].veinsmobility  posy  ETV
vector 21253  IntersectionExampleScenario.node[485].veinsmobility  speed  ETV
vector 21254  IntersectionExampleScenario.node[485].veinsmobility  acceleration  ETV
vector 21255  IntersectionExampleScenario.node[485].veinsmobility  co2emission  ETV
vector 21258  IntersectionExampleScenario.node[486].veinsmobility  posx  ETV
vector 21259  IntersectionExampleScenario.node[486].veinsmobility  posy  ETV
vector 21260  IntersectionExampleScenario.node[486].veinsmobility  speed  ETV
vector 21261  IntersectionExampleScenario.node[486].veinsmobility  acceleration  ETV
vector 21262  IntersectionExampleScenario.node[486].veinsmobility  co2emission  ETV
vector 21265  IntersectionExampleScenario.node[487].veinsmobility  posx  ETV
vector 21266  IntersectionExampleScenario.node[487].veinsmobility  posy  ETV
vector 21267  IntersectionExampleScenario.node[487].veinsmobility  speed  ETV
vector 21272  IntersectionExampleScenario.node[488].veinsmobility  posx  ETV
vector 21273  IntersectionExampleScenario.node[488].veinsmobility  posy  ETV
vector 21268  IntersectionExampleScenario.node[487].veinsmobility  acceleration  ETV
vector 21269  IntersectionExampleScenario.node[487].veinsmobility  co2emission  ETV
vector 21274  IntersectionExampleScenario.node[488].veinsmobility  speed  ETV
vector 21275  IntersectionExampleScenario.node[488].veinsmobility  acceleration  ETV
vector 21276  IntersectionExampleScenario.node[488].veinsmobility  co2emission  ETV
21150	14653559 7083 114848 119199 1721.75 1774.25 211 0.973 12.353032912318 617.8714286916 3405.6440361047
21149	14660642 6388 114848 119199 1721.75 1774.25 211 -31.678928375244 4 42.245687484741 1405.9848954161
21148	14667030 6728 114829 119199 1721.5 1774.25 212 0 16.625 2191.5931930542 33053.534527342
21147	14673758 7868 114810 119199 1721.25 1774.25 213 483.14999389648 734.76062011719 110932.4309845 58816211.346633
21146	14681626 7852 114810 119199 1721.25 1774.25 213 184.17810058594 486.85000610352 89146.398376465 39271009.468559
vector 21279  IntersectionExampleScenario.node[489].veinsmobility  posx  ETV
vector 21280  IntersectionExampleScenario.node[489].veinsmobility  posy  ETV
vector 21281  IntersectionExampleScenario.node[489].veinsmobility  speed  ETV
vector 21282  IntersectionExampleScenario.node[489].veinsmobility  acceleration  ETV
vector 21283  IntersectionExampleScenario.node[489].veinsmobility  co2emission  ETV
21178	14689884 7666 115134 119536 1724.75 1778.5 216 0.973 11.990504229548 617.54259954425 3098.6201795179
21177	14697550 7535 115134 119536 1724.75 1778.5 216 -4.5 2.5 41.227170944214 465.70940948405
21176	14705085 7853 115107 119536 1724.5 1778.5 217 0 16.125 2272.2326635178 33061.824682803
21175	14712938 8067 115080 119536 1724.25 1778.5 218 486.85000610352 486.85000610352 106133.30133057 51670998.400572
21174	14721005 8043 115080 119536 1724.25 1778.5 218 235.70391845703 798.59687805176 113846.1443634 63803986.542407
21143	14729048 7705 114848 119557 1721.75 1778.75 229 0.973 11.200708441096 579.83782333381 2683.1306773873
21142	14736753 6961 114848 119557 1721.75 1778.75 229 -7.0837659835815 4 35.795072555542 487.76323165987
21141	14743714 7427 114829 119557 1721.5 1778.75 230 0 15.02499961853 2184.5168821812 29717.091755296
21140	14751141 8529 114810 119557 1721.25 1778.75 231 486.85000610352 734.37998962402 121067.19520569 64548244.20866
21139	14759670 8536 114810 119557 1721.25 1778.75 231 486.75677490234 785.82187652588 127417.53992462 72314271.108787
21192	14768206 6158 116201 119697 1736 1780.5 179 0.973 12.099024792222 560.68622733001 3201.3160467566
21191	14774364 6048 116201 119697 1736 1780.5 179 -2.3120346069336 2.5 41.057416915894 322.53587845342
21190	14780412 6357 116176 119697 1735.75 1780.5 180 3.2767655849457 16.27499961853 2208.2468314171 30324.246739289
21189	14786769 6677 116153 119697 1735.5 1780.5 181 237.25762939453 486.85000610352 80074.484680176 36403285.656763
21188	14793446 6683 116153 119697 1735.5 1780.5 181 483.12310791016 785.82187652588 102614.85393524 59953565.718312
vector 21286  IntersectionExampleScenario.node[490].veinsmobility  posx  ETV
vector 21287  IntersectionExampleScenario.node[490].veinsmobility  posy  ETV
vector 21288  IntersectionExampleScenario.node[490].veinsmobility  speed  ETV
vector 21289  IntersectionExampleScenario.node[490].veinsmobility  acceleration  ETV
vector 21290  IntersectionExampleScenario.node[490].veinsmobility  co2emission  ETV
21206	14800535 6116 116756 120007 1741.5 1784.5 173 0.973 11.200708441096 510.81166142479 2703.4898442275
21205	14806651 5869 116756 120007 1741.5 1784.5 173 -4.1676940917969 2.5 35.964826583862 272.59297920106
21204	14812520 6163 116729 120007 1741.25 1784.5 174 5.6500000953674 15.02499961853 2209.4124851227 29100.73708927
21203	14818683 6466 116702 120007 1741 1784.5 175 235.31414794922 486.85000610352 76364.805511475 34359630.630339
21202	14825149 6470 116702 120007 1741 1784.5 175 482.97357177734 785.82187652588 99966.837471008 58923853.905208
vector 21293  IntersectionExampleScenario.node[491].veinsmobility  posx  ETV
vector 21294  IntersectionExampleScenario.node[491].veinsmobility  posy  ETV
vector 21295  IntersectionExampleScenario.node[491].veinsmobility  speed  ETV
vector 21296  IntersectionExampleScenario.node[491].veinsmobility  acceleration  ETV
vector 21297  IntersectionExampleScenario.node[491].veinsmobility  co2emission  ETV
vector 21300  IntersectionExampleScenario.node[492].veinsmobility  posx  ETV
vector 21301  IntersectionExampleScenario.node[492].veinsmobility  posy  ETV
vector 21302  IntersectionExampleScenario.node[492].veinsmobility  speed  ETV
vector 21303  IntersectionExampleScenario.node[492].veinsmobility  acceleration  ETV
vector 21304  IntersectionExampleScenario.node[492].veinsmobility  co2emission  ETV
21199	14832431 7459 116226 120554 1736.25 1790.75 219 0.973 11.200708441096 574.85124918216 2719.8498751167
21198	14839890 6633 116226 120554 1736.25 1790.75 219 -9.5515632629395 4 35.964826583862 557.27997329887
21197	14846523 7193 116201 120554 1736 1790.75 220 0 15.02499961853 2207.5903263092 30487.803634204
21196	14853716 8166 116176 120554 1735.75 1790.75 221 237.70941162109 785.82187652588 113770.76598358 62830532.55298
21195	14861882 8178 116176 120554 1735.75 1790.75 221 483.14999389648 483.14999389648 106776.14865112 51588895.56908
vector 21307  IntersectionExampleScenario.node[493].veinsmobility  posx  ETV
vector 21308  IntersectionExampleScenario.node[493].veinsmobility  posy  ETV
21213	14870216 5933 117574 120617 1750.5 1791.5 165 0.973 11.200708441096 492.4497501979 2489.4444874419
21212	14876149 5358 117574 120617 1750.5 1791.5 165 -3.6501903533936 2.5 35.795072555542 259.39060442923
21211	14881507 5835 117557 120617 1750.25 1791.5 166 5.6500000953674 15.02499961853 2178.8989214897 29758.900715756
21210	14887342 6156 117540 120617 1750 1791.5 167 184.17810058594 483.16534423828 66462.729522705 28231308.700302
21209	14893498 6166 117540 120617 1750 1791.5 167 486.85000610352 732.22444152832 89767.18031311 49204704.549845
vector 21309  IntersectionExampleScenario.node[493].veinsmobility  speed  ETV
vector 21310  IntersectionExampleScenario.node[493].veinsmobility  acceleration  ETV
vector 21311  IntersectionExampleScenario.node[493].veinsmobility  co2emission  ETV
21227	14899914 5638 117997 120987 1757 1795.75 156 0.973 11.450879080643 491.84523655006 2561.5988778119
21226	14905552 5404 117997 120987 1757 1795.75 156 -4.2566909790039 2.5 38.680875778198 238.59438941084
21225	14910956 5528 117978 120987 1756.75 1795.75 157 5.6500000953674 15.390761375427 2202.7025022507 31830.71410943
21224	14916484 5799 117959 120987 1756.5 1795.75 158 184.17810058594 487.01699829102 62827.512359619 26751247.35253
21223	14922283 5837 117959 120987 1756.5 1795.75 158 237.20062255859 486.85000610352 68583.484405518 30717098.879443
vector 21314  IntersectionExampleScenario.node[494].veinsmobility  posx  ETV
vector 21315  IntersectionExampleScenario.node[494].veinsmobility  posy  ETV
vector 21316  IntersectionExampleScenario.node[494].veinsmobility  speed  ETV
21220	14928355 6136 117874 121313 1755.25 1800 180 0.973 11.200708441096 507.7540317463 2594.0893934878
21219	14934491 5945 117874 121313 1755.25 1800 180 -8.6810245513916 4 36.134572982788 471.49787660457
21218	14940436 5995 117857 121313 1755 1800 181 0 15.02499961853 1870.4751291275 25382.998459241
21217	14946431 6733 117840 121313 1754.75 1800 182 486.85000610352 486.85000610352 88606.70111084 43138172.976625
21216	14953164 6715 117840 121313 1754.75 1800 182 321.55035400391 785.82187652588 99409.064002991 57070219.84369
21234	14959879 5736 118169 121313 1759.25 1800 164 0.973 12.353032912318 537.24567347253 3073.2452742701
21233	14965615 5700 118169 121313 1759.25 1800 164 -4.5 2.5000000298023 42.416265487671 460.99935093269
21232	14971315 5850 118150 121313 1759 1800 165 0 16.625 1857.7845554389 26515.823710181
21231	14977165 6126 118130 121313 1758.75 1800 166 330.69586181641 486.85000610352 77648.015838623 36586398.954492
21230	14983291 6133 118130 121313 1758.75 1800 166 482.94769287109 792.02188110352 95332.230895996 56537832.146313
21241	14989424 4523 118580 121313 1765.25 1800 140 0.973 11.200708441096 308.6270172923 1367.3569724603
21240	14993947 4074 118580 121313 1765.25 1800 140 -31.34676361084 2.5 -22.60000038147 1185.081793876
21239	14998021 4409 118565 121313 1765 1800 141 0 15.02499961853 1149.1992444992 15979.054119167
21238	15002430 5246 118549 121313 1764.75 1800 142 498.39999389648 785.82187652588 83901.356819153 51034859.961281
21237	15007676 5253 118549 121313 1764.75 1800 142 483.14999389648 483.14999389648 68607.299133301 33147616.157508
21248	15012929 4463 118629 121313 1766 1800 137 0.973 11.200708441096 329.643841553 1486.027053212
21247	15017392 4146 118629 121313 1766 1800 137 -12.309928894043 6.1549644470215 -22.60000038147 530.78953838884
21246	15021538 4447 118612 121313 1765.75 1800 138 -1.5387411117554 15.672533988953 1222.2277097702 17711.898131449
21245	15025985 5115 118595 121313 1765.5 1800 139 502.5 808.82032012939 84103.810935974 52532199.540538
21244	15031100 5142 118595 121313 1765.5 1800 139 483.14999389648 483.14999389648 67157.849151611 32447314.407702
21255	15036242 4203 118946 121313 1771 1800 117 0.973 11.990504229548 404.68499308519 2447.012280695
21254	15040445 3725 118946 121313 1771 1800 117 -3.2447547912598 2.5 39.877767562866 201.41921655037
21253	15044170 4116 118929 121313 1770.75 1800 118 5.6500000953674 16.125 1681.209569931 24628.279862154
21252	15048286 4402 118912 121313 1770.5 1800 119 483.14999389648 483.14999389648 57494.849273682 27778636.075658
21251	15052688 4356 118912 121313 1770.5 1800 119 184.17810058594 599.18960571289 45741.747039795 19455584.069107
21262	15057044 3578 119035 121313 1772.25 1800 112 0.97223939240464 11.648172402475 271.18477326075 1414.543291867
21261	15060622 4194 119035 121313 1772.25 1800 112 -3.7018985748291 2.5 -22.60000038147 201.21525747431
21260	15064816 4142 119016 121313 1772 1800 113 0 15.64999961853 1100.0762753487 14062.982955701
21259	15068958 4211 118997 121313 1771.75 1800 114 510.5944519043 785.82187652588 70466.420478821 44567082.398264
21258	15073169 4217 118997 121313 1771.75 1800 114 483.14999389648 483.14999389648 55079.099304199 26611466.492648
21269	15077386 3572 119153 121313 1773.75 1800 106 0.973 11.200708441096 263.86962112491 1295.5973331065
21268	15080958 3966 119153 121313 1773.75 1800 106 -4.5 2.5 -10.262064933777 214.74457510791
21267	15084924 3940 119132 121313 1773.5 1800 107 3.0844838619232 15.02499961853 1106.8955745697 13741.726147129
21266	15088864 3970 119111 121313 1773.25 1800 108 530.04577636719 806.11563110352 69872.93800354 46125572.64088
21265	15092834 3996 119111 121313 1773.25 1800 108 483.14999389648 483.14999389648 52180.19934082 25210862.993035
21276	15096830 3744 119199 121313 1774.25 1800 104 0.973 11.990504229548 386.39909368425 2450.5595294227
21275	15100574 3397 119199 121313 1774.25 1800 104 -3.0407867431641 2.5 41.516302108765 203.05394824766
21274	15103971 3648 119176 121313 1774 1800 105 5.6500000953674 16.185134887695 1502.165596962 22205.20787974
21273	15107619 3921 119153 121313 1773.75 1800 106 483.14999389648 483.14999389648 51213.899353027 24743995.15983
21272	15111540 3880 119153 121313 1773.75 1800 106 172.9296875 543.01586914062 37403.028930664 14593135.112619
21283	15115420 3265 119452 121313 1777.5 1800 91 0.973 12.099024792222 318.90312077002 1891.6897285484
21282	15118685 2920 119452 121313 1777.5 1800 91 -3.2282485961914 2.5 29.39999961853 182.35934315986
21281	15121605 3201 119431 121313 1777.25 1800 92 5.6500000953674 16.27499961853 1303.7674207687 19174.265860699
21280	15124806 3439 119410 121313 1777 1800 93 486.85000610352 486.85000610352 45277.050567627 22043132.345198
21279	15128245 3437 119410 121313 1777 1800 93 464.05932617188 785.82187652588 58516.189323425 37788388.949019
21290	15131682 2112 119986 121313 1784.25 1800 64 0.97223939240464 11.648172402475 202.52556826146 1298.6617266992
21289	15133794 2226 119986 121313 1784.25 1800 64 -2.0553359985352 2.5 12.201932907104 136.71636893513
21288	15136020 2386 119965 121313 1784 1800 65 5.6500000953674 15.64999961853 827.49212837219 11013.21121838
21287	15138406 2438 119944 121313 1783.75 1800 66 581.73190307617 785.82187652588 45325.544929504 31413018.265778
21286	15140844 2441 119944 121313 1783.75 1800 66 483.14999389648 483.14999389648 31887.899597168 15406638.495743
21297	15143285 1845 120284 121313 1787.75 1800 50 1.2079002964199 12.099024792222 216.74857530255 1487.4065326954
21296	15145130 1778 120284 121313 1787.75 1800 50 -0.27577209472656 2.5 41.397001266479 106.42381781742
21295	15146908 1871 120261 121313 1787.5 1800 51 5.6500000953674 16.27499961853 726.1268081665 10826.187541375
21294	15148779 1924 120238 121313 1787.25 1800 52 483.14999389648 483.14999389648 25123.799682617 12138563.663313
21293	15150703 1898 120238 121313 1787.25 1800 52 184.17810058594 360.40121459961 13611.442779541 3722726.9810091
21304	15152601 1466 120511 121313 1790.25 1800 40 0.973 11.648172402475 181.237955809 1283.5008763393
21303	15154067 1378 120511 121313 1790.25 1800 40 -0.37222290039062 2.5 38.512609481812 100.31667351441
21302	15155445 1503 120488 121313 1790 1800 41 5.6500000953674 15.64999961853 548.83222484589 7723.6740132305
21301	15156948 1553 120465 121313 1789.75 1800 42 483.14999389648 483.14999389648 20292.299743652 9804224.4972913
21300	15158501 1537 120465 121313 1789.75 1800 42 168.58435058594 300.68267822266 9483.2201538086 2214489.9958771
21311	15160038 1213 120663 121313 1792 1800 33 1.868636389506 11.200708441096 160.28517877134 1132.1490895155
21310	15161251 1115 120663 121313 1792 1800 33 -0.075588226318359 2.5 37.248586654663 93.760187229262
21309	15162366 1247 120640 121313 1791.75 1800 34 5.6500000953674 15.02499961853 435.16609287262 5885.6230036851
21308	15163613 1293 120617 121313 1791.5 1800 35 682.01780700684 785.82187652588 25960.821891785 19293990.413519
21307	15164906 1294 120617 121313 1791.5 1800 35 483.14999389648 483.14999389648 16910.249786377 8170187.0810761
21316	15166200 35 121313 121313 1800 1800 1 5.6500000953674 5.6500000953674 5.6500000953674 31.922501077652
21315	15166235 73 121293 121313 1799.75 1800 2 486.85000610352 486.85000610352 973.70001220703 474045.85688599
21314	15166308 73 121293 121313 1799.75 1800 2 785.82187652588 785.82187652588 1571.6437530518 1235032.0432533
17852	15166381 621 0 121312 0 1800 31 0 20 362 4732
17853	15167002 635 0 121312 0 1800 31 0 131 2050 181876
