file 15248440 1591482305                                        
version 2
run nodebug-6-20200606-18:22:37-22420
attr configname nodebug
attr datetime 20200606-18:22:37
attr experiment nodebug
attr inifile omnetpp.ini
attr iterationvars ""
attr iterationvars2 $repetition=6
attr measurement ""
attr network "\"org.car2x.veins.modules.application.ExtTraCIScenarioManagerLaunchd.IntersectionExampleScenario\""
attr processid 22420
attr repetition 6
attr replication #6
attr resultdir results
attr runnumber 6
attr seedset 6
param **.coreDebug false
param **.debug false
param *.**.nic.mac1609_4.bitrate 18Mbps
param *.**.nic.mac1609_4.txPower 20mW
param *.**.nic.mac1609_4.useServiceChannel false
param *.**.nic.phy80211p.analogueModels "xmldoc(\"config.xml\")"
param *.**.nic.phy80211p.decider "xmldoc(\"config.xml\")"
param *.**.nic.phy80211p.sensitivity -89dBm
param *.**.nic.phy80211p.thermalNoise -110dBm
param *.**.nic.phy80211p.usePropagationDelay true
param *.**.nic.phy80211p.useThermalNoise true
param *.annotations.draw false
param *.connectionManager.alpha 2.0
param *.connectionManager.carrierFrequency "5.890e9 Hz"
param *.connectionManager.pMax 20mW
param *.connectionManager.sat -89dBm
param *.connectionManager.sendDirect true
param *.manager.autoShutdown true
param *.manager.host "\"localhost\""
param *.manager.launchConfig "xmldoc(\"paramics.launchd.xml\")"
param *.manager.margin 25
param *.manager.moduleDisplayString "\"\""
param *.manager.moduleName "\"node\""
param *.manager.moduleType "\"org.car2x.veins.nodes.Car\""
param *.manager.port 9999
param *.manager.updateInterval 250ms
param *.node[*0].veinsmobility.accidentCount 0
param *.node[*0].veinsmobility.accidentDuration 30s
param *.node[*0].veinsmobility.accidentStart 75s
param *.node[*].appl.LiderSelectZoneRadio 55.0
param *.node[*].appl.ShareDataZoneRadio 110.0
param *.node[*].appl.TiempoSemaforo 30.0
param *.node[*].appl.beaconInterval 1s
param *.node[*].appl.beaconPriority 3
param *.node[*].appl.dataOnSch false
param *.node[*].appl.dataPriority 2
param *.node[*].appl.debug false
param *.node[*].appl.headerLength "256 bit"
param *.node[*].appl.maxOffset 0.005s
param *.node[*].appl.sendBeacons false
param *.node[*].appl.sendData true
param *.node[*].applType "\"Dummy\""
param *.node[*].mobilityType "\"TraCIMobility\""
param *.node[*].mobilityType.debug true
param *.node[*].veinsmobility.x 0
param *.node[*].veinsmobility.y 0
param *.node[*].veinsmobility.z 1.895
param *.node[*].veinsmobilityType "\"org.car2x.veins.modules.mobility.traci.TraCIMobility\""
param *.node[*].veinsmobilityType.debug true
param *.playgroundSizeX 8500m
param *.playgroundSizeY 8500m
param *.playgroundSizeZ 50m
param *.world.use2D false
param *.world.useTorus false

vector 7082  IntersectionExampleScenario.manager  vehiclesinsim  ETV
attr type  int
vector 7083  IntersectionExampleScenario.manager  realtime  ETV
attr type  int
attr unit  s
vector 7086  IntersectionExampleScenario.node[0].veinsmobility  posx  ETV
vector 7087  IntersectionExampleScenario.node[0].veinsmobility  posy  ETV
vector 7088  IntersectionExampleScenario.node[0].veinsmobility  speed  ETV
vector 7089  IntersectionExampleScenario.node[0].veinsmobility  acceleration  ETV
vector 7090  IntersectionExampleScenario.node[0].veinsmobility  co2emission  ETV
vector 7093  IntersectionExampleScenario.node[1].veinsmobility  posx  ETV
vector 7094  IntersectionExampleScenario.node[1].veinsmobility  posy  ETV
vector 7095  IntersectionExampleScenario.node[1].veinsmobility  speed  ETV
vector 7100  IntersectionExampleScenario.node[2].veinsmobility  posx  ETV
vector 7101  IntersectionExampleScenario.node[2].veinsmobility  posy  ETV
vector 7096  IntersectionExampleScenario.node[1].veinsmobility  acceleration  ETV
vector 7097  IntersectionExampleScenario.node[1].veinsmobility  co2emission  ETV
vector 7107  IntersectionExampleScenario.node[3].veinsmobility  posx  ETV
vector 7108  IntersectionExampleScenario.node[3].veinsmobility  posy  ETV
vector 7102  IntersectionExampleScenario.node[2].veinsmobility  speed  ETV
vector 7114  IntersectionExampleScenario.node[4].veinsmobility  posx  ETV
vector 7115  IntersectionExampleScenario.node[4].veinsmobility  posy  ETV
vector 7103  IntersectionExampleScenario.node[2].veinsmobility  acceleration  ETV
vector 7104  IntersectionExampleScenario.node[2].veinsmobility  co2emission  ETV
vector 7109  IntersectionExampleScenario.node[3].veinsmobility  speed  ETV
vector 7110  IntersectionExampleScenario.node[3].veinsmobility  acceleration  ETV
vector 7111  IntersectionExampleScenario.node[3].veinsmobility  co2emission  ETV
vector 7116  IntersectionExampleScenario.node[4].veinsmobility  speed  ETV
vector 7117  IntersectionExampleScenario.node[4].veinsmobility  acceleration  ETV
vector 7118  IntersectionExampleScenario.node[4].veinsmobility  co2emission  ETV
vector 7121  IntersectionExampleScenario.node[5].veinsmobility  posx  ETV
vector 7122  IntersectionExampleScenario.node[5].veinsmobility  posy  ETV
vector 7128  IntersectionExampleScenario.node[6].veinsmobility  posx  ETV
vector 7129  IntersectionExampleScenario.node[6].veinsmobility  posy  ETV
vector 7123  IntersectionExampleScenario.node[5].veinsmobility  speed  ETV
vector 7130  IntersectionExampleScenario.node[6].veinsmobility  speed  ETV
vector 7124  IntersectionExampleScenario.node[5].veinsmobility  acceleration  ETV
vector 7125  IntersectionExampleScenario.node[5].veinsmobility  co2emission  ETV
vector 7131  IntersectionExampleScenario.node[6].veinsmobility  acceleration  ETV
vector 7132  IntersectionExampleScenario.node[6].veinsmobility  co2emission  ETV
vector 7135  IntersectionExampleScenario.node[7].veinsmobility  posx  ETV
vector 7136  IntersectionExampleScenario.node[7].veinsmobility  posy  ETV
vector 7137  IntersectionExampleScenario.node[7].veinsmobility  speed  ETV
vector 7138  IntersectionExampleScenario.node[7].veinsmobility  acceleration  ETV
vector 7139  IntersectionExampleScenario.node[7].veinsmobility  co2emission  ETV
vector 7142  IntersectionExampleScenario.node[8].veinsmobility  posx  ETV
vector 7143  IntersectionExampleScenario.node[8].veinsmobility  posy  ETV
vector 7144  IntersectionExampleScenario.node[8].veinsmobility  speed  ETV
vector 7145  IntersectionExampleScenario.node[8].veinsmobility  acceleration  ETV
vector 7146  IntersectionExampleScenario.node[8].veinsmobility  co2emission  ETV
vector 7149  IntersectionExampleScenario.node[9].veinsmobility  posx  ETV
vector 7150  IntersectionExampleScenario.node[9].veinsmobility  posy  ETV
vector 7151  IntersectionExampleScenario.node[9].veinsmobility  speed  ETV
vector 7152  IntersectionExampleScenario.node[9].veinsmobility  acceleration  ETV
vector 7153  IntersectionExampleScenario.node[9].veinsmobility  co2emission  ETV
vector 7156  IntersectionExampleScenario.node[10].veinsmobility  posx  ETV
vector 7157  IntersectionExampleScenario.node[10].veinsmobility  posy  ETV
vector 7158  IntersectionExampleScenario.node[10].veinsmobility  speed  ETV
vector 7159  IntersectionExampleScenario.node[10].veinsmobility  acceleration  ETV
vector 7160  IntersectionExampleScenario.node[10].veinsmobility  co2emission  ETV
vector 7163  IntersectionExampleScenario.node[11].veinsmobility  posx  ETV
vector 7164  IntersectionExampleScenario.node[11].veinsmobility  posy  ETV
vector 7165  IntersectionExampleScenario.node[11].veinsmobility  speed  ETV
vector 7166  IntersectionExampleScenario.node[11].veinsmobility  acceleration  ETV
vector 7167  IntersectionExampleScenario.node[11].veinsmobility  co2emission  ETV
vector 7170  IntersectionExampleScenario.node[12].veinsmobility  posx  ETV
vector 7171  IntersectionExampleScenario.node[12].veinsmobility  posy  ETV
vector 7172  IntersectionExampleScenario.node[12].veinsmobility  speed  ETV
vector 7173  IntersectionExampleScenario.node[12].veinsmobility  acceleration  ETV
vector 7174  IntersectionExampleScenario.node[12].veinsmobility  co2emission  ETV
vector 7177  IntersectionExampleScenario.node[13].veinsmobility  posx  ETV
vector 7178  IntersectionExampleScenario.node[13].veinsmobility  posy  ETV
vector 7179  IntersectionExampleScenario.node[13].veinsmobility  speed  ETV
vector 7184  IntersectionExampleScenario.node[14].veinsmobility  posx  ETV
vector 7185  IntersectionExampleScenario.node[14].veinsmobility  posy  ETV
vector 7180  IntersectionExampleScenario.node[13].veinsmobility  acceleration  ETV
vector 7181  IntersectionExampleScenario.node[13].veinsmobility  co2emission  ETV
vector 7186  IntersectionExampleScenario.node[14].veinsmobility  speed  ETV
vector 7187  IntersectionExampleScenario.node[14].veinsmobility  acceleration  ETV
vector 7188  IntersectionExampleScenario.node[14].veinsmobility  co2emission  ETV
vector 7191  IntersectionExampleScenario.node[15].veinsmobility  posx  ETV
vector 7192  IntersectionExampleScenario.node[15].veinsmobility  posy  ETV
vector 7198  IntersectionExampleScenario.node[16].veinsmobility  posx  ETV
vector 7199  IntersectionExampleScenario.node[16].veinsmobility  posy  ETV
vector 7193  IntersectionExampleScenario.node[15].veinsmobility  speed  ETV
vector 7194  IntersectionExampleScenario.node[15].veinsmobility  acceleration  ETV
vector 7195  IntersectionExampleScenario.node[15].veinsmobility  co2emission  ETV
vector 7200  IntersectionExampleScenario.node[16].veinsmobility  speed  ETV
vector 7201  IntersectionExampleScenario.node[16].veinsmobility  acceleration  ETV
vector 7202  IntersectionExampleScenario.node[16].veinsmobility  co2emission  ETV
vector 7205  IntersectionExampleScenario.node[17].veinsmobility  posx  ETV
vector 7206  IntersectionExampleScenario.node[17].veinsmobility  posy  ETV
vector 7207  IntersectionExampleScenario.node[17].veinsmobility  speed  ETV
vector 7208  IntersectionExampleScenario.node[17].veinsmobility  acceleration  ETV
vector 7209  IntersectionExampleScenario.node[17].veinsmobility  co2emission  ETV
vector 7212  IntersectionExampleScenario.node[18].veinsmobility  posx  ETV
vector 7213  IntersectionExampleScenario.node[18].veinsmobility  posy  ETV
vector 7214  IntersectionExampleScenario.node[18].veinsmobility  speed  ETV
vector 7215  IntersectionExampleScenario.node[18].veinsmobility  acceleration  ETV
vector 7216  IntersectionExampleScenario.node[18].veinsmobility  co2emission  ETV
7111	10402 4639 69 3913 5 43 153 0.973 12.099024792222 517.60214905204 3025.137226112
7110	15041 4324 69 3913 5 43 153 -3.2851409912109 2.5 41.057416915894 265.59102492451
7109	19365 4556 58 3913 4.75 43 154 5.6500000953674 16.27499961853 2209.2595262527 32808.46603059
7108	23921 4870 49 3913 4.5 43 155 483.14999389648 733.25387573242 82966.778305054 45332624.656428
7107	28791 4852 49 3913 4.5 43 155 184.17810058594 486.85000610352 61685.531219482 26288566.272175
7132	33643 4815 242 4426 8.75 47.75 157 0.973 11.90022389248 501.48193289809 2795.6589940621
7131	38458 4623 242 4426 8.75 47.75 157 -3.2281761169434 2.5 39.529638290405 239.97953651101
7130	43081 4711 227 4426 8.5 47.75 158 5.6500000953674 16 2238.1539201736 32720.774847421
7129	47792 5014 212 4426 8.25 47.75 159 483.14999389648 732.70748901367 85044.148376465 46428936.44571
7128	52806 5017 212 4426 8.25 47.75 159 176.21716308594 486.85000610352 62752.800964355 26645050.093933
7125	57823 5100 242 4641 8.75 49.75 165 0.973 11.00486315618 469.00860356098 2245.5279270841
7124	62923 4518 242 4641 8.75 49.75 165 -3.1030502319336 2.5 34.606801986694 200.18446670508
7123	67441 4993 227 4641 8.5 49.75 166 5.6500000953674 14.75 2210.9824504852 30132.149685156
7122	72434 5281 212 4641 8.25 49.75 167 235.71142578125 486.85000610352 72299.326049805 32324201.753987
7121	77715 5295 212 4641 8.25 49.75 167 483.14999389648 785.82187652588 95411.24659729 56349514.120995
7139	83010 5129 291 4766 9.5 51 167 0.973 11.667307054876 513.734709657 2525.9941851826
7138	88139 5367 291 4766 9.5 51 167 -4.5 2.5 40.004713058472 231.07602271843
7137	93506 5264 274 4766 9.25 51 168 5.6500000953674 15.676622390747 2302.292714119 32517.170982252
7136	98770 5362 257 4766 9 51 169 236.01947021484 486.85000610352 73458.214141846 32948830.668838
7135	104132 5355 257 4766 9 51 169 483.11975097656 808.82032012939 97904.514045715 58899203.523138
vector 7219  IntersectionExampleScenario.node[19].veinsmobility  posx  ETV
vector 7220  IntersectionExampleScenario.node[19].veinsmobility  posy  ETV
vector 7221  IntersectionExampleScenario.node[19].veinsmobility  speed  ETV
vector 7222  IntersectionExampleScenario.node[19].veinsmobility  acceleration  ETV
vector 7223  IntersectionExampleScenario.node[19].veinsmobility  co2emission  ETV
vector 7226  IntersectionExampleScenario.node[20].veinsmobility  posx  ETV
vector 7227  IntersectionExampleScenario.node[20].veinsmobility  posy  ETV
vector 7233  IntersectionExampleScenario.node[21].veinsmobility  posx  ETV
vector 7234  IntersectionExampleScenario.node[21].veinsmobility  posy  ETV
vector 7228  IntersectionExampleScenario.node[20].veinsmobility  speed  ETV
vector 7229  IntersectionExampleScenario.node[20].veinsmobility  acceleration  ETV
vector 7230  IntersectionExampleScenario.node[20].veinsmobility  co2emission  ETV
vector 7235  IntersectionExampleScenario.node[21].veinsmobility  speed  ETV
vector 7236  IntersectionExampleScenario.node[21].veinsmobility  acceleration  ETV
vector 7237  IntersectionExampleScenario.node[21].veinsmobility  co2emission  ETV
7090	110675 6073 14 5240 2.25 55.5 214 0.973 11.450879080643 574.37636947008 2829.6282763342
7089	116748 5547 14 5240 2.25 55.5 214 -6.7711477279663 4 36.98334312439 456.08212473492
7088	122295 5891 11 5240 2 55.5 215 0 15.375 2209.3353545666 30725.485793837
7087	128186 6791 8 5240 1.75 55.5 216 237.32635498047 785.82187652588 111319.05594635 61588335.790197
7086	134977 6798 8 5240 1.75 55.5 216 483.14999389648 483.14999389648 104360.39868164 50421725.986069
7153	141775 5515 424 5483 11.25 57.75 187 0.973 11.200708441096 521.80990261788 2599.8442852937
7152	147290 5486 424 5483 11.25 57.75 187 -2.0688285827637 2.5 35.795072555542 273.46502027392
7151	152776 5708 403 5483 11 57.75 188 2.9584519863129 15.02499961853 2213.1681432724 28728.993158291
7150	158484 6009 382 5483 10.75 57.75 189 483.14999389648 785.82187652588 106923.46161652 62353882.885778
7149	164493 6003 382 5483 10.75 57.75 189 483.14999389648 734.53251647949 100166.18017578 54155346.619158
vector 7240  IntersectionExampleScenario.node[22].veinsmobility  posx  ETV
vector 7241  IntersectionExampleScenario.node[22].veinsmobility  posy  ETV
vector 7242  IntersectionExampleScenario.node[22].veinsmobility  speed  ETV
vector 7243  IntersectionExampleScenario.node[22].veinsmobility  acceleration  ETV
vector 7244  IntersectionExampleScenario.node[22].veinsmobility  co2emission  ETV
7118	170892 6684 80 6175 5.25 66 244 0.973 11.810082123732 618.01065720563 3084.5320263353
7117	177576 5809 80 6175 5.25 66 244 -16.431602478027 4 39.869146347046 714.93616478111
7116	183385 6179 69 6175 5 66 245 0 15.875 2070.8296318054 29823.695363823
7115	189564 7770 58 6175 4.75 66 246 212.00311279297 483.36395263672 106391.54376221 47591009.035141
7114	197334 7724 58 6175 4.75 66 246 486.85000610352 734.37205505371 127839.86183167 67497447.939004
vector 7247  IntersectionExampleScenario.node[23].veinsmobility  posx  ETV
vector 7248  IntersectionExampleScenario.node[23].veinsmobility  posy  ETV
vector 7249  IntersectionExampleScenario.node[23].veinsmobility  speed  ETV
vector 7250  IntersectionExampleScenario.node[23].veinsmobility  acceleration  ETV
vector 7251  IntersectionExampleScenario.node[23].veinsmobility  co2emission  ETV
7097	205454 7640 42 6362 4.25 69.25 261 0.973 11.468728147861 635.81635678914 2934.1237776707
7096	213094 7726 42 6362 4.25 69.25 261 -4.5 2.5 38.001859664917 439.8788236957
7095	220820 7698 37 6362 4 69.25 262 0 15.564481735229 2178.5084551908 29345.943955004
7094	228518 8304 32 6362 3.75 69.25 263 184.17810058594 483.14999389648 109886.6149292 48165949.053422
7093	236822 8321 32 6362 3.75 69.25 263 486.85000610352 731.87770080566 136185.70350647 71593629.655108
7104	245143 7964 58 6497 4.75 71.5 268 0.973 11.54047740176 638.93394471709 2805.6699138484
7103	253107 8317 58 6497 4.75 71.5 268 -4.5 2.5 36.98334312439 381.87304498947
7102	261424 8300 49 6497 4.5 71.5 269 0 15.5 2309.9746641675 30341.273299446
7101	269724 8527 42 6497 4.25 71.5 270 160.43438720703 733.52462768555 118526.17622375 57177052.25122
7100	278251 8558 42 6497 4.25 71.5 270 486.85000610352 486.85000610352 131449.50164795 63996190.679608
vector 7254  IntersectionExampleScenario.node[24].veinsmobility  posx  ETV
vector 7255  IntersectionExampleScenario.node[24].veinsmobility  posy  ETV
vector 7256  IntersectionExampleScenario.node[24].veinsmobility  speed  ETV
vector 7257  IntersectionExampleScenario.node[24].veinsmobility  acceleration  ETV
vector 7258  IntersectionExampleScenario.node[24].veinsmobility  co2emission  ETV
7146	287205 7666 363 6714 10.5 75 259 0.973 11.200708441096 621.48336319325 2821.9609707696
7145	294871 7781 363 6714 10.5 75 259 -4.0879802703857 2.5 35.795072555542 386.91715707875
7144	302652 7957 344 6714 10.25 75 260 0 15.02499961853 2235.8869134001 28546.711728913
7143	310609 8297 325 6714 10 75 261 170.78735351562 483.14999389648 107412.74887085 46380727.510464
7142	318906 8296 325 6714 10 75 261 486.85000610352 732.88850402832 135579.82302856 71543581.784034
7160	327202 7584 596 6756 13.25 75.75 251 0.973 11.90022389248 645.9142154944 3138.7309356126
7159	334786 7601 596 6756 13.25 75.75 251 -4.5 2.5 39.869146347046 483.42373663791
7158	342387 7741 573 6756 13 75.75 252 0 16 2293.3749680612 31104.732951784
7157	350128 8058 550 6756 12.75 75.75 253 163.25927734375 487.06750488281 103107.25064087 44265285.541561
7156	358186 8074 550 6756 12.75 75.75 253 237.30474853516 486.85000610352 114993.45339966 53361707.997524
7195	366260 5843 2129 6847 28.25 77.5 198 0.973 11.36141391502 556.86198256408 2774.3081507943
7194	372103 5299 2129 6847 28.25 77.5 198 -8.4870233535767 4 37.15309715271 476.36027920365
7193	377402 5645 2096 6847 28 77.5 199 0 15.25 2176.74477458 30094.703439055
7192	383047 6335 2065 6847 27.75 77.5 200 236.84155273438 483.14999389648 88292.660461426 39996147.901236
7191	389382 6381 2065 6847 27.75 77.5 200 184.17810058594 483.36395263672 82167.192443848 35677238.286274
7167	395763 6627 1267 6886 20.5 78.25 232 0.973 11.200708441096 590.92359393088 2698.0290738302
7166	402390 6120 1267 6886 20.5 78.25 232 -6.7711477279663 4 36.98334312439 435.63238951563
7165	408510 6493 1242 6886 20.25 78.25 233 0 15.216426849365 2218.4237039089 30549.39349046
7164	415003 7487 1217 6886 20 78.25 234 486.85000610352 486.85000610352 113922.90142822 55463365.25566
7163	422490 7473 1217 6886 20 78.25 234 235.31103515625 785.82187652588 120070.00052643 65880389.947092
7202	429963 6085 2162 6899 28.5 78.5 201 0.973 11.450879080643 580.24554194819 2861.0625272178
7201	436048 5475 2162 6899 28.5 78.5 201 -4.5 2.5 38.511121749878 475.25241554952
7200	441523 5992 2129 6899 28.25 78.5 202 0 15.375 2301.6594459619 31952.277149159
7199	447515 6488 2096 6899 28 78.5 203 483.14999389648 732.08053588867 106393.72344971 56799991.12569
7198	454003 6481 2096 6899 28 78.5 203 159.76721191406 486.86563110352 81255.907775879 34907684.352077
7174	460484 6893 1346 6964 21.25 79.75 235 0.973 11.423249024451 610.45359336877 2745.8144245182
7173	467377 6503 1346 6964 21.25 79.75 235 -4.5 2.5000009536743 38.341367721558 445.36454662285
7172	473880 6964 1319 6964 21 79.75 236 0 15.336415290833 2304.1986836269 32080.004925057
7171	480844 7585 1292 6964 20.75 79.75 237 486.85000610352 486.85000610352 115383.45144653 56174434.040989
7170	488429 7571 1292 6964 20.75 79.75 237 237.83197021484 808.82032012939 124404.48508453 70015890.838368
7216	496000 5061 3582 7068 40 81.75 168 0.973 11.648172402475 562.50153819892 3342.5532951917
7215	501061 4710 3582 7068 40 81.75 168 -3.4538421630859 2.5 38.341367721558 367.31375895196
7214	505771 5081 3553 7068 39.75 81.75 169 5.6500000953674 15.64999961853 2187.5183486938 29863.121447276
7213	510852 5433 3524 7068 39.5 81.75 170 235.79931640625 483.14999389648 73871.287475586 33055406.110347
7212	516285 5409 3524 7068 39.5 81.75 170 184.17810058594 483.19155883789 67771.887237549 28768951.667171
vector 7261  IntersectionExampleScenario.node[25].veinsmobility  posx  ETV
vector 7262  IntersectionExampleScenario.node[25].veinsmobility  posy  ETV
vector 7263  IntersectionExampleScenario.node[25].veinsmobility  speed  ETV
7188	521923 6507 2006 7109 27.25 82.5 222 0.973 11.810082123732 590.38491536663 3059.367701854
7187	528430 6742 2006 7109 27.25 82.5 222 -3.9640226364136 2.5 38.511121749878 374.36828334453
7186	535172 6769 1975 7109 27 82.5 223 0 15.875 2193.0734031182 29254.340242374
7185	541941 7157 1944 7109 26.75 82.5 224 486.85000610352 735.28828430176 117356.81880188 62547921.595573
7184	549098 7157 1944 7109 26.75 82.5 224 486.85000610352 785.82187652588 124791.77744293 71407888.891743
vector 7264  IntersectionExampleScenario.node[25].veinsmobility  acceleration  ETV
vector 7265  IntersectionExampleScenario.node[25].veinsmobility  co2emission  ETV
vector 7268  IntersectionExampleScenario.node[26].veinsmobility  posx  ETV
vector 7269  IntersectionExampleScenario.node[26].veinsmobility  posy  ETV
vector 7270  IntersectionExampleScenario.node[26].veinsmobility  speed  ETV
vector 7271  IntersectionExampleScenario.node[26].veinsmobility  acceleration  ETV
vector 7272  IntersectionExampleScenario.node[26].veinsmobility  co2emission  ETV
vector 7275  IntersectionExampleScenario.node[27].veinsmobility  posx  ETV
vector 7276  IntersectionExampleScenario.node[27].veinsmobility  posy  ETV
vector 7277  IntersectionExampleScenario.node[27].veinsmobility  speed  ETV
vector 7278  IntersectionExampleScenario.node[27].veinsmobility  acceleration  ETV
vector 7279  IntersectionExampleScenario.node[27].veinsmobility  co2emission  ETV
7181	557214 7087 1944 7544 26.75 90.25 255 0.973 11.648172402475 625.17523952256 2974.72974223
7180	564301 6110 1944 7544 26.75 90.25 255 -20.850158691406 4 38.341367721558 842.48353571695
7179	570411 6585 1915 7544 26.5 90.25 256 0 15.64999961853 2179.3948020935 30912.915993778
7178	576996 8220 1886 7544 26.25 90.25 257 486.63604736328 785.82187652588 140040.68199921 78380494.905468
7177	585216 8160 1886 7544 26.25 90.25 257 236.95220947266 483.14999389648 115987.80075073 53424884.402824
7209	593376 7139 2529 7566 31.25 90.75 239 0.973 11.990504229548 626.37119695895 3145.9394120048
7208	600515 7361 2529 7566 31.25 90.75 239 -4.5 2.5 40.378400802612 427.90766760618
7207	607876 7286 2494 7566 31 90.75 240 0 16.125 2209.7353812624 31572.978370331
7206	615162 7693 2459 7566 30.75 90.75 241 238.31408691406 785.82187652588 124597.85515594 68449765.092695
7205	622855 7713 2459 7566 30.75 90.75 241 483.14999389648 483.14999389648 116439.14852905 56257573.901123
vector 7282  IntersectionExampleScenario.node[28].veinsmobility  posx  ETV
vector 7283  IntersectionExampleScenario.node[28].veinsmobility  posy  ETV
vector 7284  IntersectionExampleScenario.node[28].veinsmobility  speed  ETV
vector 7289  IntersectionExampleScenario.node[29].veinsmobility  posx  ETV
vector 7290  IntersectionExampleScenario.node[29].veinsmobility  posy  ETV
vector 7285  IntersectionExampleScenario.node[28].veinsmobility  acceleration  ETV
vector 7286  IntersectionExampleScenario.node[28].veinsmobility  co2emission  ETV
vector 7291  IntersectionExampleScenario.node[29].veinsmobility  speed  ETV
vector 7296  IntersectionExampleScenario.node[30].veinsmobility  posx  ETV
vector 7297  IntersectionExampleScenario.node[30].veinsmobility  posy  ETV
vector 7292  IntersectionExampleScenario.node[29].veinsmobility  acceleration  ETV
vector 7293  IntersectionExampleScenario.node[29].veinsmobility  co2emission  ETV
vector 7298  IntersectionExampleScenario.node[30].veinsmobility  speed  ETV
vector 7299  IntersectionExampleScenario.node[30].veinsmobility  acceleration  ETV
vector 7300  IntersectionExampleScenario.node[30].veinsmobility  co2emission  ETV
vector 7303  IntersectionExampleScenario.node[31].veinsmobility  posx  ETV
vector 7304  IntersectionExampleScenario.node[31].veinsmobility  posy  ETV
vector 7305  IntersectionExampleScenario.node[31].veinsmobility  speed  ETV
vector 7306  IntersectionExampleScenario.node[31].veinsmobility  acceleration  ETV
vector 7307  IntersectionExampleScenario.node[31].veinsmobility  co2emission  ETV
7230	632152 5641 5154 8253 54.75 101.75 189 0.973 11.990504229548 589.69981310612 3000.3858049955
7229	637793 5294 5154 8253 54.75 101.75 189 -4.5 2.5 41.396924972534 485.72656830148
7228	643087 5530 5125 8253 54.5 101.75 190 0 16.125 2286.2001877427 33243.89811111
7227	648617 6090 5098 8253 54.25 101.75 191 168.58435058594 734.82757568359 84723.199310303 42019999.690321
7226	654707 6122 5098 8253 54.25 101.75 191 486.85000610352 486.85000610352 92988.351165771 45271379.332612
7223	660829 5972 4895 8287 52.25 102.25 201 0.973 10.916047529558 538.36557731314 2512.3546055932
7222	666801 5394 4895 8287 52.25 102.25 201 -7.815390586853 4 34.267293930054 448.84469127285
7221	672195 5799 4868 8287 52 102.25 202 0 14.625 2179.6677112579 28929.234152605
7220	677994 6481 4841 8287 51.75 102.25 203 184.17810058594 483.36395263672 83208.379364014 36061502.181059
7219	684475 6442 4841 8287 51.75 102.25 203 486.85000610352 734.07568359375 107630.76893616 58133383.830951
7237	690917 5897 5183 8406 55 104 197 0.973 10.969136487977 630.14257792071 3059.2862782586
7236	696814 5851 5183 8406 55 104 197 -4.5 2.5 44.496297836304 479.2711521624
7235	702665 6039 5154 8406 54.75 104 198 0 16.945684432983 2309.7604103312 32892.600575608
7234	708704 6356 5125 8406 54.5 104 199 151.97033691406 483.14999389648 78597.721160889 33436802.488297
7233	715060 6380 5125 8406 54.5 104 199 486.85000610352 731.39289855957 104476.23117065 55779748.60437
7244	721440 5449 5781 8556 60.75 106.25 183 0.973 11.54047740176 543.25997618876 2837.7151983531
7243	726889 5474 5781 8556 60.75 106.25 183 -3.2565841674805 2.5 37.32285118103 309.71867915462
7242	732363 5670 5757 8556 60.5 106.25 184 4.871075630188 15.5 2267.223965168 30247.193220614
7241	738033 5926 5732 8556 60.25 106.25 185 173.61145019531 735.32801818848 81975.766906738 40815890.254228
7240	743959 5947 5732 8556 60.25 106.25 185 486.85000610352 486.85000610352 90067.25112915 43849241.761954
vector 7310  IntersectionExampleScenario.node[32].veinsmobility  posx  ETV
vector 7311  IntersectionExampleScenario.node[32].veinsmobility  posy  ETV
vector 7312  IntersectionExampleScenario.node[32].veinsmobility  speed  ETV
vector 7313  IntersectionExampleScenario.node[32].veinsmobility  acceleration  ETV
vector 7314  IntersectionExampleScenario.node[32].veinsmobility  co2emission  ETV
7251	750302 5479 6257 8905 67.5 112.25 180 0.97223939240464 11.648172402475 554.88876922157 2947.888767937
7250	755781 5011 6257 8905 67.5 112.25 180 -7.1630792617798 4 38.680875778198 475.21272919869
7249	760792 5399 6242 8905 67.25 112.25 181 0 15.64999961853 2217.0011966228 31576.668141371
7248	766191 5873 6227 8905 67 112.25 182 483.14999389648 483.14999389648 87933.29888916 42484972.821595
7247	772064 5839 6227 8905 67 112.25 182 184.17810058594 734.53523254395 82289.572219849 41368818.340377
7265	777903 5064 7124 9452 82.75 122.5 160 0.973 11.450879080643 483.55874724144 2498.9327372035
7264	782967 4581 7124 9452 82.75 122.5 160 -3.2029113769531 2.5 36.98334312439 225.31289334086
7263	787548 4959 7109 9452 82.5 122.5 161 5.6500000953674 15.375 2213.4105415344 31255.671254689
7262	792507 5273 7094 9452 82.25 122.5 162 235.17932128906 486.85000610352 70173.385131836 31389703.239962
7261	797780 5268 7094 9452 82.25 122.5 162 483.11968994141 785.82187652588 92608.073554993 54738492.660881
7258	803048 6148 6606 9551 73.25 125.25 209 0.973 11.648172402475 575.06755260613 2912.0868008475
7257	809196 5724 6606 9551 73.25 125.25 209 -8.4908542633057 4 38.001859664917 488.16021245119
7256	814920 5911 6589 9551 73 125.25 210 0 15.64999961853 2172.5753586292 30408.735714519
7255	820831 6847 6572 9551 72.75 125.25 211 486.63604736328 785.82187652588 117189.90955353 67036113.0518
7254	827678 6789 6572 9551 72.75 125.25 211 237.98760986328 483.14999389648 93788.819519043 42702403.515729
vector 7317  IntersectionExampleScenario.node[33].veinsmobility  posx  ETV
vector 7318  IntersectionExampleScenario.node[33].veinsmobility  posy  ETV
vector 7319  IntersectionExampleScenario.node[33].veinsmobility  speed  ETV
vector 7320  IntersectionExampleScenario.node[33].veinsmobility  acceleration  ETV
vector 7321  IntersectionExampleScenario.node[33].veinsmobility  co2emission  ETV
vector 7324  IntersectionExampleScenario.node[34].veinsmobility  posx  ETV
vector 7325  IntersectionExampleScenario.node[34].veinsmobility  posy  ETV
vector 7326  IntersectionExampleScenario.node[34].veinsmobility  speed  ETV
vector 7327  IntersectionExampleScenario.node[34].veinsmobility  acceleration  ETV
vector 7328  IntersectionExampleScenario.node[34].veinsmobility  co2emission  ETV
7300	835259 5093 7744 9829 94.25 133.75 159 0.973 11.450879080643 484.44724015116 2505.8905222211
7299	840352 4531 7744 9829 94.25 133.75 159 -3.4813346862793 2.5 37.32285118103 228.62201856403
7298	844883 4974 7727 9829 94 133.75 160 5.6500000953674 15.375 2206.753443718 31288.618338187
7297	849857 5285 7710 9829 93.75 133.75 161 483.14999389648 785.82187652588 92074.922691345 54448666.658347
7296	855142 5280 7710 9829 93.75 133.75 161 483.14999389648 732.93559265137 86313.589279175 47241572.564034
7272	860422 6303 7247 9946 84.75 137 210 0.973 10.916047529558 549.66292184848 2531.1837910451
7271	866725 5715 7247 9946 84.75 137 210 -7.0648307800293 4 34.77654838562 435.78425397326
7270	872440 6088 7231 9946 84.5 137 211 0 14.625 2172.8278138638 29010.263010819
7269	878528 6908 7214 9946 84.25 137 212 184.17810058594 483.36395263672 87508.3621521 38104086.906931
7268	885436 6867 7214 9946 84.25 137 212 486.85000610352 732.20350646973 111810.68942261 60025629.853888
7293	892303 5296 7710 9955 93.75 137.25 175 0.973 11.990504229548 537.02751291618 2991.229571555
7292	897599 5360 7710 9955 93.75 137.25 175 -2.2164039611816 2.5 39.869146347046 289.45779346017
7291	902959 5536 7695 9955 93.5 137.25 176 3.4238302707672 16.125 2214.6567516327 30633.089379149
7290	908495 5789 7680 9955 93.25 137.25 177 184.17810058594 732.36187744141 79025.213195801 39343720.204964
7289	914284 5815 7680 9955 93.25 137.25 177 486.85000610352 486.85000610352 86172.451080322 41953058.33441
vector 7331  IntersectionExampleScenario.node[35].veinsmobility  posx  ETV
vector 7332  IntersectionExampleScenario.node[35].veinsmobility  posy  ETV
vector 7333  IntersectionExampleScenario.node[35].veinsmobility  speed  ETV
vector 7334  IntersectionExampleScenario.node[35].veinsmobility  acceleration  ETV
vector 7335  IntersectionExampleScenario.node[35].veinsmobility  co2emission  ETV
vector 7338  IntersectionExampleScenario.node[36].veinsmobility  posx  ETV
vector 7339  IntersectionExampleScenario.node[36].veinsmobility  posy  ETV
vector 7340  IntersectionExampleScenario.node[36].veinsmobility  speed  ETV
vector 7345  IntersectionExampleScenario.node[37].veinsmobility  posx  ETV
vector 7346  IntersectionExampleScenario.node[37].veinsmobility  posy  ETV
vector 7341  IntersectionExampleScenario.node[36].veinsmobility  acceleration  ETV
vector 7342  IntersectionExampleScenario.node[36].veinsmobility  co2emission  ETV
vector 7347  IntersectionExampleScenario.node[37].veinsmobility  speed  ETV
vector 7348  IntersectionExampleScenario.node[37].veinsmobility  acceleration  ETV
vector 7349  IntersectionExampleScenario.node[37].veinsmobility  co2emission  ETV
7279	921287 6784 7467 10431 88.75 147 234 0.973 11.90022389248 611.47050059175 3048.6999731118
7278	928071 6528 7467 10431 88.75 147 234 -8.0817356109619 4 39.020376205444 498.89440650125
7277	934599 6493 7454 10431 88.5 147 235 0 16 2207.9941732883 31656.231643594
7276	941092 7776 7441 10431 88.25 147 236 486.85000610352 486.85000610352 114896.60144043 55937411.112546
7275	948868 7770 7441 10431 88.25 147 236 237.58947753906 785.82187652588 121338.90976715 66509927.869754
7286	956638 6511 7680 10457 93.25 147.5 218 0.973 11.36141391502 578.03076604097 2799.6447979632
7285	963149 5851 7680 10457 93.25 147.5 218 -7.457010269165 4 37.32285118103 467.27674674445
7284	969000 6226 7667 10457 93 147.5 219 0 15.25 2179.3544082642 30207.236950068
7283	975226 7203 7654 10457 92.75 147.5 220 236.31317138672 483.14999389648 97942.171203613 44656786.294988
7282	982429 7240 7654 10457 92.75 147.5 220 184.17810058594 483.36395263672 91621.781066895 40143325.985743
vector 7352  IntersectionExampleScenario.node[38].veinsmobility  posx  ETV
vector 7353  IntersectionExampleScenario.node[38].veinsmobility  posy  ETV
vector 7354  IntersectionExampleScenario.node[38].veinsmobility  speed  ETV
vector 7359  IntersectionExampleScenario.node[39].veinsmobility  posx  ETV
vector 7360  IntersectionExampleScenario.node[39].veinsmobility  posy  ETV
vector 7355  IntersectionExampleScenario.node[38].veinsmobility  acceleration  ETV
vector 7356  IntersectionExampleScenario.node[38].veinsmobility  co2emission  ETV
vector 7361  IntersectionExampleScenario.node[39].veinsmobility  speed  ETV
vector 7362  IntersectionExampleScenario.node[39].veinsmobility  acceleration  ETV
vector 7363  IntersectionExampleScenario.node[39].veinsmobility  co2emission  ETV
vector 7366  IntersectionExampleScenario.node[40].veinsmobility  posx  ETV
vector 7367  IntersectionExampleScenario.node[40].veinsmobility  posy  ETV
vector 7368  IntersectionExampleScenario.node[40].veinsmobility  speed  ETV
vector 7369  IntersectionExampleScenario.node[40].veinsmobility  acceleration  ETV
vector 7370  IntersectionExampleScenario.node[40].veinsmobility  co2emission  ETV
vector 7373  IntersectionExampleScenario.node[41].veinsmobility  posx  ETV
vector 7374  IntersectionExampleScenario.node[41].veinsmobility  posy  ETV
vector 7375  IntersectionExampleScenario.node[41].veinsmobility  speed  ETV
vector 7376  IntersectionExampleScenario.node[41].veinsmobility  acceleration  ETV
vector 7377  IntersectionExampleScenario.node[41].veinsmobility  co2emission  ETV
7307	991253 7446 7930 11199 97 160.25 254 0.973 11.36141391502 625.25355412516 2889.6705717828
7306	998699 6659 7930 11199 97 160.25 254 -9.5684871673584 4 38.001859664917 546.38471726977
7305	1005358 6974 7913 11199 96.75 160.25 255 0 15.25 2229.003985405 31414.618622687
7304	1012332 8506 7896 11199 96.5 160.25 256 486.63604736328 800.04531860352 140823.81879425 79804446.733299
7303	1020838 8457 7896 11199 96.5 160.25 256 237.98760986328 483.14999389648 115530.56924438 53206929.762827
vector 7380  IntersectionExampleScenario.node[42].veinsmobility  posx  ETV
vector 7381  IntersectionExampleScenario.node[42].veinsmobility  posy  ETV
vector 7382  IntersectionExampleScenario.node[42].veinsmobility  speed  ETV
vector 7383  IntersectionExampleScenario.node[42].veinsmobility  acceleration  ETV
vector 7384  IntersectionExampleScenario.node[42].veinsmobility  co2emission  ETV
vector 7387  IntersectionExampleScenario.node[43].veinsmobility  posx  ETV
vector 7388  IntersectionExampleScenario.node[43].veinsmobility  posy  ETV
vector 7389  IntersectionExampleScenario.node[43].veinsmobility  speed  ETV
vector 7390  IntersectionExampleScenario.node[43].veinsmobility  acceleration  ETV
vector 7391  IntersectionExampleScenario.node[43].veinsmobility  co2emission  ETV
vector 7394  IntersectionExampleScenario.node[44].veinsmobility  posx  ETV
vector 7395  IntersectionExampleScenario.node[44].veinsmobility  posy  ETV
vector 7396  IntersectionExampleScenario.node[44].veinsmobility  speed  ETV
7314	1030316 7049 8800 11847 110.5 170.25 240 0.973 12.353032912318 646.55336918348 3455.8438628791
7313	1037365 6302 8800 11847 110.5 170.25 240 -9.0185928344727 4 42.415441513062 570.09558868953
7312	1043667 6646 8785 11847 110.25 170.25 241 0 16.625 2204.9388065338 33135.895353988
7311	1050313 8075 8770 11847 110 170.25 242 184.17810058594 731.48355102539 110328.33998108 54258763.038431
7310	1058388 8113 8770 11847 110 170.25 242 486.85000610352 486.85000610352 117817.70147705 57359548.683204
vector 7397  IntersectionExampleScenario.node[44].veinsmobility  acceleration  ETV
vector 7398  IntersectionExampleScenario.node[44].veinsmobility  co2emission  ETV
vector 7401  IntersectionExampleScenario.node[45].veinsmobility  posx  ETV
vector 7402  IntersectionExampleScenario.node[45].veinsmobility  posy  ETV
vector 7403  IntersectionExampleScenario.node[45].veinsmobility  speed  ETV
vector 7404  IntersectionExampleScenario.node[45].veinsmobility  acceleration  ETV
vector 7405  IntersectionExampleScenario.node[45].veinsmobility  co2emission  ETV
vector 7408  IntersectionExampleScenario.node[46].veinsmobility  posx  ETV
vector 7409  IntersectionExampleScenario.node[46].veinsmobility  posy  ETV
vector 7410  IntersectionExampleScenario.node[46].veinsmobility  speed  ETV
vector 7411  IntersectionExampleScenario.node[46].veinsmobility  acceleration  ETV
vector 7412  IntersectionExampleScenario.node[46].veinsmobility  co2emission  ETV
7335	1067460 5097 9986 12357 138 176.75 156 0.96333723109819 12.099024792222 531.85452319443 3235.0459304408
7334	1072557 4855 9986 12357 138 176.75 156 -3.6214561462402 2.5 40.208654403687 325.40505805222
7333	1077412 5007 9975 12357 137.75 176.75 157 5.6500000953674 16.27499961853 2180.4787216187 31791.494401572
7332	1082419 5345 9964 12357 137.5 176.75 158 184.17810058594 483.14999389648 62769.837036133 26651987.138273
7331	1087764 5366 9964 12357 137.5 176.75 158 486.85000610352 732.23550415039 84827.722885132 46434286.561523
vector 7415  IntersectionExampleScenario.node[47].veinsmobility  posx  ETV
vector 7416  IntersectionExampleScenario.node[47].veinsmobility  posy  ETV
vector 7417  IntersectionExampleScenario.node[47].veinsmobility  speed  ETV
vector 7418  IntersectionExampleScenario.node[47].veinsmobility  acceleration  ETV
vector 7419  IntersectionExampleScenario.node[47].veinsmobility  co2emission  ETV
7328	1093526 6162 9829 12842 133.75 182.5 196 0.973 11.36141391502 553.31640770487 2766.4562530374
7327	1099688 5682 9829 12842 133.75 182.5 196 -6.7711477279663 4 36.98334312439 450.59403005823
7326	1105370 5995 9820 12842 133.5 182.5 197 0 15.25 2175.7520129681 29985.058215833
7325	1111365 6645 9811 12842 133.25 182.5 198 486.85000610352 732.63011169434 104720.14956665 56396220.375294
7324	1118010 6705 9811 12842 133.25 182.5 198 486.63604736328 785.82187652588 110858.93540192 63982304.159334
7321	1124715 6266 9797 12842 132.75 182.5 200 0.973 11.450879080643 565.34320488771 2833.9993761692
7320	1130981 5571 9797 12842 132.75 182.5 200 -6.9984560012817 4 37.492597579956 469.58322065122
7319	1136552 6114 9790 12842 132.5 182.5 201 0 15.375 2215.8641395569 31072.669385032
7318	1142666 6844 9783 12842 132.25 182.5 202 483.14999389648 483.14999389648 97596.29876709 47153651.153639
7317	1149510 6812 9783 12842 132.25 182.5 202 184.17810058594 734.38114929199 91714.492034912 45867695.815314
7349	1156322 5217 10218 12926 143 183.5 163 0.973 12.099024792222 551.03953426623 3327.7248003365
7348	1161539 5004 10218 12926 143 183.5 163 -4.5 2.5000019073486 41.396924972534 316.23386421377
7347	1166543 5330 10203 12926 142.75 183.5 164 5.6500000953674 16.27499961853 2214.0072402954 31639.526020426
7346	1171873 5610 10188 12926 142.5 183.5 165 486.85000610352 486.85000610352 80330.25100708 39108783.193094
7345	1177483 5596 10188 12926 142.5 183.5 165 238.11145019531 785.82187652588 86587.226646423 49420230.862002
vector 7422  IntersectionExampleScenario.node[48].veinsmobility  posx  ETV
vector 7423  IntersectionExampleScenario.node[48].veinsmobility  posy  ETV
vector 7424  IntersectionExampleScenario.node[48].veinsmobility  speed  ETV
vector 7425  IntersectionExampleScenario.node[48].veinsmobility  acceleration  ETV
vector 7426  IntersectionExampleScenario.node[48].veinsmobility  co2emission  ETV
vector 7429  IntersectionExampleScenario.node[49].veinsmobility  posx  ETV
vector 7430  IntersectionExampleScenario.node[49].veinsmobility  posy  ETV
vector 7431  IntersectionExampleScenario.node[49].veinsmobility  speed  ETV
vector 7432  IntersectionExampleScenario.node[49].veinsmobility  acceleration  ETV
vector 7433  IntersectionExampleScenario.node[49].veinsmobility  co2emission  ETV
vector 7436  IntersectionExampleScenario.node[50].veinsmobility  posx  ETV
vector 7437  IntersectionExampleScenario.node[50].veinsmobility  posy  ETV
vector 7443  IntersectionExampleScenario.node[51].veinsmobility  posx  ETV
vector 7444  IntersectionExampleScenario.node[51].veinsmobility  posy  ETV
vector 7438  IntersectionExampleScenario.node[50].veinsmobility  speed  ETV
7363	1184252 5310 10895 13955 155.75 195.5 160 0.973 11.200708441096 477.80207161418 2435.0819111005
7362	1189562 4820 10895 13955 155.75 195.5 160 -4.5 2.5 35.795072555542 222.34029321262
7361	1194382 5258 10880 13955 155.5 195.5 161 5.6500000953674 15.02499961853 2210.6657791138 30887.194099323
7360	1199640 5462 10864 13955 155.25 195.5 162 238.15069580078 785.82187652588 84423.974372864 48233355.985318
7359	1205102 5509 10864 13955 155.25 195.5 162 483.14999389648 483.14999389648 78270.29901123 37816294.489552
vector 7439  IntersectionExampleScenario.node[50].veinsmobility  acceleration  ETV
vector 7440  IntersectionExampleScenario.node[50].veinsmobility  co2emission  ETV
vector 7445  IntersectionExampleScenario.node[51].veinsmobility  speed  ETV
vector 7446  IntersectionExampleScenario.node[51].veinsmobility  acceleration  ETV
vector 7447  IntersectionExampleScenario.node[51].veinsmobility  co2emission  ETV
vector 7450  IntersectionExampleScenario.node[52].veinsmobility  posx  ETV
vector 7451  IntersectionExampleScenario.node[52].veinsmobility  posy  ETV
vector 7457  IntersectionExampleScenario.node[53].veinsmobility  posx  ETV
vector 7458  IntersectionExampleScenario.node[53].veinsmobility  posy  ETV
vector 7452  IntersectionExampleScenario.node[52].veinsmobility  speed  ETV
vector 7453  IntersectionExampleScenario.node[52].veinsmobility  acceleration  ETV
vector 7454  IntersectionExampleScenario.node[52].veinsmobility  co2emission  ETV
vector 7459  IntersectionExampleScenario.node[53].veinsmobility  speed  ETV
vector 7460  IntersectionExampleScenario.node[53].veinsmobility  acceleration  ETV
vector 7461  IntersectionExampleScenario.node[53].veinsmobility  co2emission  ETV
vector 7464  IntersectionExampleScenario.node[54].veinsmobility  posx  ETV
vector 7465  IntersectionExampleScenario.node[54].veinsmobility  posy  ETV
vector 7466  IntersectionExampleScenario.node[54].veinsmobility  speed  ETV
vector 7467  IntersectionExampleScenario.node[54].veinsmobility  acceleration  ETV
vector 7468  IntersectionExampleScenario.node[54].veinsmobility  co2emission  ETV
7342	1212210 7532 10188 14948 142.5 206 255 0.973 11.810082123732 637.66302317966 3163.7200162472
7341	1219742 6827 10188 14948 142.5 206 255 -27.612239837646 4 39.869146347046 1136.8267347261
7340	1226569 7047 10175 14948 142.25 206 256 0 15.875 2182.1367444992 31587.504986377
7339	1233616 8717 10162 14948 142 206 257 184.17810058594 483.36395263672 109398.82171631 48627590.653668
7338	1242333 8666 10162 14948 142 206 257 486.85000610352 734.37205505371 133195.2118988 70104700.151877
7356	1250999 6499 10864 15062 155.25 207.5 210 0.973 11.54047740176 558.45413483848 2779.9020998266
7355	1257498 6785 10864 15062 155.25 207.5 210 -3.8910024166107 2.5 36.98334312439 331.41891260014
7354	1264283 7001 10849 15062 155 207.5 211 0 15.5 2209.4675910063 29075.24918228
7353	1271284 7166 10834 15062 154.75 207.5 212 184.17810058594 731.8469543457 95307.491241455 47040017.577337
7352	1278450 7208 10834 15062 154.75 207.5 212 486.85000610352 486.85000610352 103212.20129395 50248860.829914
vector 7471  IntersectionExampleScenario.node[55].veinsmobility  posx  ETV
vector 7472  IntersectionExampleScenario.node[55].veinsmobility  posy  ETV
vector 7473  IntersectionExampleScenario.node[55].veinsmobility  speed  ETV
vector 7474  IntersectionExampleScenario.node[55].veinsmobility  acceleration  ETV
vector 7475  IntersectionExampleScenario.node[55].veinsmobility  co2emission  ETV
7370	1286054 6442 11019 15180 157.75 209 206 0.973 11.90022389248 596.49018809247 3044.6762766622
7369	1292496 6468 11019 15180 157.75 209 206 -4.5 2.5000009536743 41.227170944214 393.88389530206
7368	1298964 6748 11002 15180 157.5 209 207 1.6048783063889 16 2272.2550435066 30893.070068296
7367	1305712 7039 10985 15180 157.25 209 208 168.58435058594 486.85000610352 83714.040008545 35775848.890389
7366	1312751 7068 10985 15180 157.25 209 208 236.46063232422 486.85000610352 93187.288513184 42780940.991564
vector 7478  IntersectionExampleScenario.node[56].veinsmobility  posx  ETV
vector 7479  IntersectionExampleScenario.node[56].veinsmobility  posy  ETV
vector 7480  IntersectionExampleScenario.node[56].veinsmobility  speed  ETV
vector 7481  IntersectionExampleScenario.node[56].veinsmobility  acceleration  ETV
vector 7482  IntersectionExampleScenario.node[56].veinsmobility  co2emission  ETV
vector 7485  IntersectionExampleScenario.node[57].veinsmobility  posx  ETV
vector 7486  IntersectionExampleScenario.node[57].veinsmobility  posy  ETV
vector 7487  IntersectionExampleScenario.node[57].veinsmobility  speed  ETV
vector 7488  IntersectionExampleScenario.node[57].veinsmobility  acceleration  ETV
vector 7489  IntersectionExampleScenario.node[57].veinsmobility  co2emission  ETV
vector 7492  IntersectionExampleScenario.node[58].veinsmobility  posx  ETV
vector 7493  IntersectionExampleScenario.node[58].veinsmobility  posy  ETV
vector 7494  IntersectionExampleScenario.node[58].veinsmobility  speed  ETV
vector 7495  IntersectionExampleScenario.node[58].veinsmobility  acceleration  ETV
vector 7496  IntersectionExampleScenario.node[58].veinsmobility  co2emission  ETV
7377	1321007 6924 11142 15905 159.5 216.75 230 0.96333723109819 12.099024792222 615.22107095126 3231.9221673542
7376	1327931 6464 11142 15905 159.5 216.75 230 -6.7176246643066 4 40.208654403687 481.76706844698
7375	1334395 6630 11123 15905 159.25 216.75 231 0 16.27499961853 2195.6666045189 31787.620864243
7374	1341025 7887 11104 15905 159 216.75 232 238.72613525391 486.85000610352 104903.23748779 48484260.854112
7373	1348912 7870 11104 15905 159 216.75 232 483.14999389648 785.82187652588 127161.64476776 71718505.317378
7384	1356782 6358 11623 15951 166.5 217.25 204 0.973 11.648172402475 579.99504106191 2977.3461322269
7383	1363140 5711 11623 15951 166.5 217.25 204 -6.8118047714233 4 38.850629806519 473.4152716302
7382	1368851 6190 11607 15951 166.25 217.25 205 0 15.64999961853 2219.7540524006 31693.656059221
7381	1375041 7003 11590 15951 166 217.25 206 483.14999389648 483.14999389648 99528.898742676 48087386.820047
7380	1382044 6973 11590 15951 166 217.25 206 184.17810058594 735.09378051758 93643.925872803 46743372.508119
7419	1389017 5146 12589 16128 179.5 219.25 160 0.973 12.099024792222 528.95487302528 3050.8222402509
7418	1394163 4855 12589 16128 179.5 219.25 160 -2.1541862487793 2.5 41.057416915894 259.06089909155
7417	1399018 5271 12568 16128 179.25 219.25 161 5.6500000953674 16.27499961853 2219.3600063324 31857.24885758
7416	1404289 5507 12546 16128 179 219.25 162 483.14999389648 483.14999389648 78270.29901123 37816294.489552
7415	1409796 5474 12546 16128 179 219.25 162 184.17810058594 733.61940002441 72301.533584595 36300764.314985
7405	1415270 6104 11987 16233 172.25 220.5 194 0.973 11.200708441096 529.57985455729 2565.5726665568
7404	1421374 6290 11987 16233 172.25 220.5 194 -2.0688285827637 2.5 35.795072555542 265.66566256024
7403	1427664 6430 11968 16233 172 220.5 195 2.4377326965332 15.02499961853 2213.2448005676 28507.154271025
7402	1434094 6652 11949 16233 171.75 220.5 196 234.94610595703 486.85000610352 86531.166046143 39291939.247211
7401	1440746 6646 11949 16233 171.75 220.5 196 482.95434570312 785.82187652588 110461.21012115 64142154.293711
7412	1447392 6061 12105 16233 173.75 220.5 188 0.973 11.990504229548 575.13469942809 3000.1886143636
7411	1453453 5980 12105 16233 173.75 220.5 188 -4.5 2.5 40.038900375366 387.89361115056
7410	1459433 6192 12084 16233 173.5 220.5 189 3.4566535949707 16.125 2304.3859372139 31718.555052366
7409	1465625 6461 12063 16233 173.25 220.5 190 486.85000610352 486.85000610352 92501.501159668 45034356.404169
7408	1472086 6436 12063 16233 173.25 220.5 190 235.33831787109 806.11563110352 101241.02307129 58510794.842905
7391	1478522 7339 11785 16989 169.25 230.25 245 0.973 11.648172402475 614.629938066 2995.3549843126
7390	1485861 6675 11785 16989 169.25 230.25 245 -7.4922199249268 4 38.171613693237 484.73603371837
7389	1492536 7007 11770 16989 169 230.25 246 0 15.64999961853 2209.8923177719 31296.209765439
7388	1499543 8375 11755 16989 168.75 230.25 247 237.14044189453 785.82187652588 126744.18099213 69205695.560631
7387	1507918 8398 11755 16989 168.75 230.25 247 483.14999389648 483.14999389648 119338.04849243 57658177.400737
7398	1516316 7783 11864 17064 170.5 231.5 245 0.973 11.810082123732 632.92859969263 3116.0799356075
7397	1524099 7478 11864 17064 170.5 231.5 245 -4.5 2.5 39.529638290405 466.700362763
7396	1531577 7691 11847 17064 170.25 231.5 246 0 15.875 2271.884699042 32019.14726779
7395	1539268 8384 11830 17064 170 231.5 247 486.85000610352 807.09531402588 137359.7505722 78753479.032596
7394	1547652 8389 11830 17064 170 231.5 247 236.61730957031 483.14999389648 111288.99984741 51198935.538671
7447	1556041 4906 14001 17169 196 233.5 151 0.973 12.227512265266 539.6258924898 3425.473138086
7446	1560947 4612 14001 17169 196 233.5 151 -3.2160797119141 2.5 41.566686630249 278.71188034592
7445	1565559 4928 13978 17169 195.75 233.5 152 5.6500000953674 16.452236175537 2215.786816597 33138.488871819
7444	1570487 5189 13955 17169 195.5 233.5 153 237.43023681641 785.82187652588 80133.726371765 45959338.14807
7443	1575676 5202 13955 17169 195.5 233.5 153 483.14999389648 483.14999389648 73921.949066162 35715389.240132
vector 7499  IntersectionExampleScenario.node[59].veinsmobility  posx  ETV
vector 7500  IntersectionExampleScenario.node[59].veinsmobility  posy  ETV
vector 7501  IntersectionExampleScenario.node[59].veinsmobility  speed  ETV
vector 7502  IntersectionExampleScenario.node[59].veinsmobility  acceleration  ETV
vector 7503  IntersectionExampleScenario.node[59].veinsmobility  co2emission  ETV
vector 7506  IntersectionExampleScenario.node[60].veinsmobility  posx  ETV
vector 7507  IntersectionExampleScenario.node[60].veinsmobility  posy  ETV
vector 7508  IntersectionExampleScenario.node[60].veinsmobility  speed  ETV
vector 7509  IntersectionExampleScenario.node[60].veinsmobility  acceleration  ETV
vector 7510  IntersectionExampleScenario.node[60].veinsmobility  co2emission  ETV
vector 7513  IntersectionExampleScenario.node[61].veinsmobility  posx  ETV
vector 7514  IntersectionExampleScenario.node[61].veinsmobility  posy  ETV
vector 7515  IntersectionExampleScenario.node[61].veinsmobility  speed  ETV
vector 7516  IntersectionExampleScenario.node[61].veinsmobility  acceleration  ETV
vector 7517  IntersectionExampleScenario.node[61].veinsmobility  co2emission  ETV
7426	1582066 6810 13119 17495 185.75 241.25 223 0.973 11.648172402475 593.223938066 2974.5269463126
7425	1588876 6237 13119 17495 185.75 241.25 223 -7.4922728538513 4 38.171613693237 484.73649532449
7424	1595113 6570 13096 17495 185.5 241.25 224 0 15.64999961853 2209.892436862 31296.211266307
7423	1601683 7614 13073 17495 185.25 241.25 225 184.17810058594 732.85957336426 102470.616745 50831338.542853
7422	1609297 7651 13073 17495 185.25 241.25 225 486.85000610352 486.85000610352 109541.25137329 53330158.899673
7433	1616948 6503 13655 17572 191.75 244 210 0.973 11.200708441096 558.10763732805 2751.2280316301
7432	1623451 6968 13655 17572 191.75 244 210 -3.9098649024963 2.5 36.98334312439 328.29749210115
7431	1630419 7023 13634 17572 191.5 244 211 0 15.450869560242 2218.4278452322 29504.340328547
7430	1637442 7173 13612 17572 191.25 244 212 184.17810058594 734.10722351074 95666.401657104 47409533.164059
7429	1644615 7208 13612 17572 191.25 244 212 486.85000610352 486.85000610352 103212.20129395 50248860.829914
vector 7520  IntersectionExampleScenario.node[62].veinsmobility  posx  ETV
vector 7521  IntersectionExampleScenario.node[62].veinsmobility  posy  ETV
vector 7522  IntersectionExampleScenario.node[62].veinsmobility  speed  ETV
7454	1652052 5998 14168 17616 197.75 245.5 192 0.973 11.90022389248 560.66673219692 2952.0237475633
7453	1658050 6040 14168 17616 197.75 245.5 192 -2.931224822998 2.5 39.869146347046 321.81578524349
7452	1664090 6256 14141 17616 197.5 245.5 193 2.8894672393799 16 2210.6941812038 29117.587181642
7451	1670346 6562 14116 17616 197.25 245.5 194 184.17810058594 486.85000610352 78431.65234375 33527825.830556
7450	1676908 6583 14116 17616 197.25 245.5 194 236.17352294922 486.85000610352 86193.529632568 39322080.218814
vector 7523  IntersectionExampleScenario.node[62].veinsmobility  acceleration  ETV
vector 7524  IntersectionExampleScenario.node[62].veinsmobility  co2emission  ETV
vector 7527  IntersectionExampleScenario.node[63].veinsmobility  posx  ETV
vector 7528  IntersectionExampleScenario.node[63].veinsmobility  posy  ETV
vector 7529  IntersectionExampleScenario.node[63].veinsmobility  speed  ETV
vector 7530  IntersectionExampleScenario.node[63].veinsmobility  acceleration  ETV
vector 7531  IntersectionExampleScenario.node[63].veinsmobility  co2emission  ETV
7461	1684054 6437 14195 17725 198 248.25 202 0.973 11.13628506792 549.94826895825 2562.1246659141
7460	1690491 6640 14195 17725 198 248.25 202 -4.5 2.5 36.643835067749 297.40689753878
7459	1697131 6816 14168 17725 197.75 248.25 203 2.9103665351868 14.934635162354 2303.5325834751 29431.358033326
7458	1703947 6916 14141 17725 197.5 248.25 204 159.76721191406 486.8655090332 80388.27935791 34049186.217914
7457	1710863 6924 14141 17725 197.5 248.25 204 237.22521972656 486.85000610352 90700.962982178 41395905.20792
7489	1717787 4905 15383 17813 211.25 250.25 157 0.973 12.717865293408 585.33061067906 4117.6910915311
7488	1722692 4845 15383 17813 211.25 250.25 157 -3.3592300415039 2.5 44.112981796265 377.28358569017
7487	1727537 5015 15358 17813 211 250.25 158 5.6500000953674 17.125 2180.9894838333 31923.679147499
7486	1732552 5373 15333 17813 210.75 250.25 159 184.17810058594 483.16561889648 63099.161376953 26719743.514474
7485	1737925 5402 15333 17813 210.75 250.25 159 486.85000610352 732.31965637207 84888.262863159 46184393.75964
vector 7534  IntersectionExampleScenario.node[64].veinsmobility  posx  ETV
vector 7535  IntersectionExampleScenario.node[64].veinsmobility  posy  ETV
vector 7541  IntersectionExampleScenario.node[65].veinsmobility  posx  ETV
vector 7542  IntersectionExampleScenario.node[65].veinsmobility  posy  ETV
vector 7536  IntersectionExampleScenario.node[64].veinsmobility  speed  ETV
vector 7537  IntersectionExampleScenario.node[64].veinsmobility  acceleration  ETV
vector 7538  IntersectionExampleScenario.node[64].veinsmobility  co2emission  ETV
vector 7543  IntersectionExampleScenario.node[65].veinsmobility  speed  ETV
vector 7544  IntersectionExampleScenario.node[65].veinsmobility  acceleration  ETV
vector 7545  IntersectionExampleScenario.node[65].veinsmobility  co2emission  ETV
vector 7548  IntersectionExampleScenario.node[66].veinsmobility  posx  ETV
vector 7549  IntersectionExampleScenario.node[66].veinsmobility  posy  ETV
vector 7550  IntersectionExampleScenario.node[66].veinsmobility  speed  ETV
7440	1744348 6905 13978 17925 195.75 252.25 227 0.973 11.648172402475 599.03127313783 2986.2006352191
7439	1751253 6304 13978 17925 195.75 252.25 227 -7.7750473022461 4 38.511121749878 480.0267975717
7438	1757557 6651 13955 17925 195.5 252.25 228 0 15.64999961853 2214.2518191338 31459.954721098
7437	1764208 7787 13934 17925 195.25 252.25 229 486.85000610352 486.85000610352 111488.65139771 54278250.613445
7436	1771995 7772 13934 17925 195.25 252.25 229 236.02325439453 785.82187652588 117711.2687149 64678836.837633
vector 7551  IntersectionExampleScenario.node[66].veinsmobility  acceleration  ETV
vector 7552  IntersectionExampleScenario.node[66].veinsmobility  co2emission  ETV
7468	1779934 6394 14910 18095 205.5 254.75 198 0.973 10.756497587458 535.97860461445 2414.4874928533
7467	1786328 5841 14910 18095 205.5 254.75 198 -8.9526214599609 4 34.097539901733 443.41075826373
7466	1792169 6423 14891 18095 205.25 254.75 199 0 14.39999961853 2217.5843024254 29090.490754985
7465	1798592 6800 14872 18095 205 254.75 200 483.14999389648 483.14999389648 96629.998779297 46686783.320434
7464	1805392 6759 14872 18095 205 254.75 200 184.17810058594 734.99905395508 91018.223876953 45848318.350827
7496	1812151 5033 15905 18129 216.75 255.25 155 0.973 11.648172402475 529.76847664817 3197.00161336
7495	1817184 4698 15905 18129 216.75 255.25 155 -2.7861213684082 2.5 39.869146347046 261.94919336334
7494	1821882 5073 15882 18129 216.5 255.25 156 5.6500000953674 15.729362487793 2218.0754795074 32290.740376011
7493	1826955 5339 15859 18129 216.25 255.25 157 486.85000610352 486.85000610352 76435.450958252 37212599.76555
7492	1832294 5329 15859 18129 216.25 255.25 157 236.59283447266 785.82187652588 82094.05821991 47007328.098385
7482	1837623 5824 15310 18163 210.5 255.75 182 0.973 11.603217550981 581.79397895702 2870.3304258829
7481	1843447 5890 15310 18163 210.5 255.75 182 -4.5 2.5 39.749673843384 472.98774605649
7480	1849337 6096 15287 18163 210.25 255.75 183 0 15.991348266602 2112.1582970116 28887.972823061
7479	1855433 6256 15264 18163 210 255.75 184 483.14999389648 483.14999389648 88899.598876953 42951840.6548
7478	1861689 6215 15264 18163 210 255.75 184 209.0625 732.43786621094 85503.85446167 43425893.559469
7475	1867904 6212 15180 18265 209 257.25 194 0.973 9.7345598514684 569.93462238275 2511.7709191781
7474	1874116 6683 15180 18265 209 257.25 194 -4.5 2.5 38.068059921265 355.5303562321
7473	1880799 6603 15159 18265 208.75 257.25 195 1.9356112480164 15.42232131958 2249.2061314583 29496.634617846
7472	1887402 6664 15138 18265 208.5 257.25 196 483.14999389648 483.14999389648 94697.398803711 45753047.654026
7471	1894066 6636 15138 18265 208.5 257.25 196 174.53436279297 732.28764343262 86301.263153076 42687501.22572
vector 7555  IntersectionExampleScenario.node[67].veinsmobility  posx  ETV
vector 7556  IntersectionExampleScenario.node[67].veinsmobility  posy  ETV
vector 7557  IntersectionExampleScenario.node[67].veinsmobility  speed  ETV
vector 7558  IntersectionExampleScenario.node[67].veinsmobility  acceleration  ETV
vector 7559  IntersectionExampleScenario.node[67].veinsmobility  co2emission  ETV
vector 7562  IntersectionExampleScenario.node[68].veinsmobility  posx  ETV
vector 7563  IntersectionExampleScenario.node[68].veinsmobility  posy  ETV
vector 7564  IntersectionExampleScenario.node[68].veinsmobility  speed  ETV
vector 7565  IntersectionExampleScenario.node[68].veinsmobility  acceleration  ETV
vector 7566  IntersectionExampleScenario.node[68].veinsmobility  co2emission  ETV
vector 7569  IntersectionExampleScenario.node[69].veinsmobility  posx  ETV
vector 7570  IntersectionExampleScenario.node[69].veinsmobility  posy  ETV
vector 7576  IntersectionExampleScenario.node[70].veinsmobility  posx  ETV
vector 7577  IntersectionExampleScenario.node[70].veinsmobility  posy  ETV
vector 7571  IntersectionExampleScenario.node[69].veinsmobility  speed  ETV
vector 7572  IntersectionExampleScenario.node[69].veinsmobility  acceleration  ETV
vector 7573  IntersectionExampleScenario.node[69].veinsmobility  co2emission  ETV
vector 7578  IntersectionExampleScenario.node[70].veinsmobility  speed  ETV
vector 7579  IntersectionExampleScenario.node[70].veinsmobility  acceleration  ETV
vector 7580  IntersectionExampleScenario.node[70].veinsmobility  co2emission  ETV
7503	1902286 5186 17283 19482 235.75 275.25 159 0.973 12.099024792222 541.67208707134 3138.4032877774
7502	1907472 4930 17283 19482 235.75 275.25 159 -3.2659339904785 2.5 41.057416915894 349.27497758544
7501	1912402 5231 17270 19482 235.5 275.25 160 4.4249982833862 16.27499961853 2204.9516348839 32265.8480597
7500	1917633 5449 17257 19482 235.25 275.25 161 184.17810058594 487.08770751953 64473.930664062 27584727.68667
7499	1923082 5471 17257 19482 235.25 275.25 161 237.04974365234 486.85000610352 70321.458740234 31650578.367856
vector 7583  IntersectionExampleScenario.node[71].veinsmobility  posx  ETV
vector 7584  IntersectionExampleScenario.node[71].veinsmobility  posy  ETV
7510	1928705 5171 17411 19630 238.75 278 158 0.973 12.099024792222 514.02027256756 2943.1446989574
7509	1933876 4653 17411 19630 238.75 278 158 -4.5 2.5 41.396924972534 245.2510158885
7508	1938529 5104 17400 19630 238.5 278 159 5.6500000953674 16.27499961853 2263.992814064 33440.836667693
7507	1943633 5412 17389 19630 238.25 278 160 171.40313720703 486.85580444336 62974.203582764 26720234.470183
7506	1949045 5430 17389 19630 238.25 278 160 236.0400390625 486.85000610352 69811.657836914 31400474.362217
vector 7585  IntersectionExampleScenario.node[71].veinsmobility  speed  ETV
vector 7586  IntersectionExampleScenario.node[71].veinsmobility  acceleration  ETV
vector 7587  IntersectionExampleScenario.node[71].veinsmobility  co2emission  ETV
vector 7590  IntersectionExampleScenario.node[72].veinsmobility  posx  ETV
vector 7591  IntersectionExampleScenario.node[72].veinsmobility  posy  ETV
vector 7592  IntersectionExampleScenario.node[72].veinsmobility  speed  ETV
vector 7593  IntersectionExampleScenario.node[72].veinsmobility  acceleration  ETV
vector 7594  IntersectionExampleScenario.node[72].veinsmobility  co2emission  ETV
7531	1955115 5100 17692 20114 247.5 285.5 153 0.973 11.648172402475 477.13653297721 2490.0576298632
7530	1960215 4602 17692 20114 247.5 285.5 153 -3.1895179748535 2.5 39.190130233765 195.44051527145
7529	1964817 4999 17681 20114 247.25 285.5 154 5.6500000953674 15.64999961853 2225.7950782776 32847.383339542
7528	1969816 5244 17670 20114 247 285.5 155 184.17810058594 735.35313415527 69631.914916992 35427063.146043
7527	1975060 5269 17670 20114 247 285.5 155 486.85000610352 486.85000610352 75461.750946045 36738553.908664
vector 7597  IntersectionExampleScenario.node[73].veinsmobility  posx  ETV
vector 7598  IntersectionExampleScenario.node[73].veinsmobility  posy  ETV
vector 7599  IntersectionExampleScenario.node[73].veinsmobility  speed  ETV
vector 7600  IntersectionExampleScenario.node[73].veinsmobility  acceleration  ETV
vector 7601  IntersectionExampleScenario.node[73].veinsmobility  co2emission  ETV
vector 7604  IntersectionExampleScenario.node[74].veinsmobility  posx  ETV
vector 7605  IntersectionExampleScenario.node[74].veinsmobility  posy  ETV
7517	1980877 5950 17480 20213 240.75 287.25 187 0.973 11.648172402475 563.45404106191 2961.2517392269
7516	1986827 5371 17480 20213 240.75 287.25 187 -6.8118047714233 4 38.850629806519 473.4152716302
7515	1992198 5849 17471 20213 240.5 287.25 188 0 15.64999961853 2219.7540524006 31693.656059221
7514	1998047 6427 17462 20213 240.25 287.25 189 483.14999389648 483.14999389648 91315.348846436 44119010.237811
7513	2004474 6397 17462 20213 240.25 287.25 189 184.17810058594 735.09378051758 85626.725769043 42962460.890252
vector 7606  IntersectionExampleScenario.node[74].veinsmobility  speed  ETV
vector 7607  IntersectionExampleScenario.node[74].veinsmobility  acceleration  ETV
vector 7608  IntersectionExampleScenario.node[74].veinsmobility  co2emission  ETV
7524	2011115 5553 17625 20315 245.75 288.75 173 0.97223939240464 11.648172402475 530.49067706823 2856.4801715032
7523	2016668 5406 17625 20315 245.75 288.75 173 -3.1389312744141 2.5 38.680875778198 312.54390917488
7522	2022074 5638 17616 20315 245.5 288.75 174 3.1208329200745 15.64999961853 2209.135001421 30532.981249628
7521	2027712 5944 17607 20315 245.25 288.75 175 483.14999389648 733.2614440918 92924.908248901 50337141.633893
7520	2033656 5925 17607 20315 245.25 288.75 175 184.17810058594 486.85000610352 70525.938903809 30236719.089687
vector 7611  IntersectionExampleScenario.node[75].veinsmobility  posx  ETV
vector 7612  IntersectionExampleScenario.node[75].veinsmobility  posy  ETV
vector 7613  IntersectionExampleScenario.node[75].veinsmobility  speed  ETV
vector 7614  IntersectionExampleScenario.node[75].veinsmobility  acceleration  ETV
vector 7615  IntersectionExampleScenario.node[75].veinsmobility  co2emission  ETV
vector 7618  IntersectionExampleScenario.node[76].veinsmobility  posx  ETV
vector 7619  IntersectionExampleScenario.node[76].veinsmobility  posy  ETV
7545	2040129 5241 17878 20550 251.5 292 163 0.97223939240464 11.648172402475 544.57864562106 3293.264104439
7544	2045370 4907 17878 20550 251.5 292 163 -3.3524971008301 2.5 38.680875778198 315.17254791729
7543	2050277 5289 17863 20550 251.25 292 164 5.6500000953674 15.64999961853 2205.7303705215 30664.372948007
7542	2055566 5601 17848 20550 251 292 165 483.14999389648 732.81854248047 88062.692199707 47965726.445216
7541	2061167 5578 17848 20550 251 292 165 184.17810058594 486.87884521484 65627.17666626 27875814.672097
vector 7620  IntersectionExampleScenario.node[76].veinsmobility  speed  ETV
vector 7621  IntersectionExampleScenario.node[76].veinsmobility  acceleration  ETV
vector 7622  IntersectionExampleScenario.node[76].veinsmobility  co2emission  ETV
vector 7625  IntersectionExampleScenario.node[77].veinsmobility  posx  ETV
vector 7626  IntersectionExampleScenario.node[77].veinsmobility  posy  ETV
vector 7627  IntersectionExampleScenario.node[77].veinsmobility  speed  ETV
vector 7628  IntersectionExampleScenario.node[77].veinsmobility  acceleration  ETV
vector 7629  IntersectionExampleScenario.node[77].veinsmobility  co2emission  ETV
7538	2067385 6141 17863 21132 251.25 300 196 0.973 11.810082123732 577.5179259185 3058.8921350552
7537	2073526 5577 17863 21132 251.25 300 196 -6.9388580322266 4 39.869146347046 481.49561185204
7536	2079103 5933 17848 21132 251 300 197 0 15.875 2183.3810286522 31318.381264493
7535	2085036 6722 17835 21132 250.75 300 198 486.63604736328 785.82187652588 110515.26592255 63579303.157203
7534	2091758 6662 17835 21132 250.75 300 198 235.62799072266 483.14999389648 87588.93862915 39744688.083975
7552	2098420 6363 17942 21217 252.5 301.25 196 0.973 11.90022389248 585.52020651395 3095.8831769116
7551	2104783 5938 17942 21217 252.5 301.25 196 -4.5 2.5000001192093 39.869146347046 461.95234649559
7550	2110721 6467 17925 21217 252.25 301.25 197 0 16 2293.3538550027 32685.84504315
7549	2117188 6722 17908 21217 252 301.25 198 483.13391113281 807.09531402588 112331.49207306 65973721.179947
7548	2123910 6726 17908 21217 252 301.25 198 483.14999389648 733.09767150879 103869.90647888 55515535.083908
vector 7632  IntersectionExampleScenario.node[78].veinsmobility  posx  ETV
vector 7633  IntersectionExampleScenario.node[78].veinsmobility  posy  ETV
vector 7634  IntersectionExampleScenario.node[78].veinsmobility  speed  ETV
vector 7635  IntersectionExampleScenario.node[78].veinsmobility  acceleration  ETV
vector 7636  IntersectionExampleScenario.node[78].veinsmobility  co2emission  ETV
7573	2131032 5186 19211 21715 271 309.75 156 0.973 11.54047740176 466.15982120664 2342.423113526
7572	2136218 4528 19211 21715 271 309.75 156 -3.0623931884766 2.5 37.492597579956 180.55984296702
7571	2140746 5109 19192 21715 270.75 309.75 157 5.6500000953674 15.5 2221.0238161087 32010.779935585
7570	2145855 5362 19175 21715 270.5 309.75 158 235.65802001953 785.82187652588 82274.189613342 47050363.778562
7569	2151217 5373 19175 21715 270.5 309.75 158 483.14999389648 483.14999389648 76337.699035645 36882558.823143
7559	2156590 6377 18438 21783 259.75 311 206 0.973 11.810082123732 581.86603746545 3047.1698018994
7558	2162967 6008 18438 21783 259.75 311 206 -7.6570296287537 4 39.190130233765 493.56135163672
7557	2168975 6127 18420 21783 259.5 311 207 0 15.875 2174.6031588316 30950.724165538
7556	2175102 7051 18401 21783 259.25 311 208 184.17810058594 483.36395263672 86190.049102783 37646841.899116
7555	2182153 7006 18401 21783 259.25 311 208 486.85000610352 732.38899230957 109291.95982361 58426454.745206
vector 7639  IntersectionExampleScenario.node[79].veinsmobility  posx  ETV
vector 7640  IntersectionExampleScenario.node[79].veinsmobility  posy  ETV
vector 7646  IntersectionExampleScenario.node[80].veinsmobility  posx  ETV
vector 7647  IntersectionExampleScenario.node[80].veinsmobility  posy  ETV
vector 7653  IntersectionExampleScenario.node[81].veinsmobility  posx  ETV
vector 7654  IntersectionExampleScenario.node[81].veinsmobility  posy  ETV
vector 7641  IntersectionExampleScenario.node[79].veinsmobility  speed  ETV
vector 7642  IntersectionExampleScenario.node[79].veinsmobility  acceleration  ETV
vector 7643  IntersectionExampleScenario.node[79].veinsmobility  co2emission  ETV
vector 7648  IntersectionExampleScenario.node[80].veinsmobility  speed  ETV
vector 7655  IntersectionExampleScenario.node[81].veinsmobility  speed  ETV
vector 7649  IntersectionExampleScenario.node[80].veinsmobility  acceleration  ETV
vector 7650  IntersectionExampleScenario.node[80].veinsmobility  co2emission  ETV
vector 7656  IntersectionExampleScenario.node[81].veinsmobility  acceleration  ETV
vector 7657  IntersectionExampleScenario.node[81].veinsmobility  co2emission  ETV
7566	2190347 6855 18544 21966 261.25 314.25 213 0.973 11.36141391502 569.66151722449 2753.7943375497
7565	2197202 6886 18544 21966 261.25 314.25 213 -4.5 2.5 36.134572982788 405.06040943132
7564	2204088 7001 18525 21966 261 314.25 214 0 15.25 2270.1036698231 30574.98704732
7563	2211089 7273 18506 21966 260.75 314.25 215 163.88433837891 483.14999389648 87025.274230957 37513705.050201
7562	2218362 7298 18506 21966 260.75 314.25 215 486.85000610352 734.71586608887 113252.94456482 60729368.977817
7587	2225660 5225 19660 22243 278.5 318.25 160 0.973 11.648172402475 520.07345173283 2974.2284355875
7586	2230885 4912 19660 22243 278.5 318.25 160 -4.1293106079102 2.5 38.171613693237 299.92851501407
7585	2235797 5156 19645 22243 278.25 318.25 161 5.6500000953674 15.64999961853 2182.2726011276 30903.287098608
7584	2240953 5477 19630 22243 278 318.25 162 184.17810058594 483.20269775391 64401.746459961 27346443.810306
7583	2246430 5499 19630 22243 278 318.25 162 486.85000610352 732.74659729004 87053.966018677 47703887.890824
vector 7660  IntersectionExampleScenario.node[82].veinsmobility  posx  ETV
vector 7661  IntersectionExampleScenario.node[82].veinsmobility  posy  ETV
vector 7662  IntersectionExampleScenario.node[82].veinsmobility  speed  ETV
vector 7663  IntersectionExampleScenario.node[82].veinsmobility  acceleration  ETV
vector 7664  IntersectionExampleScenario.node[82].veinsmobility  co2emission  ETV
vector 7667  IntersectionExampleScenario.node[83].veinsmobility  posx  ETV
vector 7668  IntersectionExampleScenario.node[83].veinsmobility  posy  ETV
vector 7669  IntersectionExampleScenario.node[83].veinsmobility  speed  ETV
vector 7670  IntersectionExampleScenario.node[83].veinsmobility  acceleration  ETV
vector 7671  IntersectionExampleScenario.node[83].veinsmobility  co2emission  ETV
vector 7674  IntersectionExampleScenario.node[84].veinsmobility  posx  ETV
vector 7675  IntersectionExampleScenario.node[84].veinsmobility  posy  ETV
vector 7676  IntersectionExampleScenario.node[84].veinsmobility  speed  ETV
vector 7677  IntersectionExampleScenario.node[84].veinsmobility  acceleration  ETV
vector 7678  IntersectionExampleScenario.node[84].veinsmobility  co2emission  ETV
7580	2253117 6431 19230 22542 271.25 322.5 206 0.973 11.36141391502 564.64598256408 2781.8819827943
7579	2259548 5857 19230 22542 271.25 322.5 206 -8.4870567321777 4 37.15309715271 476.36065124764
7578	2265405 6200 19211 22542 271 322.5 207 0 15.25 2176.7448656559 30094.704683899
7577	2271605 7010 19192 22542 270.75 322.5 208 486.85000610352 733.15849304199 109602.13970947 58784570.209075
7576	2278615 7061 19192 22542 270.75 322.5 208 486.63604736328 785.82187652588 115820.01000214 66440108.521961
vector 7681  IntersectionExampleScenario.node[85].veinsmobility  posx  ETV
vector 7682  IntersectionExampleScenario.node[85].veinsmobility  posy  ETV
vector 7683  IntersectionExampleScenario.node[85].veinsmobility  speed  ETV
vector 7684  IntersectionExampleScenario.node[85].veinsmobility  acceleration  ETV
vector 7685  IntersectionExampleScenario.node[85].veinsmobility  co2emission  ETV
7601	2286072 5274 20183 22864 286.75 326.5 160 0.973 11.200708441096 484.76128667981 2579.7924477203
7600	2291346 5024 20183 22864 286.75 326.5 160 -3.0848846435547 2.5 35.964826583862 212.67025092055
7599	2296370 5253 20168 22864 286.5 326.5 161 5.6500000953674 15.02499961853 2215.4999895096 31009.311433821
7598	2301623 5509 20153 22864 286.25 326.5 162 486.85000610352 486.85000610352 78869.70098877 38397714.407765
7597	2307132 5497 20153 22864 286.25 326.5 162 236.94427490234 785.82187652588 84404.272819519 48234753.818512
vector 7688  IntersectionExampleScenario.node[86].veinsmobility  posx  ETV
vector 7689  IntersectionExampleScenario.node[86].veinsmobility  posy  ETV
vector 7690  IntersectionExampleScenario.node[86].veinsmobility  speed  ETV
vector 7695  IntersectionExampleScenario.node[87].veinsmobility  posx  ETV
vector 7696  IntersectionExampleScenario.node[87].veinsmobility  posy  ETV
vector 7691  IntersectionExampleScenario.node[86].veinsmobility  acceleration  ETV
vector 7692  IntersectionExampleScenario.node[86].veinsmobility  co2emission  ETV
vector 7697  IntersectionExampleScenario.node[87].veinsmobility  speed  ETV
vector 7698  IntersectionExampleScenario.node[87].veinsmobility  acceleration  ETV
vector 7699  IntersectionExampleScenario.node[87].veinsmobility  co2emission  ETV
7622	2313421 5088 20592 23224 292.5 330.75 154 0.96333723109819 12.099024792222 504.50358273717 2905.2200946772
7621	2318509 4757 20592 23224 292.5 330.75 154 -3.3863906860352 2.5 40.208654403687 255.11559227802
7620	2323266 4979 20571 23224 292.25 330.75 155 5.6500000953674 16.27499961853 2213.2808465958 32664.460429439
7619	2328245 5293 20550 23224 292 330.75 156 483.14999389648 734.43801879883 83625.36656189 45772226.508759
7618	2333538 5275 20550 23224 292 330.75 156 184.17810058594 486.85186767578 62103.636322021 26473105.121736
vector 7702  IntersectionExampleScenario.node[88].veinsmobility  posx  ETV
vector 7703  IntersectionExampleScenario.node[88].veinsmobility  posy  ETV
vector 7704  IntersectionExampleScenario.node[88].veinsmobility  speed  ETV
vector 7705  IntersectionExampleScenario.node[88].veinsmobility  acceleration  ETV
vector 7706  IntersectionExampleScenario.node[88].veinsmobility  co2emission  ETV
vector 7709  IntersectionExampleScenario.node[89].veinsmobility  posx  ETV
vector 7710  IntersectionExampleScenario.node[89].veinsmobility  posy  ETV
vector 7711  IntersectionExampleScenario.node[89].veinsmobility  speed  ETV
vector 7712  IntersectionExampleScenario.node[89].veinsmobility  acceleration  ETV
vector 7713  IntersectionExampleScenario.node[89].veinsmobility  co2emission  ETV
vector 7716  IntersectionExampleScenario.node[90].veinsmobility  posx  ETV
vector 7717  IntersectionExampleScenario.node[90].veinsmobility  posy  ETV
vector 7718  IntersectionExampleScenario.node[90].veinsmobility  speed  ETV
vector 7719  IntersectionExampleScenario.node[90].veinsmobility  acceleration  ETV
vector 7720  IntersectionExampleScenario.node[90].veinsmobility  co2emission  ETV
7594	2340001 6746 19739 23625 279.75 335 222 0.973 11.90022389248 613.65260763529 3222.5834615296
7593	2346747 6210 19739 23625 279.75 335 222 -9.4386110305786 4 39.699392318726 535.31881647795
7592	2352957 6466 19722 23625 279.5 335 223 0 16.023370742798 2202.9815151691 31748.075690064
7591	2359423 7611 19705 23625 279.25 335 224 483.14999389648 785.82187652588 123241.57169342 69815774.630326
7590	2367034 7614 19705 23625 279.25 335 224 483.14999389648 733.64456176758 116484.64724731 61648070.016476
7615	2374648 5672 20455 23750 290.75 336.25 183 0.973 12.553400930962 578.03046278881 3459.197570197
7614	2380320 5662 20455 23750 290.75 336.25 183 -2.6446304321289 2.5 42.924703598022 349.02154967326
7613	2385982 5912 20436 23750 290.5 336.25 184 2.1439485549927 16.89999961853 2183.7836937904 30434.36181152
7612	2391894 6277 20417 23750 290.25 336.25 185 486.85000610352 785.82187652588 104574.70183563 60862585.328623
7611	2398171 6284 20417 23750 290.25 336.25 185 237.43914794922 483.14999389648 81759.189605713 37059236.228721
7608	2404455 7121 20247 24626 287.75 346.5 236 0.973 11.648172402475 599.95477041715 2955.6337735984
7607	2411576 6722 20247 24626 287.75 346.5 236 -9.2683753967285 4 37.662351608276 498.06998243849
7606	2418298 6795 20230 24626 287.5 346.5 237 0 15.64999961853 2185.2795364857 30465.401035362
7605	2425093 8069 20213 24626 287.25 346.5 238 184.17810058594 483.36395263672 100200.41213989 44214425.223176
7604	2433162 8029 20213 24626 287.25 346.5 238 486.85000610352 734.74336242676 124248.10206604 65949666.42296
vector 7723  IntersectionExampleScenario.node[91].veinsmobility  posx  ETV
vector 7724  IntersectionExampleScenario.node[91].veinsmobility  posy  ETV
7629	2441343 6125 20944 24645 297.25 346.75 199 0.973 12.099024792222 579.04322310813 3194.7095675632
7628	2447468 6363 20944 24645 297.25 346.75 199 -3.7384285926819 2.5000004768372 41.396924972534 355.00271481373
7627	2453831 6622 20926 24645 297 346.75 200 0 16.27499961853 2214.0131773092 30670.852531537
7626	2460453 6792 20907 24645 296.75 346.75 201 184.17810058594 732.60394287109 90083.226272583 44378405.894415
7625	2467245 6835 20907 24645 296.75 346.75 201 486.85000610352 486.85000610352 97856.851226807 47641608.617041
vector 7725  IntersectionExampleScenario.node[91].veinsmobility  speed  ETV
vector 7726  IntersectionExampleScenario.node[91].veinsmobility  acceleration  ETV
vector 7727  IntersectionExampleScenario.node[91].veinsmobility  co2emission  ETV
vector 7730  IntersectionExampleScenario.node[92].veinsmobility  posx  ETV
vector 7731  IntersectionExampleScenario.node[92].veinsmobility  posy  ETV
vector 7732  IntersectionExampleScenario.node[92].veinsmobility  speed  ETV
vector 7733  IntersectionExampleScenario.node[92].veinsmobility  acceleration  ETV
vector 7734  IntersectionExampleScenario.node[92].veinsmobility  co2emission  ETV
7636	2474720 5293 21610 24846 308 349.25 166 0.973 11.90022389248 567.14660438599 3421.8515234263
7635	2480013 5018 21610 24846 308 349.25 166 -2.8910942077637 2.5 41.057416915894 338.47100797493
7634	2485031 5381 21595 24846 307.75 349.25 167 5.6500000953674 16.186079025269 2205.4189767838 30842.250290723
7633	2490412 5682 21580 24846 307.5 349.25 168 184.17810058594 486.88095092773 67044.549926758 28504261.424665
7632	2496094 5706 21580 24846 307.5 349.25 168 237.40808105469 486.85000610352 73755.545776367 33329416.489467
vector 7737  IntersectionExampleScenario.node[93].veinsmobility  posx  ETV
vector 7738  IntersectionExampleScenario.node[93].veinsmobility  posy  ETV
vector 7739  IntersectionExampleScenario.node[93].veinsmobility  speed  ETV
vector 7740  IntersectionExampleScenario.node[93].veinsmobility  acceleration  ETV
vector 7741  IntersectionExampleScenario.node[93].veinsmobility  co2emission  ETV
7657	2502196 4866 21966 25051 314.25 351.5 150 0.973 12.099024792222 543.31593794779 3601.2616246669
7656	2507062 4487 21966 25051 314.25 351.5 150 -4.5 2.5000038146973 41.736440658569 309.57441486608
7655	2511549 4868 21947 25051 314 351.5 151 5.6500000953674 16.27499961853 2216.6312618256 33342.18410637
7654	2516417 5136 21928 25051 313.75 351.5 152 184.17810058594 732.7794342041 67863.478240967 34283254.987261
7653	2521553 5168 21928 25051 313.75 351.5 152 486.85000610352 486.85000610352 74001.200927734 36027485.123335
7643	2526721 5591 21947 25517 314 357 173 0.973 11.648172402475 544.05952980001 2907.6895309974
[...]
10182	14557960 5384 125483 129320 1724 1761.75 152 5.6500000953674 16.27499961853 2218.9882459641 33172.850027684
10181	14563344 5662 125456 129320 1723.75 1761.75 153 486.85000610352 486.85000610352 74488.050933838 36264508.051778
10180	14569006 5652 125456 129320 1723.75 1761.75 153 236.59118652344 785.82187652588 80000.909217834 45860721.301814
10198	14574658 5704 126028 129777 1728.75 1768 158 0.973 11.648172402475 490.30051086847 2628.2899425702
10197	14580362 5343 126028 129777 1728.75 1768 158 -3.439136505127 2.5 38.001859664917 238.01146598149
10196	14585705 5596 125997 129777 1728.5 1768 159 5.6500000953674 15.64999961853 2213.7336349487 31719.162551843
10195	14591301 5916 125966 129777 1728.25 1768 160 235.29779052734 486.85000610352 69341.009216309 31027687.362458
10194	14597217 5911 125966 129777 1728.25 1768 160 483.13668823242 785.82187652588 91464.347328186 54067524.580951
10142	14603128 7472 124643 129913 1714.5 1770 223 0.973 11.648172402475 597.26900281727 2991.5019490199
10141	14610600 6762 124643 129913 1714.5 1770 223 -6.8117866516113 4 38.850629806519 473.41515502781
10140	14617362 7225 124624 129913 1714.25 1770 224 0 15.64999961853 2204.3913049698 31457.643736509
10139	14624587 8310 124605 129913 1714 1770 225 238.74694824219 785.82187652588 115909.16550446 63812423.5101
10138	14632897 8323 124605 129913 1714 1770 225 483.14999389648 483.14999389648 108708.74862671 52522631.235489
10149	14641220 7877 124780 130032 1716.25 1771.75 223 0.97223939240464 11.810082123732 603.47768541651 3080.9810267045
10148	14649097 7865 124780 130032 1716.25 1771.75 223 -4.5 2.5000000372529 38.680875778198 449.29396988431
10147	14656962 7959 124759 130032 1716 1771.75 224 0 15.875 2267.8305485398 31665.479084742
10146	14664921 8310 124738 130032 1715.75 1771.75 225 486.85000610352 805.05782318115 126158.74337006 73011732.486278
10145	14673231 8317 124738 130032 1715.75 1771.75 225 235.27166748047 483.14999389648 100472.05368042 45921284.162959
vector 10257  IntersectionExampleScenario.node[453].veinsmobility  posx  ETV
vector 10258  IntersectionExampleScenario.node[453].veinsmobility  posy  ETV
10170	14681704 7193 125131 130066 1720.25 1772.25 209 0.973 11.648172402475 603.87374169784 3085.847861242
10169	14688897 7373 125131 130066 1720.25 1772.25 209 -4.5 2.5 41.736440658569 370.62173774881
10168	14696270 7584 125106 130066 1720 1772.25 210 0 16.144584655762 2273.8901909515 31942.17949701
10167	14703854 7784 125081 130066 1719.75 1772.25 211 238.37127685547 801.63986206055 111478.84693909 63215648.343628
10166	14711638 7807 125081 130066 1719.75 1772.25 211 483.14999389648 483.14999389648 101944.64871216 49254556.403058
vector 10259  IntersectionExampleScenario.node[453].veinsmobility  speed  ETV
vector 10260  IntersectionExampleScenario.node[453].veinsmobility  acceleration  ETV
vector 10261  IntersectionExampleScenario.node[453].veinsmobility  co2emission  ETV
vector 10264  IntersectionExampleScenario.node[454].veinsmobility  posx  ETV
vector 10265  IntersectionExampleScenario.node[454].veinsmobility  posy  ETV
vector 10266  IntersectionExampleScenario.node[454].veinsmobility  speed  ETV
vector 10267  IntersectionExampleScenario.node[454].veinsmobility  acceleration  ETV
vector 10268  IntersectionExampleScenario.node[454].veinsmobility  co2emission  ETV
vector 10271  IntersectionExampleScenario.node[455].veinsmobility  posx  ETV
vector 10272  IntersectionExampleScenario.node[455].veinsmobility  posy  ETV
vector 10278  IntersectionExampleScenario.node[456].veinsmobility  posx  ETV
vector 10279  IntersectionExampleScenario.node[456].veinsmobility  posy  ETV
vector 10273  IntersectionExampleScenario.node[455].veinsmobility  speed  ETV
vector 10274  IntersectionExampleScenario.node[455].veinsmobility  acceleration  ETV
vector 10275  IntersectionExampleScenario.node[455].veinsmobility  co2emission  ETV
vector 10280  IntersectionExampleScenario.node[456].veinsmobility  speed  ETV
vector 10281  IntersectionExampleScenario.node[456].veinsmobility  acceleration  ETV
vector 10282  IntersectionExampleScenario.node[456].veinsmobility  co2emission  ETV
10191	14720913 7158 125676 130480 1725.75 1777 206 0.973 11.200708441096 546.79571128749 2681.2523084257
10190	14728071 7072 125676 130480 1725.75 1777 206 -3.9207725524902 2.5 35.455564498901 393.28402266794
10189	14735143 7364 125647 130480 1725.5 1777 207 0 15.02499961853 2115.4932405613 26888.254639449
10188	14742507 7688 125618 130480 1725.25 1777 208 483.14999389648 762.99279022217 115239.14252472 65390571.33357
10187	14750195 7689 125618 130480 1725.25 1777 208 483.14999389648 733.423828125 109316.94725037 58551364.814888
10177	14757884 7461 125483 130587 1724 1778.25 218 0.973 11.977214001518 634.35815014788 3186.9402651765
10176	14765345 7753 125483 130587 1724 1778.25 218 -4.5 2.5000038146973 41.37949180603 452.98924442215
10175	14773098 7815 125456 130587 1723.75 1778.25 219 0 16.106590270996 2271.3583372533 29212.170159659
10174	14780913 8113 125431 130587 1723.5 1778.25 220 482.94360351562 801.6918182373 125946.75443268 74351807.515899
10173	14789026 8135 125431 130587 1723.5 1778.25 220 483.14999389648 733.55850219727 114656.87536621 60836749.352747
10156	14797161 8165 125036 130793 1719.25 1781 248 0.973 11.90022389248 637.58683452558 3238.9219718392
10155	14805326 7508 125036 130793 1719.25 1781 248 -29.485900878906 4 39.869146347046 1281.8114473649
10154	14812834 7689 125013 130793 1719 1781 249 0 16 2220.4510154724 32642.388483594
10153	14820523 9221 124990 130793 1718.75 1781 250 184.17810058594 735.07762145996 114422.36062622 56508555.799464
10152	14829744 9249 124990 130793 1718.75 1781 250 486.85000610352 486.85000610352 121712.50152588 59255732.110748
vector 10285  IntersectionExampleScenario.node[457].veinsmobility  posx  ETV
vector 10286  IntersectionExampleScenario.node[457].veinsmobility  posy  ETV
vector 10287  IntersectionExampleScenario.node[457].veinsmobility  speed  ETV
vector 10288  IntersectionExampleScenario.node[457].veinsmobility  acceleration  ETV
vector 10289  IntersectionExampleScenario.node[457].veinsmobility  co2emission  ETV
vector 10292  IntersectionExampleScenario.node[458].veinsmobility  posx  ETV
vector 10293  IntersectionExampleScenario.node[458].veinsmobility  posy  ETV
vector 10294  IntersectionExampleScenario.node[458].veinsmobility  speed  ETV
vector 10295  IntersectionExampleScenario.node[458].veinsmobility  acceleration  ETV
vector 10296  IntersectionExampleScenario.node[458].veinsmobility  co2emission  ETV
vector 10299  IntersectionExampleScenario.node[459].veinsmobility  posx  ETV
vector 10300  IntersectionExampleScenario.node[459].veinsmobility  posy  ETV
vector 10301  IntersectionExampleScenario.node[459].veinsmobility  speed  ETV
vector 10302  IntersectionExampleScenario.node[459].veinsmobility  acceleration  ETV
vector 10303  IntersectionExampleScenario.node[459].veinsmobility  co2emission  ETV
vector 10306  IntersectionExampleScenario.node[460].veinsmobility  posx  ETV
vector 10307  IntersectionExampleScenario.node[460].veinsmobility  posy  ETV
vector 10308  IntersectionExampleScenario.node[460].veinsmobility  speed  ETV
vector 10309  IntersectionExampleScenario.node[460].veinsmobility  acceleration  ETV
vector 10310  IntersectionExampleScenario.node[460].veinsmobility  co2emission  ETV
vector 10313  IntersectionExampleScenario.node[461].veinsmobility  posx  ETV
vector 10314  IntersectionExampleScenario.node[461].veinsmobility  posy  ETV
vector 10315  IntersectionExampleScenario.node[461].veinsmobility  speed  ETV
vector 10316  IntersectionExampleScenario.node[461].veinsmobility  acceleration  ETV
vector 10317  IntersectionExampleScenario.node[461].veinsmobility  co2emission  ETV
10205	14841023 7580 126894 131623 1736.25 1792.5 226 0.973 11.36141391502 582.50640770487 2794.8581230374
10204	14848603 6980 126894 131623 1736.25 1792.5 226 -6.7711477279663 4 36.98334312439 450.59403005823
10203	14855583 7295 126865 131623 1736 1792.5 227 0 15.25 2175.7520129681 29985.058215833
10202	14862878 8369 126836 131623 1735.75 1792.5 228 486.85000610352 732.63011169434 119325.64974976 63506908.228584
10201	14871247 8429 126836 131623 1735.75 1792.5 228 486.63604736328 785.82187652588 125810.93521881 71434380.776815
10233	14879676 6060 128257 131680 1749.75 1793.25 175 0.973 11.990504229548 541.31291933329 3004.256734325
10232	14885736 6022 128257 131680 1749.75 1793.25 175 -2.1482048034668 2.5 39.869146347046 294.59104707138
10231	14891758 6268 128232 131680 1749.5 1793.25 176 3.4718408584595 16.125 2214.3483781815 30590.951584238
10230	14898026 6550 128207 131680 1749.25 1793.25 177 486.85000610352 486.85000610352 86172.451080322 41953058.33441
10229	14904576 6536 128207 131680 1749.25 1793.25 177 237.79193115234 785.82187652588 92697.955070496 52606490.197803
vector 10320  IntersectionExampleScenario.node[462].veinsmobility  posx  ETV
vector 10321  IntersectionExampleScenario.node[462].veinsmobility  posy  ETV
vector 10322  IntersectionExampleScenario.node[462].veinsmobility  speed  ETV
vector 10323  IntersectionExampleScenario.node[462].veinsmobility  acceleration  ETV
vector 10324  IntersectionExampleScenario.node[462].veinsmobility  co2emission  ETV
vector 10327  IntersectionExampleScenario.node[463].veinsmobility  posx  ETV
vector 10328  IntersectionExampleScenario.node[463].veinsmobility  posy  ETV
10226	14911674 6415 128232 131762 1749.5 1794.25 180 0.973 11.200708441096 542.28705260802 2596.7792240762
10225	14918089 6130 128232 131762 1749.5 1794.25 180 -7.457010269165 4 37.32285118103 458.32695452623
10224	14924219 6598 128207 131762 1749.25 1794.25 181 0 15.042443275452 2193.0384574533 30343.613730563
10223	14930817 6724 128184 131762 1749 1794.25 182 483.14999389648 734.17846679688 96574.026550293 52276124.040253
10222	14937541 6705 128184 131762 1749 1794.25 182 184.17810058594 486.85000610352 73972.83215332 31955256.914569
vector 10329  IntersectionExampleScenario.node[463].veinsmobility  speed  ETV
vector 10330  IntersectionExampleScenario.node[463].veinsmobility  acceleration  ETV
vector 10331  IntersectionExampleScenario.node[463].veinsmobility  co2emission  ETV
vector 10334  IntersectionExampleScenario.node[464].veinsmobility  posx  ETV
vector 10335  IntersectionExampleScenario.node[464].veinsmobility  posy  ETV
vector 10336  IntersectionExampleScenario.node[464].veinsmobility  speed  ETV
10240	14944731 5805 128831 132017 1756 1797 165 0.973 11.450879080643 511.5389038389 2856.996054482
10239	14950536 5649 128831 132017 1756 1797 165 -4.5 2.5 36.98334312439 269.78541416882
10238	14956185 5854 128810 132017 1755.75 1797 166 5.6500000953674 15.375 2201.8099870682 30181.795777683
10237	14962039 6174 128789 132017 1755.5 1797 167 483.14999389648 732.03105163574 89196.697280884 48619388.523816
10236	14968213 6147 128789 132017 1755.5 1797 167 184.17810058594 486.85000610352 66679.445343018 28427975.177536
vector 10337  IntersectionExampleScenario.node[464].veinsmobility  acceleration  ETV
vector 10338  IntersectionExampleScenario.node[464].veinsmobility  co2emission  ETV
10247	14974531 5653 128977 132142 1757.75 1798.25 163 0.973 12.349050149253 618.10745057484 4160.1185717549
10246	14980184 5495 128977 132142 1757.75 1798.25 163 -3.567008972168 2.5000038146973 42.254262924194 425.35889409692
10245	14985679 5781 128956 132142 1757.5 1798.25 164 5.6500000953674 16.619524002075 2188.0433559418 30640.497255786
10244	14991460 6102 128935 132142 1757.25 1798.25 165 486.85000610352 734.12075805664 88560.748474121 48481021.690451
10243	14997562 6095 128935 132142 1757.25 1798.25 165 486.66766357422 785.82187652588 94405.220802307 55739160.585187
10254	15003657 5614 129149 132167 1759.75 1798.5 156 0.973 11.818650771393 491.00266417622 2662.8773997722
10253	15009271 5448 129149 132167 1759.75 1798.5 156 -3.4599800109863 2.5 38.511121749878 217.13294157372
10252	15014719 5572 129126 132167 1759.5 1798.5 157 5.6500000953674 15.886890411377 2248.3203697205 32832.787829486
10251	15020291 5847 129103 132167 1759.25 1798.5 158 483.14999389648 483.14999389648 76337.699035645 36882558.823143
10250	15026138 5800 129103 132167 1759.25 1798.5 158 176.21716308594 733.03929138184 70206.03553772 35502733.548487
10212	15031938 7700 127305 132313 1740 1800 241 0.973 12.099024792222 647.70646664323 3624.8026998919
10211	15039638 7131 127305 132313 1740 1800 241 -25.375595092773 4 41.397016525269 1101.2731295918
10210	15046769 7356 127275 132313 1739.75 1800 242 0 16.27499961853 1906.4099416733 26259.291283298
10209	15054125 8977 127246 132313 1739.5 1800 243 483.14999389648 785.82187652588 133388.05974579 75220372.620182
10208	15063102 8989 127246 132313 1739.5 1800 243 483.14999389648 658.30986022949 121424.72702026 61073597.601721
10219	15072091 7467 127506 132313 1741.75 1800 234 0.973 12.099024792222 578.97377985776 3092.5520627033
10218	15079558 6978 127506 132313 1741.75 1800 234 -4.5 2.5 40.039541244507 483.04154410137
10217	15086536 7112 127479 132313 1741.5 1800 235 0 16.27499961853 1864.5546246171 25831.082934199
10216	15093648 8718 127450 132313 1741.25 1800 236 486.84167480469 805.05782318115 131955.14749908 76026378.967956
10215	15102366 8731 127450 132313 1741.25 1800 236 335.79907226562 483.14999389648 111063.22894287 52515561.738361
10261	15111097 3644 130104 132313 1772.75 1800 110 0.973 11.648172402475 288.07436323017 1474.3597556636
10260	15114741 3546 130104 132313 1772.75 1800 110 -8.013355255127 2.5 -22.60000038147 328.35842840725
10259	15118287 3751 130085 132313 1772.5 1800 111 0 15.64999961853 1146.4864730835 16293.758593308
10258	15122038 4144 130066 132313 1772.25 1800 112 486.85000610352 486.85000610352 54527.200683594 26546567.985615
10257	15126182 4136 130066 132313 1772.25 1800 112 498.39999389648 785.82187652588 68523.937232971 43081490.730221
10268	15130318 3631 130184 132313 1773.75 1800 106 0.973 11.200708441096 273.06692554208 1326.480676524
10267	15133949 3734 130184 132313 1773.75 1800 106 -4.5 2.5 -22.03920841217 270.7958556504
10266	15137683 3936 130163 132313 1773.5 1800 107 0 15.02499961853 1208.1662642825 16287.251171522
10265	15141619 3996 130142 132313 1773.25 1800 108 486.85000610352 486.85000610352 52579.80065918 25598476.271843
10264	15145615 3980 130142 132313 1773.25 1800 108 505.62780761719 807.99687957764 69078.458343506 45324517.5403
10275	15149595 3504 130316 132313 1775.25 1800 100 0.973 12.099024792222 325.8042145174 1821.3316734504
10274	15153099 3377 130316 132313 1775.25 1800 100 -3.6334085464478 2.5 10.89999961853 328.81877121936
10273	15156476 3619 130291 132313 1775 1800 101 2.303174495697 16.27499961853 1236.7673671246 17266.564809916
10272	15160095 3741 130268 132313 1774.75 1800 102 184.17810058594 483.42434692383 35728.84854126 13574250.908945
10271	15163836 3772 130268 132313 1774.75 1800 102 486.85000610352 500.71362304688 49722.743255615 24239268.279391
10282	15167608 3404 130341 132313 1775.5 1800 99 0.973 11.200708441096 305.14560177277 1594.5124137946
10281	15171012 3354 130341 132313 1775.5 1800 99 -4.5 2.5 -14.940267562866 355.36187854506
10280	15174366 3688 130316 132313 1775.25 1800 100 1.9149332046509 15.616111755371 1196.7169620991 16422.676747272
10279	15178054 3735 130291 132313 1775 1800 101 486.85000610352 486.85000610352 49171.850616455 23939315.772742
10278	15181789 3723 130291 132313 1775 1800 101 516.89004516602 816.14531707764 66046.258865356 44210309.858339
10289	15185512 2529 130847 132313 1781.75 1800 74 0.96679164560935 12.019331627953 262.65745045877 1677.9813827215
10288	15188041 2620 130847 132313 1781.75 1800 74 -4.5 2.5 -0.4629020690918 250.57941537706
10287	15190661 2758 130829 132313 1781.5 1800 75 5.5342745780945 16.164873123169 976.99456214905 13758.197379244
10286	15193419 2812 130810 132313 1781.25 1800 76 486.85000610352 486.85000610352 37000.600463867 18013742.561667
10285	15196231 2804 130810 132313 1781.25 1800 76 547.05239868164 790.04917144775 50815.931152344 34465313.032272
10296	15199035 2492 130948 132313 1783.25 1800 68 0.973 12.099024792222 254.85640239129 1571.0298493549
10295	15201527 2373 130948 132313 1783.25 1800 68 -2.7360229492188 2.5 35.944204330444 121.29008575157
10294	15203900 2535 130931 132313 1783 1800 69 5.6500000953674 16.27499961853 1012.0706577301 15370.71341579
10293	15206435 2586 130914 132313 1782.75 1800 70 537.77194213867 785.82187652588 47117.535301208 32132349.125785
10292	15209021 2589 130914 132313 1782.75 1800 70 483.14999389648 483.14999389648 33820.499572754 16340374.162152
10303	15211610 1917 131224 132313 1787.25 1800 52 1.8321577376031 11.200708441096 200.5060591363 1217.3740190279
10302	15213527 1892 131224 132313 1787.25 1800 52 -0.086727142333984 2.5 37.15309715271 93.767182625834
10301	15215419 1948 131205 132313 1787 1800 53 5.6500000953674 15.02499961853 718.37626075745 10107.041377898
10300	15217367 1979 131186 132313 1786.75 1800 54 184.17810058594 358.79379272461 14166.510467529 3877961.4635026
10299	15219346 1997 131186 132313 1786.75 1800 54 486.85000610352 486.85000610352 26289.90032959 12799238.135922
10310	15221343 1695 131342 132313 1788.75 1800 46 1.986667772344 11.200708441096 188.41738411715 1192.9466109678
10309	15223038 1656 131342 132313 1788.75 1800 46 -0.044288635253906 2.5 37.322866439819 93.754473902987
10308	15224694 1727 131321 132313 1788.5 1800 47 5.6500000953674 15.02499961853 629.93487739563 8803.6902778652
10307	15226421 1774 131300 132313 1788.25 1800 48 633.3302154541 785.82187652588 34486.239295959 24887523.378365
10306	15228195 1776 131300 132313 1788.25 1800 48 483.14999389648 483.14999389648 23191.199707031 11204827.996904
10317	15229971 1254 131566 132313 1791.75 1800 34 2.0431810000593 11.200708441096 167.64420580147 1163.7175961076
10316	15231225 1148 131566 132313 1791.75 1800 34 -0.036972045898438 2.5 38.513090133667 94.088935941054
10315	15232373 1284 131547 132313 1791.5 1800 35 5.6500000953674 15.314749717712 455.50109291077 6272.0841277708
10314	15233657 1315 131528 132313 1791.25 1800 36 184.17810058594 292.97924804688 8291.985534668 1952641.3223497
10313	15234972 1332 131528 132313 1791.25 1800 36 486.85000610352 486.85000610352 17526.600219727 8532825.4239478
10324	15236304 920 131741 132313 1794 1800 25 1.7729555826186 11.648172402475 152.50303485888 1226.0114386984
10323	15237224 768 131741 132313 1794 1800 25 -0.11759185791016 2.5 39.564947128296 100.03141909096
10322	15237992 949 131720 132313 1793.75 1800 26 5.6500000953674 15.64999961853 321.16794967651 4269.0122477428
10321	15238941 998 131699 132313 1793.5 1800 27 483.14999389648 483.14999389648 13045.049835205 6302715.7482587
10320	15239939 981 131699 132313 1793.5 1800 27 184.17810058594 259.26141357422 5796.2196044922 1259464.5706619
10331	15240920 810 131808 132313 1794.75 1800 22 1.9337556822354 11.648172402475 146.60423526894 1214.3207744786
10330	15241730 651 131808 132313 1794.75 1800 22 -0.075153350830078 2.5 39.752885818481 100.01249145197
10329	15242381 840 131785 132313 1794.5 1800 23 5.6500000953674 15.64999961853 274.68440437317 3548.7924506181
10328	15243221 865 131762 132313 1794.25 1800 24 171.40313720703 234.8544921875 4723.5871582031 939225.67570718
10327	15244086 888 131762 132313 1794.25 1800 24 486.85000610352 486.85000610352 11684.400146484 5688550.2826318
10338	15244974 441 132042 132313 1797.25 1800 12 5.2162187258585 9.8772939209111 90.329754123875 705.60800469607
10337	15245415 312 132042 132313 1797.25 1800 12 2.4999980926514 2.5 29.999998092651 74.99999046326
10336	15245727 473 132017 132313 1797 1800 13 5.6500000953674 13.14999961853 122.19999694824 1219.7736818981
10335	15246200 517 131992 132313 1796.75 1800 14 759.49688720703 785.82187652588 10852.737617493 8414003.5481247
10334	15246717 517 131992 132313 1796.75 1800 14 483.14999389648 483.14999389648 6764.0999145508 3268074.8324304
7082	15247234 596 0 132312 0 1800 31 0 22 387 5361
7083	15247830 610 0 132312 0 1800 31 0 148 2276 226100
