version 2
run nodebug-13-20200606-18:32:12-22420
attr configname nodebug
attr datetime 20200606-18:32:12
attr experiment nodebug
attr inifile omnetpp.ini
attr iterationvars ""
attr iterationvars2 $repetition=13
attr measurement ""
attr network "\"org.car2x.veins.modules.application.ExtTraCIScenarioManagerLaunchd.IntersectionExampleScenario\""
attr processid 22420
attr repetition 13
attr replication #13
attr resultdir results
attr runnumber 13
attr seedset 13
param **.coreDebug false
param **.debug false
param *.**.nic.mac1609_4.bitrate 18Mbps
param *.**.nic.mac1609_4.txPower 20mW
param *.**.nic.mac1609_4.useServiceChannel false
param *.**.nic.phy80211p.analogueModels "xmldoc(\"config.xml\")"
param *.**.nic.phy80211p.decider "xmldoc(\"config.xml\")"
param *.**.nic.phy80211p.sensitivity -89dBm
param *.**.nic.phy80211p.thermalNoise -110dBm
param *.**.nic.phy80211p.usePropagationDelay true
param *.**.nic.phy80211p.useThermalNoise true
param *.annotations.draw false
param *.connectionManager.alpha 2.0
param *.connectionManager.carrierFrequency "5.890e9 Hz"
param *.connectionManager.pMax 20mW
param *.connectionManager.sat -89dBm
param *.connectionManager.sendDirect true
param *.manager.autoShutdown true
param *.manager.host "\"localhost\""
param *.manager.launchConfig "xmldoc(\"paramics.launchd.xml\")"
param *.manager.margin 25
param *.manager.moduleDisplayString "\"\""
param *.manager.moduleName "\"node\""
param *.manager.moduleType "\"org.car2x.veins.nodes.Car\""
param *.manager.port 9999
param *.manager.updateInterval 250ms
param *.node[*0].veinsmobility.accidentCount 0
param *.node[*0].veinsmobility.accidentDuration 30s
param *.node[*0].veinsmobility.accidentStart 75s
param *.node[*].appl.LiderSelectZoneRadio 55.0
param *.node[*].appl.ShareDataZoneRadio 110.0
param *.node[*].appl.TiempoSemaforo 30.0
param *.node[*].appl.beaconInterval 1s
param *.node[*].appl.beaconPriority 3
param *.node[*].appl.dataOnSch false
param *.node[*].appl.dataPriority 2
param *.node[*].appl.debug false
param *.node[*].appl.headerLength "256 bit"
param *.node[*].appl.maxOffset 0.005s
param *.node[*].appl.sendBeacons false
param *.node[*].appl.sendData true
param *.node[*].applType "\"Dummy\""
param *.node[*].mobilityType "\"TraCIMobility\""
param *.node[*].mobilityType.debug true
param *.node[*].veinsmobility.x 0
param *.node[*].veinsmobility.y 0
param *.node[*].veinsmobility.z 1.895
param *.node[*].veinsmobilityType "\"org.car2x.veins.modules.mobility.traci.TraCIMobility\""
param *.node[*].veinsmobilityType.debug true
param *.playgroundSizeX 8500m
param *.playgroundSizeY 8500m
param *.playgroundSizeZ 50m
param *.world.use2D false
param *.world.useTorus false

scalar IntersectionExampleScenario.node[0].appl 	VehicleRemoved 	0
scalar IntersectionExampleScenario.node[0].appl 	ArrivedAtDest 	1
scalar IntersectionExampleScenario.node[0].appl 	IntersectionEnterTime 	3.75
scalar IntersectionExampleScenario.node[0].appl 	IntersectionExitTime 	26.620718650171
scalar IntersectionExampleScenario.node[0].appl 	NumberOfCollisions 	0
scalar IntersectionExampleScenario.node[0].nic.phy80211p 	busyTime 	0
scalar IntersectionExampleScenario.node[0].nic.mac1609_4 	ReceivedUnicastPackets 	0
scalar IntersectionExampleScenario.node[0].nic.mac1609_4 	ReceivedBroadcasts 	0
scalar IntersectionExampleScenario.node[0].nic.mac1609_4 	SentPackets 	0
scalar IntersectionExampleScenario.node[0].nic.mac1609_4 	SNIRLostPackets 	0
scalar IntersectionExampleScenario.node[0].nic.mac1609_4 	RXTXLostPackets 	0
scalar IntersectionExampleScenario.node[0].nic.mac1609_4 	TotalLostPackets 	0
scalar IntersectionExampleScenario.node[0].nic.mac1609_4 	DroppedPacketsInMac 	0
scalar IntersectionExampleScenario.node[0].nic.mac1609_4 	TooLittleTime 	0
scalar IntersectionExampleScenario.node[0].nic.mac1609_4 	TimesIntoBackoff 	0
scalar IntersectionExampleScenario.node[0].nic.mac1609_4 	SlotsBackoff 	0
scalar IntersectionExampleScenario.node[0].nic.mac1609_4 	NumInternalContention 	0
scalar IntersectionExampleScenario.node[0].nic.mac1609_4 	totalBusyTime 	0
scalar IntersectionExampleScenario.node[0].veinsmobility 	startTime 	3.75
scalar IntersectionExampleScenario.node[0].veinsmobility 	totalTime 	38.25
scalar IntersectionExampleScenario.node[0].veinsmobility 	stopTime 	42.25
scalar IntersectionExampleScenario.node[0].veinsmobility 	minSpeed 	5.6500000953674
scalar IntersectionExampleScenario.node[0].veinsmobility 	maxSpeed 	16.27499961853
scalar IntersectionExampleScenario.node[0].veinsmobility 	totalDistance 	553.19480895996
scalar IntersectionExampleScenario.node[0].veinsmobility 	totalCO2Emission 	125.09063027882
scalar IntersectionExampleScenario.node[2].appl 	VehicleRemoved 	0
scalar IntersectionExampleScenario.node[2].appl 	ArrivedAtDest 	1
scalar IntersectionExampleScenario.node[2].appl 	IntersectionEnterTime 	20.5
scalar IntersectionExampleScenario.node[2].appl 	IntersectionExitTime 	43.7873061836
scalar IntersectionExampleScenario.node[2].appl 	NumberOfCollisions 	0
scalar IntersectionExampleScenario.node[2].nic.phy80211p 	busyTime 	0
scalar IntersectionExampleScenario.node[2].nic.mac1609_4 	ReceivedUnicastPackets 	0
scalar IntersectionExampleScenario.node[2].nic.mac1609_4 	ReceivedBroadcasts 	0
scalar IntersectionExampleScenario.node[2].nic.mac1609_4 	SentPackets 	0
scalar IntersectionExampleScenario.node[2].nic.mac1609_4 	SNIRLostPackets 	0
scalar IntersectionExampleScenario.node[2].nic.mac1609_4 	RXTXLostPackets 	0
scalar IntersectionExampleScenario.node[2].nic.mac1609_4 	TotalLostPackets 	0
scalar IntersectionExampleScenario.node[2].nic.mac1609_4 	DroppedPacketsInMac 	0
scalar IntersectionExampleScenario.node[2].nic.mac1609_4 	TooLittleTime 	0
scalar IntersectionExampleScenario.node[2].nic.mac1609_4 	TimesIntoBackoff 	0
scalar IntersectionExampleScenario.node[2].nic.mac1609_4 	SlotsBackoff 	0
scalar IntersectionExampleScenario.node[2].nic.mac1609_4 	NumInternalContention 	0
scalar IntersectionExampleScenario.node[2].nic.mac1609_4 	totalBusyTime 	0
scalar IntersectionExampleScenario.node[2].veinsmobility 	startTime 	20.5
scalar IntersectionExampleScenario.node[2].veinsmobility 	totalTime 	39.75
scalar IntersectionExampleScenario.node[2].veinsmobility 	stopTime 	60.5
scalar IntersectionExampleScenario.node[2].veinsmobility 	minSpeed 	5.6500000953674
scalar IntersectionExampleScenario.node[2].veinsmobility 	maxSpeed 	15.875
scalar IntersectionExampleScenario.node[2].veinsmobility 	totalDistance 	545.83989516393
scalar IntersectionExampleScenario.node[2].veinsmobility 	totalCO2Emission 	128.35904976917
scalar IntersectionExampleScenario.node[1].appl 	VehicleRemoved 	0
scalar IntersectionExampleScenario.node[1].appl 	ArrivedAtDest 	1
scalar IntersectionExampleScenario.node[1].appl 	IntersectionEnterTime 	7
scalar IntersectionExampleScenario.node[1].appl 	IntersectionExitTime 	50.346940813644
scalar IntersectionExampleScenario.node[1].appl 	NumberOfCollisions 	0
scalar IntersectionExampleScenario.node[1].nic.phy80211p 	busyTime 	0
scalar IntersectionExampleScenario.node[1].nic.mac1609_4 	ReceivedUnicastPackets 	0
scalar IntersectionExampleScenario.node[1].nic.mac1609_4 	ReceivedBroadcasts 	0
scalar IntersectionExampleScenario.node[1].nic.mac1609_4 	SentPackets 	0
scalar IntersectionExampleScenario.node[1].nic.mac1609_4 	SNIRLostPackets 	0
scalar IntersectionExampleScenario.node[1].nic.mac1609_4 	RXTXLostPackets 	0
scalar IntersectionExampleScenario.node[1].nic.mac1609_4 	TotalLostPackets 	0
scalar IntersectionExampleScenario.node[1].nic.mac1609_4 	DroppedPacketsInMac 	0
scalar IntersectionExampleScenario.node[1].nic.mac1609_4 	TooLittleTime 	0
scalar IntersectionExampleScenario.node[1].nic.mac1609_4 	TimesIntoBackoff 	0
scalar IntersectionExampleScenario.node[1].nic.mac1609_4 	SlotsBackoff 	0
scalar IntersectionExampleScenario.node[1].nic.mac1609_4 	NumInternalContention 	0
scalar IntersectionExampleScenario.node[1].nic.mac1609_4 	totalBusyTime 	0
scalar IntersectionExampleScenario.node[1].veinsmobility 	startTime 	7
scalar IntersectionExampleScenario.node[1].veinsmobility 	totalTime 	58.5
scalar IntersectionExampleScenario.node[1].veinsmobility 	stopTime 	65.75
scalar IntersectionExampleScenario.node[1].veinsmobility 	minSpeed 	0
scalar IntersectionExampleScenario.node[1].veinsmobility 	maxSpeed 	16.27499961853
scalar IntersectionExampleScenario.node[1].veinsmobility 	totalDistance 	551.21318054199
scalar IntersectionExampleScenario.node[1].veinsmobility 	totalCO2Emission 	156.6251607762
scalar IntersectionExampleScenario.node[5].appl 	VehicleRemoved 	0
scalar IntersectionExampleScenario.node[5].appl 	ArrivedAtDest 	1
scalar IntersectionExampleScenario.node[5].appl 	IntersectionEnterTime 	30.75
scalar IntersectionExampleScenario.node[5].appl 	IntersectionExitTime 	54.114721547958
scalar IntersectionExampleScenario.node[5].appl 	NumberOfCollisions 	0
scalar IntersectionExampleScenario.node[5].nic.phy80211p 	busyTime 	0
scalar IntersectionExampleScenario.node[5].nic.mac1609_4 	ReceivedUnicastPackets 	0
scalar IntersectionExampleScenario.node[5].nic.mac1609_4 	ReceivedBroadcasts 	0
scalar IntersectionExampleScenario.node[5].nic.mac1609_4 	SentPackets 	0
scalar IntersectionExampleScenario.node[5].nic.mac1609_4 	SNIRLostPackets 	0
scalar IntersectionExampleScenario.node[5].nic.mac1609_4 	RXTXLostPackets 	0
scalar IntersectionExampleScenario.node[5].nic.mac1609_4 	TotalLostPackets 	0
scalar IntersectionExampleScenario.node[5].nic.mac1609_4 	DroppedPacketsInMac 	0
scalar IntersectionExampleScenario.node[5].nic.mac1609_4 	TooLittleTime 	0
scalar IntersectionExampleScenario.node[5].nic.mac1609_4 	TimesIntoBackoff 	0
scalar IntersectionExampleScenario.node[5].nic.mac1609_4 	SlotsBackoff 	0
scalar IntersectionExampleScenario.node[5].nic.mac1609_4 	NumInternalContention 	0
scalar IntersectionExampleScenario.node[5].nic.mac1609_4 	totalBusyTime 	0
scalar IntersectionExampleScenario.node[5].veinsmobility 	startTime 	30.75
scalar IntersectionExampleScenario.node[5].veinsmobility 	totalTime 	39
scalar IntersectionExampleScenario.node[5].veinsmobility 	stopTime 	70
scalar IntersectionExampleScenario.node[5].veinsmobility 	minSpeed 	5.6500000953674
scalar IntersectionExampleScenario.node[5].veinsmobility 	maxSpeed 	16.27499961853
scalar IntersectionExampleScenario.node[5].veinsmobility 	totalDistance 	548.47326308545
scalar IntersectionExampleScenario.node[5].veinsmobility 	totalCO2Emission 	139.02911692886
scalar IntersectionExampleScenario.node[7].appl 	VehicleRemoved 	0
scalar IntersectionExampleScenario.node[7].appl 	ArrivedAtDest 	1
scalar IntersectionExampleScenario.node[7].appl 	IntersectionEnterTime 	36.75
scalar IntersectionExampleScenario.node[7].appl 	IntersectionExitTime 	59.759464680974
scalar IntersectionExampleScenario.node[7].appl 	NumberOfCollisions 	0
scalar IntersectionExampleScenario.node[7].nic.phy80211p 	busyTime 	0
scalar IntersectionExampleScenario.node[7].nic.mac1609_4 	ReceivedUnicastPackets 	0
scalar IntersectionExampleScenario.node[7].nic.mac1609_4 	ReceivedBroadcasts 	0
scalar IntersectionExampleScenario.node[7].nic.mac1609_4 	SentPackets 	0
scalar IntersectionExampleScenario.node[7].nic.mac1609_4 	SNIRLostPackets 	0
scalar IntersectionExampleScenario.node[7].nic.mac1609_4 	RXTXLostPackets 	0
scalar IntersectionExampleScenario.node[7].nic.mac1609_4 	TotalLostPackets 	0
scalar IntersectionExampleScenario.node[7].nic.mac1609_4 	DroppedPacketsInMac 	0
scalar IntersectionExampleScenario.node[7].nic.mac1609_4 	TooLittleTime 	0
scalar IntersectionExampleScenario.node[7].nic.mac1609_4 	TimesIntoBackoff 	0
scalar IntersectionExampleScenario.node[7].nic.mac1609_4 	SlotsBackoff 	0
scalar IntersectionExampleScenario.node[7].nic.mac1609_4 	NumInternalContention 	0
scalar IntersectionExampleScenario.node[7].nic.mac1609_4 	totalBusyTime 	0
scalar IntersectionExampleScenario.node[7].veinsmobility 	startTime 	36.75
scalar IntersectionExampleScenario.node[7].veinsmobility 	totalTime 	39.25
scalar IntersectionExampleScenario.node[7].veinsmobility 	stopTime 	76.25
scalar IntersectionExampleScenario.node[7].veinsmobility 	minSpeed 	5.6500000953674
scalar IntersectionExampleScenario.node[7].veinsmobility 	maxSpeed 	15.64999961853
scalar IntersectionExampleScenario.node[7].veinsmobility 	totalDistance 	549.69975444119
scalar IntersectionExampleScenario.node[7].veinsmobility 	totalCO2Emission 	123.08892447407
scalar IntersectionExampleScenario.node[3].appl 	VehicleRemoved 	0
scalar IntersectionExampleScenario.node[3].appl 	ArrivedAtDest 	1
scalar IntersectionExampleScenario.node[3].appl 	IntersectionEnterTime 	24.25
scalar IntersectionExampleScenario.node[3].appl 	IntersectionExitTime 	60.834980994143
scalar IntersectionExampleScenario.node[3].appl 	NumberOfCollisions 	0
scalar IntersectionExampleScenario.node[3].nic.phy80211p 	busyTime 	0
scalar IntersectionExampleScenario.node[3].nic.mac1609_4 	ReceivedUnicastPackets 	0
scalar IntersectionExampleScenario.node[3].nic.mac1609_4 	ReceivedBroadcasts 	0
scalar IntersectionExampleScenario.node[3].nic.mac1609_4 	SentPackets 	0
scalar IntersectionExampleScenario.node[3].nic.mac1609_4 	SNIRLostPackets 	0
scalar IntersectionExampleScenario.node[3].nic.mac1609_4 	RXTXLostPackets 	0
scalar IntersectionExampleScenario.node[3].nic.mac1609_4 	TotalLostPackets 	0
scalar IntersectionExampleScenario.node[3].nic.mac1609_4 	DroppedPacketsInMac 	0
scalar IntersectionExampleScenario.node[3].nic.mac1609_4 	TooLittleTime 	0
scalar IntersectionExampleScenario.node[3].nic.mac1609_4 	TimesIntoBackoff 	0
scalar IntersectionExampleScenario.node[3].nic.mac1609_4 	SlotsBackoff 	0
scalar IntersectionExampleScenario.node[3].nic.mac1609_4 	NumInternalContention 	0
scalar IntersectionExampleScenario.node[3].nic.mac1609_4 	totalBusyTime 	0
scalar IntersectionExampleScenario.node[3].veinsmobility 	startTime 	24.25
scalar IntersectionExampleScenario.node[3].veinsmobility 	totalTime 	53.25
scalar IntersectionExampleScenario.node[3].veinsmobility 	stopTime 	77.75
scalar IntersectionExampleScenario.node[3].veinsmobility 	minSpeed 	0
scalar IntersectionExampleScenario.node[3].veinsmobility 	maxSpeed 	15.02499961853
scalar IntersectionExampleScenario.node[3].veinsmobility 	totalDistance 	548.95662813615
scalar IntersectionExampleScenario.node[3].veinsmobility 	totalCO2Emission 	140.21803309941
scalar IntersectionExampleScenario.node[4].appl 	VehicleRemoved 	0
scalar IntersectionExampleScenario.node[4].appl 	ArrivedAtDest 	1
scalar IntersectionExampleScenario.node[4].appl 	IntersectionEnterTime 	28
scalar IntersectionExampleScenario.node[4].appl 	IntersectionExitTime 	62.294791723019
scalar IntersectionExampleScenario.node[4].appl 	NumberOfCollisions 	0
scalar IntersectionExampleScenario.node[4].nic.phy80211p 	busyTime 	0
scalar IntersectionExampleScenario.node[4].nic.mac1609_4 	ReceivedUnicastPackets 	0
scalar IntersectionExampleScenario.node[4].nic.mac1609_4 	ReceivedBroadcasts 	0
scalar IntersectionExampleScenario.node[4].nic.mac1609_4 	SentPackets 	0
scalar IntersectionExampleScenario.node[4].nic.mac1609_4 	SNIRLostPackets 	0
scalar IntersectionExampleScenario.node[4].nic.mac1609_4 	RXTXLostPackets 	0
scalar IntersectionExampleScenario.node[4].nic.mac1609_4 	TotalLostPackets 	0
scalar IntersectionExampleScenario.node[4].nic.mac1609_4 	DroppedPacketsInMac 	0
scalar IntersectionExampleScenario.node[4].nic.mac1609_4 	TooLittleTime 	0
scalar IntersectionExampleScenario.node[4].nic.mac1609_4 	TimesIntoBackoff 	0
scalar IntersectionExampleScenario.node[4].nic.mac1609_4 	SlotsBackoff 	0
scalar IntersectionExampleScenario.node[4].nic.mac1609_4 	NumInternalContention 	0
scalar IntersectionExampleScenario.node[4].nic.mac1609_4 	totalBusyTime 	0
scalar IntersectionExampleScenario.node[4].veinsmobility 	startTime 	28
scalar IntersectionExampleScenario.node[4].veinsmobility 	totalTime 	50.75
scalar IntersectionExampleScenario.node[4].veinsmobility 	stopTime 	79
scalar IntersectionExampleScenario.node[4].veinsmobility 	minSpeed 	0
scalar IntersectionExampleScenario.node[4].veinsmobility 	maxSpeed 	15.02499961853
scalar IntersectionExampleScenario.node[4].veinsmobility 	totalDistance 	561.48826599121
scalar IntersectionExampleScenario.node[4].veinsmobility 	totalCO2Emission 	139.53400853659
scalar IntersectionExampleScenario.node[6].appl 	VehicleRemoved 	0
scalar IntersectionExampleScenario.node[6].appl 	ArrivedAtDest 	1
scalar IntersectionExampleScenario.node[6].appl 	IntersectionEnterTime 	34.25
scalar IntersectionExampleScenario.node[6].appl 	IntersectionExitTime 	64.359226681263
scalar IntersectionExampleScenario.node[6].appl 	NumberOfCollisions 	0
scalar IntersectionExampleScenario.node[6].nic.phy80211p 	busyTime 	0
scalar IntersectionExampleScenario.node[6].nic.mac1609_4 	ReceivedUnicastPackets 	0
scalar IntersectionExampleScenario.node[6].nic.mac1609_4 	ReceivedBroadcasts 	0
scalar IntersectionExampleScenario.node[6].nic.mac1609_4 	SentPackets 	0
scalar IntersectionExampleScenario.node[6].nic.mac1609_4 	SNIRLostPackets 	0
scalar IntersectionExampleScenario.node[6].nic.mac1609_4 	RXTXLostPackets 	0
scalar IntersectionExampleScenario.node[6].nic.mac1609_4 	TotalLostPackets 	0
scalar IntersectionExampleScenario.node[6].nic.mac1609_4 	DroppedPacketsInMac 	0
scalar IntersectionExampleScenario.node[6].nic.mac1609_4 	TooLittleTime 	0
scalar IntersectionExampleScenario.node[6].nic.mac1609_4 	TimesIntoBackoff 	0
scalar IntersectionExampleScenario.node[6].nic.mac1609_4 	SlotsBackoff 	0
scalar IntersectionExampleScenario.node[6].nic.mac1609_4 	NumInternalContention 	0
scalar IntersectionExampleScenario.node[6].nic.mac1609_4 	totalBusyTime 	0
scalar IntersectionExampleScenario.node[6].veinsmobility 	startTime 	34.25
scalar IntersectionExampleScenario.node[6].veinsmobility 	totalTime 	46.5
scalar IntersectionExampleScenario.node[6].veinsmobility 	stopTime 	81
scalar IntersectionExampleScenario.node[6].veinsmobility 	minSpeed 	3.2880883216858
scalar IntersectionExampleScenario.node[6].veinsmobility 	maxSpeed 	15.875
scalar IntersectionExampleScenario.node[6].veinsmobility 	totalDistance 	545.94461245645
scalar IntersectionExampleScenario.node[6].veinsmobility 	totalCO2Emission 	141.00404880648
scalar IntersectionExampleScenario.node[8].appl 	VehicleRemoved 	0
scalar IntersectionExampleScenario.node[8].appl 	ArrivedAtDest 	1
scalar IntersectionExampleScenario.node[8].appl 	IntersectionEnterTime 	45
scalar IntersectionExampleScenario.node[8].appl 	IntersectionExitTime 	68.369446768047
scalar IntersectionExampleScenario.node[8].appl 	NumberOfCollisions 	0
scalar IntersectionExampleScenario.node[8].nic.phy80211p 	busyTime 	0
scalar IntersectionExampleScenario.node[8].nic.mac1609_4 	ReceivedUnicastPackets 	0
scalar IntersectionExampleScenario.node[8].nic.mac1609_4 	ReceivedBroadcasts 	0
scalar IntersectionExampleScenario.node[8].nic.mac1609_4 	SentPackets 	0
scalar IntersectionExampleScenario.node[8].nic.mac1609_4 	SNIRLostPackets 	0
scalar IntersectionExampleScenario.node[8].nic.mac1609_4 	RXTXLostPackets 	0
scalar IntersectionExampleScenario.node[8].nic.mac1609_4 	TotalLostPackets 	0
scalar IntersectionExampleScenario.node[8].nic.mac1609_4 	DroppedPacketsInMac 	0
scalar IntersectionExampleScenario.node[8].nic.mac1609_4 	TooLittleTime 	0
scalar IntersectionExampleScenario.node[8].nic.mac1609_4 	TimesIntoBackoff 	0
scalar IntersectionExampleScenario.node[8].nic.mac1609_4 	SlotsBackoff 	0
scalar IntersectionExampleScenario.node[8].nic.mac1609_4 	NumInternalContention 	0
scalar IntersectionExampleScenario.node[8].nic.mac1609_4 	totalBusyTime 	0
scalar IntersectionExampleScenario.node[8].veinsmobility 	startTime 	45
scalar IntersectionExampleScenario.node[8].veinsmobility 	totalTime 	39.5
scalar IntersectionExampleScenario.node[8].veinsmobility 	stopTime 	84.75
scalar IntersectionExampleScenario.node[8].veinsmobility 	minSpeed 	5.6500000953674
scalar IntersectionExampleScenario.node[8].veinsmobility 	maxSpeed 	15.64999961853
scalar IntersectionExampleScenario.node[8].veinsmobility 	totalDistance 	549.76686729938
scalar IntersectionExampleScenario.node[8].veinsmobility 	totalCO2Emission 	123.32852955399
scalar IntersectionExampleScenario.node[9].appl 	VehicleRemoved 	0
scalar IntersectionExampleScenario.node[9].appl 	ArrivedAtDest 	1
scalar IntersectionExampleScenario.node[9].appl 	IntersectionEnterTime 	46.25
scalar IntersectionExampleScenario.node[9].appl 	IntersectionExitTime 	74.290572756814
scalar IntersectionExampleScenario.node[9].appl 	NumberOfCollisions 	0
scalar IntersectionExampleScenario.node[9].nic.phy80211p 	busyTime 	0
scalar IntersectionExampleScenario.node[9].nic.mac1609_4 	ReceivedUnicastPackets 	0
scalar IntersectionExampleScenario.node[9].nic.mac1609_4 	ReceivedBroadcasts 	0
scalar IntersectionExampleScenario.node[9].nic.mac1609_4 	SentPackets 	0
scalar IntersectionExampleScenario.node[9].nic.mac1609_4 	SNIRLostPackets 	0
scalar IntersectionExampleScenario.node[9].nic.mac1609_4 	RXTXLostPackets 	0
scalar IntersectionExampleScenario.node[9].nic.mac1609_4 	TotalLostPackets 	0
scalar IntersectionExampleScenario.node[9].nic.mac1609_4 	DroppedPacketsInMac 	0
scalar IntersectionExampleScenario.node[9].nic.mac1609_4 	TooLittleTime 	0
scalar IntersectionExampleScenario.node[9].nic.mac1609_4 	TimesIntoBackoff 	0
scalar IntersectionExampleScenario.node[9].nic.mac1609_4 	SlotsBackoff 	0
scalar IntersectionExampleScenario.node[9].nic.mac1609_4 	NumInternalContention 	0
scalar IntersectionExampleScenario.node[9].nic.mac1609_4 	totalBusyTime 	0
scalar IntersectionExampleScenario.node[9].veinsmobility 	startTime 	46.25
scalar IntersectionExampleScenario.node[9].veinsmobility 	totalTime 	44
scalar IntersectionExampleScenario.node[9].veinsmobility 	stopTime 	90.5
scalar IntersectionExampleScenario.node[9].veinsmobility 	minSpeed 	0
scalar IntersectionExampleScenario.node[9].veinsmobility 	maxSpeed 	15.64999961853
scalar IntersectionExampleScenario.node[9].veinsmobility 	totalDistance 	549.41291917911
scalar IntersectionExampleScenario.node[9].veinsmobility 	totalCO2Emission 	136.70829036771
scalar IntersectionExampleScenario.node[11].appl 	VehicleRemoved 	0
scalar IntersectionExampleScenario.node[11].appl 	ArrivedAtDest 	1
scalar IntersectionExampleScenario.node[11].appl 	IntersectionEnterTime 	53
scalar IntersectionExampleScenario.node[11].appl 	IntersectionExitTime 	77.067202361795
scalar IntersectionExampleScenario.node[11].appl 	NumberOfCollisions 	0
scalar IntersectionExampleScenario.node[11].nic.phy80211p 	busyTime 	0
scalar IntersectionExampleScenario.node[11].nic.mac1609_4 	ReceivedUnicastPackets 	0
scalar IntersectionExampleScenario.node[11].nic.mac1609_4 	ReceivedBroadcasts 	0
scalar IntersectionExampleScenario.node[11].nic.mac1609_4 	SentPackets 	0
scalar IntersectionExampleScenario.node[11].nic.mac1609_4 	SNIRLostPackets 	0
scalar IntersectionExampleScenario.node[11].nic.mac1609_4 	RXTXLostPackets 	0
scalar IntersectionExampleScenario.node[11].nic.mac1609_4 	TotalLostPackets 	0
scalar IntersectionExampleScenario.node[11].nic.mac1609_4 	DroppedPacketsInMac 	0
scalar IntersectionExampleScenario.node[11].nic.mac1609_4 	TooLittleTime 	0
scalar IntersectionExampleScenario.node[11].nic.mac1609_4 	TimesIntoBackoff 	0
scalar IntersectionExampleScenario.node[11].nic.mac1609_4 	SlotsBackoff 	0
scalar IntersectionExampleScenario.node[11].nic.mac1609_4 	NumInternalContention 	0
scalar IntersectionExampleScenario.node[11].nic.mac1609_4 	totalBusyTime 	0
scalar IntersectionExampleScenario.node[11].veinsmobility 	startTime 	53
scalar IntersectionExampleScenario.node[11].veinsmobility 	totalTime 	40
scalar IntersectionExampleScenario.node[11].veinsmobility 	stopTime 	93.25
scalar IntersectionExampleScenario.node[11].veinsmobility 	minSpeed 	5.6500000953674
scalar IntersectionExampleScenario.node[11].veinsmobility 	maxSpeed 	15.5
scalar IntersectionExampleScenario.node[11].veinsmobility 	totalDistance 	551.3401260376
scalar IntersectionExampleScenario.node[11].veinsmobility 	totalCO2Emission 	129.05622216617
scalar IntersectionExampleScenario.node[12].appl 	VehicleRemoved 	0
scalar IntersectionExampleScenario.node[12].appl 	ArrivedAtDest 	1
scalar IntersectionExampleScenario.node[12].appl 	IntersectionEnterTime 	55
scalar IntersectionExampleScenario.node[12].appl 	IntersectionExitTime 	85.317902663577
scalar IntersectionExampleScenario.node[12].appl 	NumberOfCollisions 	0
scalar IntersectionExampleScenario.node[12].nic.phy80211p 	busyTime 	0
scalar IntersectionExampleScenario.node[12].nic.mac1609_4 	ReceivedUnicastPackets 	0
scalar IntersectionExampleScenario.node[12].nic.mac1609_4 	ReceivedBroadcasts 	0
scalar IntersectionExampleScenario.node[12].nic.mac1609_4 	SentPackets 	0
scalar IntersectionExampleScenario.node[12].nic.mac1609_4 	SNIRLostPackets 	0
scalar IntersectionExampleScenario.node[12].nic.mac1609_4 	RXTXLostPackets 	0
scalar IntersectionExampleScenario.node[12].nic.mac1609_4 	TotalLostPackets 	0
scalar IntersectionExampleScenario.node[12].nic.mac1609_4 	DroppedPacketsInMac 	0
scalar IntersectionExampleScenario.node[12].nic.mac1609_4 	TooLittleTime 	0
scalar IntersectionExampleScenario.node[12].nic.mac1609_4 	TimesIntoBackoff 	0
scalar IntersectionExampleScenario.node[12].nic.mac1609_4 	SlotsBackoff 	0
scalar IntersectionExampleScenario.node[12].nic.mac1609_4 	NumInternalContention 	0
scalar IntersectionExampleScenario.node[12].nic.mac1609_4 	totalBusyTime 	0
scalar IntersectionExampleScenario.node[12].veinsmobility 	startTime 	55
scalar IntersectionExampleScenario.node[12].veinsmobility 	totalTime 	47
scalar IntersectionExampleScenario.node[12].veinsmobility 	stopTime 	102.25
scalar IntersectionExampleScenario.node[12].veinsmobility 	minSpeed 	0
scalar IntersectionExampleScenario.node[12].veinsmobility 	maxSpeed 	15.02499961853
scalar IntersectionExampleScenario.node[12].veinsmobility 	totalDistance 	550.91416277041
scalar IntersectionExampleScenario.node[12].veinsmobility 	totalCO2Emission 	134.34428200188
scalar IntersectionExampleScenario.node[10].appl 	VehicleRemoved 	0
scalar IntersectionExampleScenario.node[10].appl 	ArrivedAtDest 	1
scalar IntersectionExampleScenario.node[10].appl 	IntersectionEnterTime 	52.25
scalar IntersectionExampleScenario.node[10].appl 	IntersectionExitTime 	95.835822182387
scalar IntersectionExampleScenario.node[10].appl 	NumberOfCollisions 	0
scalar IntersectionExampleScenario.node[10].nic.phy80211p 	busyTime 	0
scalar IntersectionExampleScenario.node[10].nic.mac1609_4 	ReceivedUnicastPackets 	0
scalar IntersectionExampleScenario.node[10].nic.mac1609_4 	ReceivedBroadcasts 	0
scalar IntersectionExampleScenario.node[10].nic.mac1609_4 	SentPackets 	0
scalar IntersectionExampleScenario.node[10].nic.mac1609_4 	SNIRLostPackets 	0
scalar IntersectionExampleScenario.node[10].nic.mac1609_4 	RXTXLostPackets 	0
scalar IntersectionExampleScenario.node[10].nic.mac1609_4 	TotalLostPackets 	0
scalar IntersectionExampleScenario.node[10].nic.mac1609_4 	DroppedPacketsInMac 	0
scalar IntersectionExampleScenario.node[10].nic.mac1609_4 	TooLittleTime 	0
scalar IntersectionExampleScenario.node[10].nic.mac1609_4 	TimesIntoBackoff 	0
scalar IntersectionExampleScenario.node[10].nic.mac1609_4 	SlotsBackoff 	0
scalar IntersectionExampleScenario.node[10].nic.mac1609_4 	NumInternalContention 	0
scalar IntersectionExampleScenario.node[10].nic.mac1609_4 	totalBusyTime 	0
scalar IntersectionExampleScenario.node[10].veinsmobility 	startTime 	52.25
scalar IntersectionExampleScenario.node[10].veinsmobility 	totalTime 	59.75
scalar IntersectionExampleScenario.node[10].veinsmobility 	stopTime 	112.25
scalar IntersectionExampleScenario.node[10].veinsmobility 	minSpeed 	0
scalar IntersectionExampleScenario.node[10].veinsmobility 	maxSpeed 	15.64999961853
scalar IntersectionExampleScenario.node[10].veinsmobility 	totalDistance 	550.35448580217
scalar IntersectionExampleScenario.node[10].veinsmobility 	totalCO2Emission 	151.73338086962
scalar IntersectionExampleScenario.node[13].appl 	VehicleRemoved 	0
scalar IntersectionExampleScenario.node[13].appl 	ArrivedAtDest 	1
scalar IntersectionExampleScenario.node[13].appl 	IntersectionEnterTime 	63.5
scalar IntersectionExampleScenario.node[13].appl 	IntersectionExitTime 	96.275798499235
scalar IntersectionExampleScenario.node[13].appl 	NumberOfCollisions 	0
scalar IntersectionExampleScenario.node[13].nic.phy80211p 	busyTime 	0
scalar IntersectionExampleScenario.node[13].nic.mac1609_4 	ReceivedUnicastPackets 	0
scalar IntersectionExampleScenario.node[13].nic.mac1609_4 	ReceivedBroadcasts 	0
scalar IntersectionExampleScenario.node[13].nic.mac1609_4 	SentPackets 	0
scalar IntersectionExampleScenario.node[13].nic.mac1609_4 	SNIRLostPackets 	0
scalar IntersectionExampleScenario.node[13].nic.mac1609_4 	RXTXLostPackets 	0
scalar IntersectionExampleScenario.node[13].nic.mac1609_4 	TotalLostPackets 	0
scalar IntersectionExampleScenario.node[13].nic.mac1609_4 	DroppedPacketsInMac 	0
scalar IntersectionExampleScenario.node[13].nic.mac1609_4 	TooLittleTime 	0
scalar IntersectionExampleScenario.node[13].nic.mac1609_4 	TimesIntoBackoff 	0
scalar IntersectionExampleScenario.node[13].nic.mac1609_4 	SlotsBackoff 	0
scalar IntersectionExampleScenario.node[13].nic.mac1609_4 	NumInternalContention 	0
scalar IntersectionExampleScenario.node[13].nic.mac1609_4 	totalBusyTime 	0
scalar IntersectionExampleScenario.node[13].veinsmobility 	startTime 	63.5
scalar IntersectionExampleScenario.node[13].veinsmobility 	totalTime 	49.25
scalar IntersectionExampleScenario.node[13].veinsmobility 	stopTime 	113
scalar IntersectionExampleScenario.node[13].veinsmobility 	minSpeed 	0
scalar IntersectionExampleScenario.node[13].veinsmobility 	maxSpeed 	15.02499961853
scalar IntersectionExampleScenario.node[13].veinsmobility 	totalDistance 	548.43556322208
scalar IntersectionExampleScenario.node[13].veinsmobility 	totalCO2Emission 	136.99665782743
scalar IntersectionExampleScenario.node[15].appl 	VehicleRemoved 	0
scalar IntersectionExampleScenario.node[15].appl 	ArrivedAtDest 	1
scalar IntersectionExampleScenario.node[15].appl 	IntersectionEnterTime 	67.5
scalar IntersectionExampleScenario.node[15].appl 	IntersectionExitTime 	97.306288672145
scalar IntersectionExampleScenario.node[15].appl 	NumberOfCollisions 	0
scalar IntersectionExampleScenario.node[15].nic.phy80211p 	busyTime 	0
scalar IntersectionExampleScenario.node[15].nic.mac1609_4 	ReceivedUnicastPackets 	0
scalar IntersectionExampleScenario.node[15].nic.mac1609_4 	ReceivedBroadcasts 	0
scalar IntersectionExampleScenario.node[15].nic.mac1609_4 	SentPackets 	0
scalar IntersectionExampleScenario.node[15].nic.mac1609_4 	SNIRLostPackets 	0
scalar IntersectionExampleScenario.node[15].nic.mac1609_4 	RXTXLostPackets 	0
scalar IntersectionExampleScenario.node[15].nic.mac1609_4 	TotalLostPackets 	0
scalar IntersectionExampleScenario.node[15].nic.mac1609_4 	DroppedPacketsInMac 	0
scalar IntersectionExampleScenario.node[15].nic.mac1609_4 	TooLittleTime 	0
scalar IntersectionExampleScenario.node[15].nic.mac1609_4 	TimesIntoBackoff 	0
scalar IntersectionExampleScenario.node[15].nic.mac1609_4 	SlotsBackoff 	0
scalar IntersectionExampleScenario.node[15].nic.mac1609_4 	NumInternalContention 	0
scalar IntersectionExampleScenario.node[15].nic.mac1609_4 	totalBusyTime 	0
scalar IntersectionExampleScenario.node[15].veinsmobility 	startTime 	67.5
scalar IntersectionExampleScenario.node[15].veinsmobility 	totalTime 	46
scalar IntersectionExampleScenario.node[15].veinsmobility 	stopTime 	113.75
scalar IntersectionExampleScenario.node[15].veinsmobility 	minSpeed 	0.95275408029556
scalar IntersectionExampleScenario.node[15].veinsmobility 	maxSpeed 	15.5
scalar IntersectionExampleScenario.node[15].veinsmobility 	totalDistance 	559.67959594727
scalar IntersectionExampleScenario.node[15].veinsmobility 	totalCO2Emission 	135.68725285992
scalar IntersectionExampleScenario.node[14].appl 	VehicleRemoved 	0
scalar IntersectionExampleScenario.node[14].appl 	ArrivedAtDest 	1
scalar IntersectionExampleScenario.node[14].appl 	IntersectionEnterTime 	64
scalar IntersectionExampleScenario.node[14].appl 	IntersectionExitTime 	98.316702573589
scalar IntersectionExampleScenario.node[14].appl 	NumberOfCollisions 	0
scalar IntersectionExampleScenario.node[14].nic.phy80211p 	busyTime 	0
scalar IntersectionExampleScenario.node[14].nic.mac1609_4 	ReceivedUnicastPackets 	0
scalar IntersectionExampleScenario.node[14].nic.mac1609_4 	ReceivedBroadcasts 	0
scalar IntersectionExampleScenario.node[14].nic.mac1609_4 	SentPackets 	0
scalar IntersectionExampleScenario.node[14].nic.mac1609_4 	SNIRLostPackets 	0
scalar IntersectionExampleScenario.node[14].nic.mac1609_4 	RXTXLostPackets 	0
scalar IntersectionExampleScenario.node[14].nic.mac1609_4 	TotalLostPackets 	0
scalar IntersectionExampleScenario.node[14].nic.mac1609_4 	DroppedPacketsInMac 	0
scalar IntersectionExampleScenario.node[14].nic.mac1609_4 	TooLittleTime 	0
scalar IntersectionExampleScenario.node[14].nic.mac1609_4 	TimesIntoBackoff 	0
scalar IntersectionExampleScenario.node[14].nic.mac1609_4 	SlotsBackoff 	0
scalar IntersectionExampleScenario.node[14].nic.mac1609_4 	NumInternalContention 	0
scalar IntersectionExampleScenario.node[14].nic.mac1609_4 	totalBusyTime 	0
scalar IntersectionExampleScenario.node[14].veinsmobility 	startTime 	64
scalar IntersectionExampleScenario.node[14].veinsmobility 	totalTime 	50.75
scalar IntersectionExampleScenario.node[14].veinsmobility 	stopTime 	115
scalar IntersectionExampleScenario.node[14].veinsmobility 	minSpeed 	0.81660026311874
scalar IntersectionExampleScenario.node[14].veinsmobility 	maxSpeed 	15.375
scalar IntersectionExampleScenario.node[14].veinsmobility 	totalDistance 	549.09223465131
scalar IntersectionExampleScenario.node[14].veinsmobility 	totalCO2Emission 	137.05830108637
scalar IntersectionExampleScenario.node[16].appl 	VehicleRemoved 	0
scalar IntersectionExampleScenario.node[16].appl 	ArrivedAtDest 	1
scalar IntersectionExampleScenario.node[16].appl 	IntersectionEnterTime 	73.75
scalar IntersectionExampleScenario.node[16].appl 	IntersectionExitTime 	100.05781181101
scalar IntersectionExampleScenario.node[16].appl 	NumberOfCollisions 	0
scalar IntersectionExampleScenario.node[16].nic.phy80211p 	busyTime 	0
scalar IntersectionExampleScenario.node[16].nic.mac1609_4 	ReceivedUnicastPackets 	0
scalar IntersectionExampleScenario.node[16].nic.mac1609_4 	ReceivedBroadcasts 	0
scalar IntersectionExampleScenario.node[16].nic.mac1609_4 	SentPackets 	0
scalar IntersectionExampleScenario.node[16].nic.mac1609_4 	SNIRLostPackets 	0
scalar IntersectionExampleScenario.node[16].nic.mac1609_4 	RXTXLostPackets 	0
scalar IntersectionExampleScenario.node[16].nic.mac1609_4 	TotalLostPackets 	0
scalar IntersectionExampleScenario.node[16].nic.mac1609_4 	DroppedPacketsInMac 	0
scalar IntersectionExampleScenario.node[16].nic.mac1609_4 	TooLittleTime 	0
scalar IntersectionExampleScenario.node[16].nic.mac1609_4 	TimesIntoBackoff 	0
scalar IntersectionExampleScenario.node[16].nic.mac1609_4 	SlotsBackoff 	0
scalar IntersectionExampleScenario.node[16].nic.mac1609_4 	NumInternalContention 	0
scalar IntersectionExampleScenario.node[16].nic.mac1609_4 	totalBusyTime 	0
scalar IntersectionExampleScenario.node[16].veinsmobility 	startTime 	73.75
scalar IntersectionExampleScenario.node[16].veinsmobility 	totalTime 	42.5
scalar IntersectionExampleScenario.node[16].veinsmobility 	stopTime 	116.5
scalar IntersectionExampleScenario.node[16].veinsmobility 	minSpeed 	5.6500000953674
scalar IntersectionExampleScenario.node[16].veinsmobility 	maxSpeed 	15.5
scalar IntersectionExampleScenario.node[16].veinsmobility 	totalDistance 	552.15983581543
scalar IntersectionExampleScenario.node[16].veinsmobility 	totalCO2Emission 	132.75872287222
scalar IntersectionExampleScenario.node[19].appl 	VehicleRemoved 	0
scalar IntersectionExampleScenario.node[19].appl 	ArrivedAtDest 	1
scalar IntersectionExampleScenario.node[19].appl 	IntersectionEnterTime 	77.75
scalar IntersectionExampleScenario.node[19].appl 	IntersectionExitTime 	100.87051386229
scalar IntersectionExampleScenario.node[19].appl 	NumberOfCollisions 	0
scalar IntersectionExampleScenario.node[19].nic.phy80211p 	busyTime 	0
scalar IntersectionExampleScenario.node[19].nic.mac1609_4 	ReceivedUnicastPackets 	0
scalar IntersectionExampleScenario.node[19].nic.mac1609_4 	ReceivedBroadcasts 	0
scalar IntersectionExampleScenario.node[19].nic.mac1609_4 	SentPackets 	0
scalar IntersectionExampleScenario.node[19].nic.mac1609_4 	SNIRLostPackets 	0
scalar IntersectionExampleScenario.node[19].nic.mac1609_4 	RXTXLostPackets 	0
scalar IntersectionExampleScenario.node[19].nic.mac1609_4 	TotalLostPackets 	0
scalar IntersectionExampleScenario.node[19].nic.mac1609_4 	DroppedPacketsInMac 	0
scalar IntersectionExampleScenario.node[19].nic.mac1609_4 	TooLittleTime 	0
scalar IntersectionExampleScenario.node[19].nic.mac1609_4 	TimesIntoBackoff 	0
scalar IntersectionExampleScenario.node[19].nic.mac1609_4 	SlotsBackoff 	0
scalar IntersectionExampleScenario.node[19].nic.mac1609_4 	NumInternalContention 	0
scalar IntersectionExampleScenario.node[19].nic.mac1609_4 	totalBusyTime 	0
scalar IntersectionExampleScenario.node[19].veinsmobility 	startTime 	77.75
scalar IntersectionExampleScenario.node[19].veinsmobility 	totalTime 	38.75
scalar IntersectionExampleScenario.node[19].veinsmobility 	stopTime 	116.75
scalar IntersectionExampleScenario.node[19].veinsmobility 	minSpeed 	5.6500000953674
scalar IntersectionExampleScenario.node[19].veinsmobility 	maxSpeed 	16.150907516479
scalar IntersectionExampleScenario.node[19].veinsmobility 	totalDistance 	552.84665679932
scalar IntersectionExampleScenario.node[19].veinsmobility 	totalCO2Emission 	129.46451204857
scalar IntersectionExampleScenario.node[20].appl 	VehicleRemoved 	0
scalar IntersectionExampleScenario.node[20].appl 	ArrivedAtDest 	1
scalar IntersectionExampleScenario.node[20].appl 	IntersectionEnterTime 	81.5
scalar IntersectionExampleScenario.node[20].appl 	IntersectionExitTime 	106.01611975886
scalar IntersectionExampleScenario.node[20].appl 	NumberOfCollisions 	0
scalar IntersectionExampleScenario.node[20].nic.phy80211p 	busyTime 	0
scalar IntersectionExampleScenario.node[20].nic.mac1609_4 	ReceivedUnicastPackets 	0
scalar IntersectionExampleScenario.node[20].nic.mac1609_4 	ReceivedBroadcasts 	0
scalar IntersectionExampleScenario.node[20].nic.mac1609_4 	SentPackets 	0
scalar IntersectionExampleScenario.node[20].nic.mac1609_4 	SNIRLostPackets 	0
scalar IntersectionExampleScenario.node[20].nic.mac1609_4 	RXTXLostPackets 	0
scalar IntersectionExampleScenario.node[20].nic.mac1609_4 	TotalLostPackets 	0
scalar IntersectionExampleScenario.node[20].nic.mac1609_4 	DroppedPacketsInMac 	0
scalar IntersectionExampleScenario.node[20].nic.mac1609_4 	TooLittleTime 	0
scalar IntersectionExampleScenario.node[20].nic.mac1609_4 	TimesIntoBackoff 	0
scalar IntersectionExampleScenario.node[20].nic.mac1609_4 	SlotsBackoff 	0
scalar IntersectionExampleScenario.node[20].nic.mac1609_4 	NumInternalContention 	0
scalar IntersectionExampleScenario.node[20].nic.mac1609_4 	totalBusyTime 	0
scalar IntersectionExampleScenario.node[20].veinsmobility 	startTime 	81.5
scalar IntersectionExampleScenario.node[20].veinsmobility 	totalTime 	41.5
scalar IntersectionExampleScenario.node[20].veinsmobility 	stopTime 	123.25
scalar IntersectionExampleScenario.node[20].veinsmobility 	minSpeed 	5.6500000953674
scalar IntersectionExampleScenario.node[20].veinsmobility 	maxSpeed 	15.02499961853
scalar IntersectionExampleScenario.node[20].veinsmobility 	totalDistance 	559.62633242936
scalar IntersectionExampleScenario.node[20].veinsmobility 	totalCO2Emission 	119.95344448473
scalar IntersectionExampleScenario.node[24].appl 	VehicleRemoved 	0
scalar IntersectionExampleScenario.node[24].appl 	ArrivedAtDest 	1
scalar IntersectionExampleScenario.node[24].appl 	IntersectionEnterTime 	93.75
scalar IntersectionExampleScenario.node[24].appl 	IntersectionExitTime 	117.08126631522
scalar IntersectionExampleScenario.node[24].appl 	NumberOfCollisions 	0
scalar IntersectionExampleScenario.node[24].nic.phy80211p 	busyTime 	0
scalar IntersectionExampleScenario.node[24].nic.mac1609_4 	ReceivedUnicastPackets 	0
scalar IntersectionExampleScenario.node[24].nic.mac1609_4 	ReceivedBroadcasts 	0
scalar IntersectionExampleScenario.node[24].nic.mac1609_4 	SentPackets 	0
scalar IntersectionExampleScenario.node[24].nic.mac1609_4 	SNIRLostPackets 	0
scalar IntersectionExampleScenario.node[24].nic.mac1609_4 	RXTXLostPackets 	0
scalar IntersectionExampleScenario.node[24].nic.mac1609_4 	TotalLostPackets 	0
scalar IntersectionExampleScenario.node[24].nic.mac1609_4 	DroppedPacketsInMac 	0
scalar IntersectionExampleScenario.node[24].nic.mac1609_4 	TooLittleTime 	0
scalar IntersectionExampleScenario.node[24].nic.mac1609_4 	TimesIntoBackoff 	0
scalar IntersectionExampleScenario.node[24].nic.mac1609_4 	SlotsBackoff 	0
scalar IntersectionExampleScenario.node[24].nic.mac1609_4 	NumInternalContention 	0
scalar IntersectionExampleScenario.node[24].nic.mac1609_4 	totalBusyTime 	0
scalar IntersectionExampleScenario.node[24].veinsmobility 	startTime 	93.75
scalar IntersectionExampleScenario.node[24].veinsmobility 	totalTime 	39.5
scalar IntersectionExampleScenario.node[24].veinsmobility 	stopTime 	133.5
scalar IntersectionExampleScenario.node[24].veinsmobility 	minSpeed 	5.6500000953674
scalar IntersectionExampleScenario.node[24].veinsmobility 	maxSpeed 	15.64999961853
scalar IntersectionExampleScenario.node[24].veinsmobility 	totalDistance 	549.74297360791
scalar IntersectionExampleScenario.node[24].veinsmobility 	totalCO2Emission 	122.48462072709
scalar IntersectionExampleScenario.node[18].appl 	VehicleRemoved 	0
scalar IntersectionExampleScenario.node[18].appl 	ArrivedAtDest 	1
scalar IntersectionExampleScenario.node[18].appl 	IntersectionEnterTime 	75.25
scalar IntersectionExampleScenario.node[18].appl 	IntersectionExitTime 	121.253723122
scalar IntersectionExampleScenario.node[18].appl 	NumberOfCollisions 	0
scalar IntersectionExampleScenario.node[18].nic.phy80211p 	busyTime 	0
scalar IntersectionExampleScenario.node[18].nic.mac1609_4 	ReceivedUnicastPackets 	0
scalar IntersectionExampleScenario.node[18].nic.mac1609_4 	ReceivedBroadcasts 	0
scalar IntersectionExampleScenario.node[18].nic.mac1609_4 	SentPackets 	0
scalar IntersectionExampleScenario.node[18].nic.mac1609_4 	SNIRLostPackets 	0
scalar IntersectionExampleScenario.node[18].nic.mac1609_4 	RXTXLostPackets 	0
scalar IntersectionExampleScenario.node[18].nic.mac1609_4 	TotalLostPackets 	0
scalar IntersectionExampleScenario.node[18].nic.mac1609_4 	DroppedPacketsInMac 	0
scalar IntersectionExampleScenario.node[18].nic.mac1609_4 	TooLittleTime 	0
scalar IntersectionExampleScenario.node[18].nic.mac1609_4 	TimesIntoBackoff 	0
scalar IntersectionExampleScenario.node[18].nic.mac1609_4 	SlotsBackoff 	0
scalar IntersectionExampleScenario.node[18].nic.mac1609_4 	NumInternalContention 	0
scalar IntersectionExampleScenario.node[18].nic.mac1609_4 	totalBusyTime 	0
scalar IntersectionExampleScenario.node[18].veinsmobility 	startTime 	75.25
scalar IntersectionExampleScenario.node[18].veinsmobility 	totalTime 	61
scalar IntersectionExampleScenario.node[18].veinsmobility 	stopTime 	136.5
scalar IntersectionExampleScenario.node[18].veinsmobility 	minSpeed 	0
scalar IntersectionExampleScenario.node[18].veinsmobility 	maxSpeed 	16.75
scalar IntersectionExampleScenario.node[18].veinsmobility 	totalDistance 	577.76332092285
scalar IntersectionExampleScenario.node[18].veinsmobility 	totalCO2Emission 	167.37653787442
scalar IntersectionExampleScenario.node[17].appl 	VehicleRemoved 	0
scalar IntersectionExampleScenario.node[17].appl 	ArrivedAtDest 	1
scalar IntersectionExampleScenario.node[17].appl 	IntersectionEnterTime 	74.5
scalar IntersectionExampleScenario.node[17].appl 	IntersectionExitTime 	119.62380902201
scalar IntersectionExampleScenario.node[17].appl 	NumberOfCollisions 	0
scalar IntersectionExampleScenario.node[17].nic.phy80211p 	busyTime 	0
scalar IntersectionExampleScenario.node[17].nic.mac1609_4 	ReceivedUnicastPackets 	0
scalar IntersectionExampleScenario.node[17].nic.mac1609_4 	ReceivedBroadcasts 	0
scalar IntersectionExampleScenario.node[17].nic.mac1609_4 	SentPackets 	0
scalar IntersectionExampleScenario.node[17].nic.mac1609_4 	SNIRLostPackets 	0
scalar IntersectionExampleScenario.node[17].nic.mac1609_4 	RXTXLostPackets 	0
scalar IntersectionExampleScenario.node[17].nic.mac1609_4 	TotalLostPackets 	0
scalar IntersectionExampleScenario.node[17].nic.mac1609_4 	DroppedPacketsInMac 	0
scalar IntersectionExampleScenario.node[17].nic.mac1609_4 	TooLittleTime 	0
scalar IntersectionExampleScenario.node[17].nic.mac1609_4 	TimesIntoBackoff 	0
scalar IntersectionExampleScenario.node[17].nic.mac1609_4 	SlotsBackoff 	0
scalar IntersectionExampleScenario.node[17].nic.mac1609_4 	NumInternalContention 	0
scalar IntersectionExampleScenario.node[17].nic.mac1609_4 	totalBusyTime 	0
scalar IntersectionExampleScenario.node[17].veinsmobility 	startTime 	74.5
scalar IntersectionExampleScenario.node[17].veinsmobility 	totalTime 	61.75
scalar IntersectionExampleScenario.node[17].veinsmobility 	stopTime 	136.5
scalar IntersectionExampleScenario.node[17].veinsmobility 	minSpeed 	0
scalar IntersectionExampleScenario.node[17].veinsmobility 	maxSpeed 	15.64999961853
scalar IntersectionExampleScenario.node[17].veinsmobility 	totalDistance 	545.02445126921
scalar IntersectionExampleScenario.node[17].veinsmobility 	totalCO2Emission 	153.60486730656
scalar IntersectionExampleScenario.node[21].appl 	VehicleRemoved 	0
scalar IntersectionExampleScenario.node[21].appl 	ArrivedAtDest 	1
scalar IntersectionExampleScenario.node[21].appl 	IntersectionEnterTime 	86.5
scalar IntersectionExampleScenario.node[21].appl 	IntersectionExitTime 	123.55463975176
scalar IntersectionExampleScenario.node[21].appl 	NumberOfCollisions 	0
scalar IntersectionExampleScenario.node[21].nic.phy80211p 	busyTime 	0
scalar IntersectionExampleScenario.node[21].nic.mac1609_4 	ReceivedUnicastPackets 	0
scalar IntersectionExampleScenario.node[21].nic.mac1609_4 	ReceivedBroadcasts 	0
scalar IntersectionExampleScenario.node[21].nic.mac1609_4 	SentPackets 	0
scalar IntersectionExampleScenario.node[21].nic.mac1609_4 	SNIRLostPackets 	0
scalar IntersectionExampleScenario.node[21].nic.mac1609_4 	RXTXLostPackets 	0
scalar IntersectionExampleScenario.node[21].nic.mac1609_4 	TotalLostPackets 	0
scalar IntersectionExampleScenario.node[21].nic.mac1609_4 	DroppedPacketsInMac 	0
scalar IntersectionExampleScenario.node[21].nic.mac1609_4 	TooLittleTime 	0
scalar IntersectionExampleScenario.node[21].nic.mac1609_4 	TimesIntoBackoff 	0
scalar IntersectionExampleScenario.node[21].nic.mac1609_4 	SlotsBackoff 	0
scalar IntersectionExampleScenario.node[21].nic.mac1609_4 	NumInternalContention 	0
scalar IntersectionExampleScenario.node[21].nic.mac1609_4 	totalBusyTime 	0
scalar IntersectionExampleScenario.node[21].veinsmobility 	startTime 	86.5
scalar IntersectionExampleScenario.node[21].veinsmobility 	totalTime 	53.25
scalar IntersectionExampleScenario.node[21].veinsmobility 	stopTime 	140
scalar IntersectionExampleScenario.node[21].veinsmobility 	minSpeed 	0
scalar IntersectionExampleScenario.node[21].veinsmobility 	maxSpeed 	15.5
scalar IntersectionExampleScenario.node[21].veinsmobility 	totalDistance 	551.97386169434
scalar IntersectionExampleScenario.node[21].veinsmobility 	totalCO2Emission 	140.2789215586
scalar IntersectionExampleScenario.node[22].appl 	VehicleRemoved 	0
scalar IntersectionExampleScenario.node[22].appl 	ArrivedAtDest 	1
scalar IntersectionExampleScenario.node[22].appl 	IntersectionEnterTime 	89
scalar IntersectionExampleScenario.node[22].appl 	IntersectionExitTime 	125.35556981643
scalar IntersectionExampleScenario.node[22].appl 	NumberOfCollisions 	0
scalar IntersectionExampleScenario.node[22].nic.phy80211p 	busyTime 	0
scalar IntersectionExampleScenario.node[22].nic.mac1609_4 	ReceivedUnicastPackets 	0
scalar IntersectionExampleScenario.node[22].nic.mac1609_4 	ReceivedBroadcasts 	0
scalar IntersectionExampleScenario.node[22].nic.mac1609_4 	SentPackets 	0
scalar IntersectionExampleScenario.node[22].nic.mac1609_4 	SNIRLostPackets 	0
scalar IntersectionExampleScenario.node[22].nic.mac1609_4 	RXTXLostPackets 	0
scalar IntersectionExampleScenario.node[22].nic.mac1609_4 	TotalLostPackets 	0
scalar IntersectionExampleScenario.node[22].nic.mac1609_4 	DroppedPacketsInMac 	0
scalar IntersectionExampleScenario.node[22].nic.mac1609_4 	TooLittleTime 	0
scalar IntersectionExampleScenario.node[22].nic.mac1609_4 	TimesIntoBackoff 	0
scalar IntersectionExampleScenario.node[22].nic.mac1609_4 	SlotsBackoff 	0
scalar IntersectionExampleScenario.node[22].nic.mac1609_4 	NumInternalContention 	0
scalar IntersectionExampleScenario.node[22].nic.mac1609_4 	totalBusyTime 	0
scalar IntersectionExampleScenario.node[22].veinsmobility 	startTime 	89
scalar IntersectionExampleScenario.node[22].veinsmobility 	totalTime 	52
scalar IntersectionExampleScenario.node[22].veinsmobility 	stopTime 	141.25
scalar IntersectionExampleScenario.node[22].veinsmobility 	minSpeed 	1.7825491428375
scalar IntersectionExampleScenario.node[22].veinsmobility 	maxSpeed 	16.313568115234
scalar IntersectionExampleScenario.node[22].veinsmobility 	totalDistance 	570.48770141602
scalar IntersectionExampleScenario.node[22].veinsmobility 	totalCO2Emission 	152.00725866468
scalar IntersectionExampleScenario.node[23].appl 	VehicleRemoved 	0
scalar IntersectionExampleScenario.node[23].appl 	ArrivedAtDest 	1
scalar IntersectionExampleScenario.node[23].appl 	IntersectionEnterTime 	91.5
scalar IntersectionExampleScenario.node[23].appl 	IntersectionExitTime 	127.37080775501
scalar IntersectionExampleScenario.node[23].appl 	NumberOfCollisions 	0
scalar IntersectionExampleScenario.node[23].nic.phy80211p 	busyTime 	0
scalar IntersectionExampleScenario.node[23].nic.mac1609_4 	ReceivedUnicastPackets 	0
scalar IntersectionExampleScenario.node[23].nic.mac1609_4 	ReceivedBroadcasts 	0
scalar IntersectionExampleScenario.node[23].nic.mac1609_4 	SentPackets 	0
scalar IntersectionExampleScenario.node[23].nic.mac1609_4 	SNIRLostPackets 	0
scalar IntersectionExampleScenario.node[23].nic.mac1609_4 	RXTXLostPackets 	0
scalar IntersectionExampleScenario.node[23].nic.mac1609_4 	TotalLostPackets 	0
scalar IntersectionExampleScenario.node[23].nic.mac1609_4 	DroppedPacketsInMac 	0
scalar IntersectionExampleScenario.node[23].nic.mac1609_4 	TooLittleTime 	0
scalar IntersectionExampleScenario.node[23].nic.mac1609_4 	TimesIntoBackoff 	0
scalar IntersectionExampleScenario.node[23].nic.mac1609_4 	SlotsBackoff 	0
scalar IntersectionExampleScenario.node[23].nic.mac1609_4 	NumInternalContention 	0
scalar IntersectionExampleScenario.node[23].nic.mac1609_4 	totalBusyTime 	0
scalar IntersectionExampleScenario.node[23].veinsmobility 	startTime 	91.5
scalar IntersectionExampleScenario.node[23].veinsmobility 	totalTime 	51.75
scalar IntersectionExampleScenario.node[23].veinsmobility 	stopTime 	143.5
scalar IntersectionExampleScenario.node[23].veinsmobility 	minSpeed 	1.9147561788559
scalar IntersectionExampleScenario.node[23].veinsmobility 	maxSpeed 	15.64999961853
scalar IntersectionExampleScenario.node[23].veinsmobility 	totalDistance 	576.24095153809
scalar IntersectionExampleScenario.node[23].veinsmobility 	totalCO2Emission 	140.82686645914
scalar IntersectionExampleScenario.node[26].appl 	VehicleRemoved 	0
scalar IntersectionExampleScenario.node[26].appl 	ArrivedAtDest 	1
scalar IntersectionExampleScenario.node[26].appl 	IntersectionEnterTime 	106.75
scalar IntersectionExampleScenario.node[26].appl 	IntersectionExitTime 	130.58611328804
scalar IntersectionExampleScenario.node[26].appl 	NumberOfCollisions 	0
scalar IntersectionExampleScenario.node[26].nic.phy80211p 	busyTime 	0
scalar IntersectionExampleScenario.node[26].nic.mac1609_4 	ReceivedUnicastPackets 	0
scalar IntersectionExampleScenario.node[26].nic.mac1609_4 	ReceivedBroadcasts 	0
scalar IntersectionExampleScenario.node[26].nic.mac1609_4 	SentPackets 	0
scalar IntersectionExampleScenario.node[26].nic.mac1609_4 	SNIRLostPackets 	0
scalar IntersectionExampleScenario.node[26].nic.mac1609_4 	RXTXLostPackets 	0
scalar IntersectionExampleScenario.node[26].nic.mac1609_4 	TotalLostPackets 	0
scalar IntersectionExampleScenario.node[26].nic.mac1609_4 	DroppedPacketsInMac 	0
scalar IntersectionExampleScenario.node[26].nic.mac1609_4 	TooLittleTime 	0
scalar IntersectionExampleScenario.node[26].nic.mac1609_4 	TimesIntoBackoff 	0
scalar IntersectionExampleScenario.node[26].nic.mac1609_4 	SlotsBackoff 	0
scalar IntersectionExampleScenario.node[26].nic.mac1609_4 	NumInternalContention 	0
scalar IntersectionExampleScenario.node[26].nic.mac1609_4 	totalBusyTime 	0
scalar IntersectionExampleScenario.node[26].veinsmobility 	startTime 	106.75
scalar IntersectionExampleScenario.node[26].veinsmobility 	totalTime 	40.25
scalar IntersectionExampleScenario.node[26].veinsmobility 	stopTime 	147.25
scalar IntersectionExampleScenario.node[26].veinsmobility 	minSpeed 	5.6500000953674
scalar IntersectionExampleScenario.node[26].veinsmobility 	maxSpeed 	15.875
scalar IntersectionExampleScenario.node[26].veinsmobility 	totalDistance 	545.29312900551
scalar IntersectionExampleScenario.node[26].veinsmobility 	totalCO2Emission 	129.87891172011
scalar IntersectionExampleScenario.node[25].appl 	VehicleRemoved 	0
scalar IntersectionExampleScenario.node[25].appl 	ArrivedAtDest 	1
scalar IntersectionExampleScenario.node[25].appl 	IntersectionEnterTime 	95.5
scalar IntersectionExampleScenario.node[25].appl 	IntersectionExitTime 	144.28471519114
scalar IntersectionExampleScenario.node[25].appl 	NumberOfCollisions 	0
scalar IntersectionExampleScenario.node[25].nic.phy80211p 	busyTime 	0
scalar IntersectionExampleScenario.node[25].nic.mac1609_4 	ReceivedUnicastPackets 	0
scalar IntersectionExampleScenario.node[25].nic.mac1609_4 	ReceivedBroadcasts 	0
scalar IntersectionExampleScenario.node[25].nic.mac1609_4 	SentPackets 	0
scalar IntersectionExampleScenario.node[25].nic.mac1609_4 	SNIRLostPackets 	0
scalar IntersectionExampleScenario.node[25].nic.mac1609_4 	RXTXLostPackets 	0
scalar IntersectionExampleScenario.node[25].nic.mac1609_4 	TotalLostPackets 	0
scalar IntersectionExampleScenario.node[25].nic.mac1609_4 	DroppedPacketsInMac 	0
scalar IntersectionExampleScenario.node[25].nic.mac1609_4 	TooLittleTime 	0
scalar IntersectionExampleScenario.node[25].nic.mac1609_4 	TimesIntoBackoff 	0
scalar IntersectionExampleScenario.node[25].nic.mac1609_4 	SlotsBackoff 	0
scalar IntersectionExampleScenario.node[25].nic.mac1609_4 	NumInternalContention 	0
scalar IntersectionExampleScenario.node[25].nic.mac1609_4 	totalBusyTime 	0
scalar IntersectionExampleScenario.node[25].veinsmobility 	startTime 	95.5
scalar IntersectionExampleScenario.node[25].veinsmobility 	totalTime 	64.25
scalar IntersectionExampleScenario.node[25].veinsmobility 	stopTime 	160
scalar IntersectionExampleScenario.node[25].veinsmobility 	minSpeed 	0
scalar IntersectionExampleScenario.node[25].veinsmobility 	maxSpeed 	16
scalar IntersectionExampleScenario.node[25].veinsmobility 	totalDistance 	569.92572130313
scalar IntersectionExampleScenario.node[25].veinsmobility 	totalCO2Emission 	164.23989517322
scalar IntersectionExampleScenario.node[29].appl 	VehicleRemoved 	0
scalar IntersectionExampleScenario.node[29].appl 	ArrivedAtDest 	1
scalar IntersectionExampleScenario.node[29].appl 	IntersectionEnterTime 	121
scalar IntersectionExampleScenario.node[29].appl 	IntersectionExitTime 	147.09498988514
scalar IntersectionExampleScenario.node[29].appl 	NumberOfCollisions 	0
scalar IntersectionExampleScenario.node[29].nic.phy80211p 	busyTime 	0
scalar IntersectionExampleScenario.node[29].nic.mac1609_4 	ReceivedUnicastPackets 	0
scalar IntersectionExampleScenario.node[29].nic.mac1609_4 	ReceivedBroadcasts 	0
scalar IntersectionExampleScenario.node[29].nic.mac1609_4 	SentPackets 	0
scalar IntersectionExampleScenario.node[29].nic.mac1609_4 	SNIRLostPackets 	0
scalar IntersectionExampleScenario.node[29].nic.mac1609_4 	RXTXLostPackets 	0
scalar IntersectionExampleScenario.node[29].nic.mac1609_4 	TotalLostPackets 	0
scalar IntersectionExampleScenario.node[29].nic.mac1609_4 	DroppedPacketsInMac 	0
scalar IntersectionExampleScenario.node[29].nic.mac1609_4 	TooLittleTime 	0
scalar IntersectionExampleScenario.node[29].nic.mac1609_4 	TimesIntoBackoff 	0
scalar IntersectionExampleScenario.node[29].nic.mac1609_4 	SlotsBackoff 	0
scalar IntersectionExampleScenario.node[29].nic.mac1609_4 	NumInternalContention 	0
scalar IntersectionExampleScenario.node[29].nic.mac1609_4 	totalBusyTime 	0
scalar IntersectionExampleScenario.node[29].veinsmobility 	startTime 	121
scalar IntersectionExampleScenario.node[29].veinsmobility 	totalTime 	42
scalar IntersectionExampleScenario.node[29].veinsmobility 	stopTime 	163.25
scalar IntersectionExampleScenario.node[29].veinsmobility 	minSpeed 	5.6500000953674
scalar IntersectionExampleScenario.node[29].veinsmobility 	maxSpeed 	16
scalar IntersectionExampleScenario.node[29].veinsmobility 	totalDistance 	549.43954159551
scalar IntersectionExampleScenario.node[29].veinsmobility 	totalCO2Emission 	133.14328313911
scalar IntersectionExampleScenario.node[30].appl 	VehicleRemoved 	0
scalar IntersectionExampleScenario.node[30].appl 	ArrivedAtDest 	1
scalar IntersectionExampleScenario.node[30].appl 	IntersectionEnterTime 	126.25
scalar IntersectionExampleScenario.node[30].appl 	IntersectionExitTime 	149.12392768543
scalar IntersectionExampleScenario.node[30].appl 	NumberOfCollisions 	0
scalar IntersectionExampleScenario.node[30].nic.phy80211p 	busyTime 	0
scalar IntersectionExampleScenario.node[30].nic.mac1609_4 	ReceivedUnicastPackets 	0
scalar IntersectionExampleScenario.node[30].nic.mac1609_4 	ReceivedBroadcasts 	0
scalar IntersectionExampleScenario.node[30].nic.mac1609_4 	SentPackets 	0
scalar IntersectionExampleScenario.node[30].nic.mac1609_4 	SNIRLostPackets 	0
scalar IntersectionExampleScenario.node[30].nic.mac1609_4 	RXTXLostPackets 	0
scalar IntersectionExampleScenario.node[30].nic.mac1609_4 	TotalLostPackets 	0
scalar IntersectionExampleScenario.node[30].nic.mac1609_4 	DroppedPacketsInMac 	0
scalar IntersectionExampleScenario.node[30].nic.mac1609_4 	TooLittleTime 	0
scalar IntersectionExampleScenario.node[30].nic.mac1609_4 	TimesIntoBackoff 	0
scalar IntersectionExampleScenario.node[30].nic.mac1609_4 	SlotsBackoff 	0
scalar IntersectionExampleScenario.node[30].nic.mac1609_4 	NumInternalContention 	0
scalar IntersectionExampleScenario.node[30].nic.mac1609_4 	totalBusyTime 	0
scalar IntersectionExampleScenario.node[30].veinsmobility 	startTime 	126.25
scalar IntersectionExampleScenario.node[30].veinsmobility 	totalTime 	38.25
scalar IntersectionExampleScenario.node[30].veinsmobility 	stopTime 	164.75
scalar IntersectionExampleScenario.node[30].veinsmobility 	minSpeed 	5.6500000953674
scalar IntersectionExampleScenario.node[30].veinsmobility 	maxSpeed 	16.125
scalar IntersectionExampleScenario.node[30].veinsmobility 	totalDistance 	553.12870025635
scalar IntersectionExampleScenario.node[30].veinsmobility 	totalCO2Emission 	128.7369042784
scalar IntersectionExampleScenario.node[27].appl 	VehicleRemoved 	0
scalar IntersectionExampleScenario.node[27].appl 	ArrivedAtDest 	1
scalar IntersectionExampleScenario.node[27].appl 	IntersectionEnterTime 	113
scalar IntersectionExampleScenario.node[27].appl 	IntersectionExitTime 	154.59368571208
scalar IntersectionExampleScenario.node[27].appl 	NumberOfCollisions 	0
scalar IntersectionExampleScenario.node[27].nic.phy80211p 	busyTime 	0
scalar IntersectionExampleScenario.node[27].nic.mac1609_4 	ReceivedUnicastPackets 	0
scalar IntersectionExampleScenario.node[27].nic.mac1609_4 	ReceivedBroadcasts 	0
scalar IntersectionExampleScenario.node[27].nic.mac1609_4 	SentPackets 	0
scalar IntersectionExampleScenario.node[27].nic.mac1609_4 	SNIRLostPackets 	0
scalar IntersectionExampleScenario.node[27].nic.mac1609_4 	RXTXLostPackets 	0
scalar IntersectionExampleScenario.node[27].nic.mac1609_4 	TotalLostPackets 	0
scalar IntersectionExampleScenario.node[27].nic.mac1609_4 	DroppedPacketsInMac 	0
scalar IntersectionExampleScenario.node[27].nic.mac1609_4 	TooLittleTime 	0
scalar IntersectionExampleScenario.node[27].nic.mac1609_4 	TimesIntoBackoff 	0
scalar IntersectionExampleScenario.node[27].nic.mac1609_4 	SlotsBackoff 	0
scalar IntersectionExampleScenario.node[27].nic.mac1609_4 	NumInternalContention 	0
scalar IntersectionExampleScenario.node[27].nic.mac1609_4 	totalBusyTime 	0
scalar IntersectionExampleScenario.node[27].veinsmobility 	startTime 	113
scalar IntersectionExampleScenario.node[27].veinsmobility 	totalTime 	58.75
scalar IntersectionExampleScenario.node[27].veinsmobility 	stopTime 	172
scalar IntersectionExampleScenario.node[27].veinsmobility 	minSpeed 	0
scalar IntersectionExampleScenario.node[27].veinsmobility 	maxSpeed 	15.25
scalar IntersectionExampleScenario.node[27].veinsmobility 	totalDistance 	544.38074399382
scalar IntersectionExampleScenario.node[27].veinsmobility 	totalCO2Emission 	146.26541949431
scalar IntersectionExampleScenario.node[31].appl 	VehicleRemoved 	0
scalar IntersectionExampleScenario.node[31].appl 	ArrivedAtDest 	1
scalar IntersectionExampleScenario.node[31].appl 	IntersectionEnterTime 	126.5
scalar IntersectionExampleScenario.node[31].appl 	IntersectionExitTime 	156.84360622976
scalar IntersectionExampleScenario.node[31].appl 	NumberOfCollisions 	0
scalar IntersectionExampleScenario.node[31].nic.phy80211p 	busyTime 	0
scalar IntersectionExampleScenario.node[31].nic.mac1609_4 	ReceivedUnicastPackets 	0
scalar IntersectionExampleScenario.node[31].nic.mac1609_4 	ReceivedBroadcasts 	0
scalar IntersectionExampleScenario.node[31].nic.mac1609_4 	SentPackets 	0
scalar IntersectionExampleScenario.node[31].nic.mac1609_4 	SNIRLostPackets 	0
scalar IntersectionExampleScenario.node[31].nic.mac1609_4 	RXTXLostPackets 	0
scalar IntersectionExampleScenario.node[31].nic.mac1609_4 	TotalLostPackets 	0
scalar IntersectionExampleScenario.node[31].nic.mac1609_4 	DroppedPacketsInMac 	0
scalar IntersectionExampleScenario.node[31].nic.mac1609_4 	TooLittleTime 	0
scalar IntersectionExampleScenario.node[31].nic.mac1609_4 	TimesIntoBackoff 	0
scalar IntersectionExampleScenario.node[31].nic.mac1609_4 	SlotsBackoff 	0
scalar IntersectionExampleScenario.node[31].nic.mac1609_4 	NumInternalContention 	0
scalar IntersectionExampleScenario.node[31].nic.mac1609_4 	totalBusyTime 	0
scalar IntersectionExampleScenario.node[31].veinsmobility 	startTime 	126.5
scalar IntersectionExampleScenario.node[31].veinsmobility 	totalTime 	46.5
scalar IntersectionExampleScenario.node[31].veinsmobility 	stopTime 	173.25
scalar IntersectionExampleScenario.node[31].veinsmobility 	minSpeed 	2.6190855503082
scalar IntersectionExampleScenario.node[31].veinsmobility 	maxSpeed 	15.64999961853
scalar IntersectionExampleScenario.node[31].veinsmobility 	totalDistance 	550.40845186712
scalar IntersectionExampleScenario.node[31].veinsmobility 	totalCO2Emission 	134.77617646177
scalar IntersectionExampleScenario.node[32].appl 	VehicleRemoved 	0
scalar IntersectionExampleScenario.node[32].appl 	ArrivedAtDest 	1
scalar IntersectionExampleScenario.node[32].appl 	IntersectionEnterTime 	130.5
scalar IntersectionExampleScenario.node[32].appl 	IntersectionExitTime 	166.35376267551
scalar IntersectionExampleScenario.node[32].appl 	NumberOfCollisions 	0
scalar IntersectionExampleScenario.node[32].nic.phy80211p 	busyTime 	0
scalar IntersectionExampleScenario.node[32].nic.mac1609_4 	ReceivedUnicastPackets 	0
scalar IntersectionExampleScenario.node[32].nic.mac1609_4 	ReceivedBroadcasts 	0
scalar IntersectionExampleScenario.node[32].nic.mac1609_4 	SentPackets 	0
scalar IntersectionExampleScenario.node[32].nic.mac1609_4 	SNIRLostPackets 	0
scalar IntersectionExampleScenario.node[32].nic.mac1609_4 	RXTXLostPackets 	0
scalar IntersectionExampleScenario.node[32].nic.mac1609_4 	TotalLostPackets 	0
scalar IntersectionExampleScenario.node[32].nic.mac1609_4 	DroppedPacketsInMac 	0
scalar IntersectionExampleScenario.node[32].nic.mac1609_4 	TooLittleTime 	0
scalar IntersectionExampleScenario.node[32].nic.mac1609_4 	TimesIntoBackoff 	0
scalar IntersectionExampleScenario.node[32].nic.mac1609_4 	SlotsBackoff 	0
scalar IntersectionExampleScenario.node[32].nic.mac1609_4 	NumInternalContention 	0
scalar IntersectionExampleScenario.node[32].nic.mac1609_4 	totalBusyTime 	0
scalar IntersectionExampleScenario.node[32].veinsmobility 	startTime 	130.5
scalar IntersectionExampleScenario.node[32].veinsmobility 	totalTime 	52
scalar IntersectionExampleScenario.node[32].veinsmobility 	stopTime 	182.75
scalar IntersectionExampleScenario.node[32].veinsmobility 	minSpeed 	0
scalar IntersectionExampleScenario.node[32].veinsmobility 	maxSpeed 	15.375
scalar IntersectionExampleScenario.node[32].veinsmobility 	totalDistance 	553.37906646729
scalar IntersectionExampleScenario.node[32].veinsmobility 	totalCO2Emission 	142.64460560234
scalar IntersectionExampleScenario.node[28].appl 	VehicleRemoved 	0
scalar IntersectionExampleScenario.node[28].appl 	ArrivedAtDest 	1
scalar IntersectionExampleScenario.node[28].appl 	IntersectionEnterTime 	119.75
scalar IntersectionExampleScenario.node[28].appl 	IntersectionExitTime 	165.53493244411
scalar IntersectionExampleScenario.node[28].appl 	NumberOfCollisions 	0
scalar IntersectionExampleScenario.node[28].nic.phy80211p 	busyTime 	0
scalar IntersectionExampleScenario.node[28].nic.mac1609_4 	ReceivedUnicastPackets 	0
scalar IntersectionExampleScenario.node[28].nic.mac1609_4 	ReceivedBroadcasts 	0
scalar IntersectionExampleScenario.node[28].nic.mac1609_4 	SentPackets 	0
scalar IntersectionExampleScenario.node[28].nic.mac1609_4 	SNIRLostPackets 	0
scalar IntersectionExampleScenario.node[28].nic.mac1609_4 	RXTXLostPackets 	0
scalar IntersectionExampleScenario.node[28].nic.mac1609_4 	TotalLostPackets 	0
scalar IntersectionExampleScenario.node[28].nic.mac1609_4 	DroppedPacketsInMac 	0
scalar IntersectionExampleScenario.node[28].nic.mac1609_4 	TooLittleTime 	0
scalar IntersectionExampleScenario.node[28].nic.mac1609_4 	TimesIntoBackoff 	0
scalar IntersectionExampleScenario.node[28].nic.mac1609_4 	SlotsBackoff 	0
scalar IntersectionExampleScenario.node[28].nic.mac1609_4 	NumInternalContention 	0
scalar IntersectionExampleScenario.node[28].nic.mac1609_4 	totalBusyTime 	0
scalar IntersectionExampleScenario.node[28].veinsmobility 	startTime 	119.75
scalar IntersectionExampleScenario.node[28].veinsmobility 	totalTime 	63.25
scalar IntersectionExampleScenario.node[28].veinsmobility 	stopTime 	183.25
scalar IntersectionExampleScenario.node[28].veinsmobility 	minSpeed 	0
scalar IntersectionExampleScenario.node[28].veinsmobility 	maxSpeed 	15.02499961853
scalar IntersectionExampleScenario.node[28].veinsmobility 	totalDistance 	545.64543820769
scalar IntersectionExampleScenario.node[28].veinsmobility 	totalCO2Emission 	150.23210254927
scalar IntersectionExampleScenario.node[33].appl 	VehicleRemoved 	0
scalar IntersectionExampleScenario.node[33].appl 	ArrivedAtDest 	1
scalar IntersectionExampleScenario.node[33].appl 	IntersectionEnterTime 	144.25
scalar IntersectionExampleScenario.node[33].appl 	IntersectionExitTime 	169.06678035596
scalar IntersectionExampleScenario.node[33].appl 	NumberOfCollisions 	0
scalar IntersectionExampleScenario.node[33].nic.phy80211p 	busyTime 	0
scalar IntersectionExampleScenario.node[33].nic.mac1609_4 	ReceivedUnicastPackets 	0
scalar IntersectionExampleScenario.node[33].nic.mac1609_4 	ReceivedBroadcasts 	0
scalar IntersectionExampleScenario.node[33].nic.mac1609_4 	SentPackets 	0
scalar IntersectionExampleScenario.node[33].nic.mac1609_4 	SNIRLostPackets 	0
scalar IntersectionExampleScenario.node[33].nic.mac1609_4 	RXTXLostPackets 	0
scalar IntersectionExampleScenario.node[33].nic.mac1609_4 	TotalLostPackets 	0
scalar IntersectionExampleScenario.node[33].nic.mac1609_4 	DroppedPacketsInMac 	0
scalar IntersectionExampleScenario.node[33].nic.mac1609_4 	TooLittleTime 	0
scalar IntersectionExampleScenario.node[33].nic.mac1609_4 	TimesIntoBackoff 	0
scalar IntersectionExampleScenario.node[33].nic.mac1609_4 	SlotsBackoff 	0
scalar IntersectionExampleScenario.node[33].nic.mac1609_4 	NumInternalContention 	0
scalar IntersectionExampleScenario.node[33].nic.mac1609_4 	totalBusyTime 	0
scalar IntersectionExampleScenario.node[33].veinsmobility 	startTime 	144.25
scalar IntersectionExampleScenario.node[33].veinsmobility 	totalTime 	40
scalar IntersectionExampleScenario.node[33].veinsmobility 	stopTime 	184.5
scalar IntersectionExampleScenario.node[33].veinsmobility 	minSpeed 	5.6500000953674
scalar IntersectionExampleScenario.node[33].veinsmobility 	maxSpeed 	17.25
scalar IntersectionExampleScenario.node[33].veinsmobility 	totalDistance 	552.44262731027
scalar IntersectionExampleScenario.node[33].veinsmobility 	totalCO2Emission 	146.50753407511
scalar IntersectionExampleScenario.node[37].appl 	VehicleRemoved 	0
scalar IntersectionExampleScenario.node[37].appl 	ArrivedAtDest 	1
scalar IntersectionExampleScenario.node[37].appl 	IntersectionEnterTime 	151.5
scalar IntersectionExampleScenario.node[37].appl 	IntersectionExitTime 	172.36149329977
scalar IntersectionExampleScenario.node[37].appl 	NumberOfCollisions 	0
scalar IntersectionExampleScenario.node[37].nic.phy80211p 	busyTime 	0
scalar IntersectionExampleScenario.node[37].nic.mac1609_4 	ReceivedUnicastPackets 	0
scalar IntersectionExampleScenario.node[37].nic.mac1609_4 	ReceivedBroadcasts 	0
scalar IntersectionExampleScenario.node[37].nic.mac1609_4 	SentPackets 	0
scalar IntersectionExampleScenario.node[37].nic.mac1609_4 	SNIRLostPackets 	0
scalar IntersectionExampleScenario.node[37].nic.mac1609_4 	RXTXLostPackets 	0
scalar IntersectionExampleScenario.node[37].nic.mac1609_4 	TotalLostPackets 	0
scalar IntersectionExampleScenario.node[37].nic.mac1609_4 	DroppedPacketsInMac 	0
scalar IntersectionExampleScenario.node[37].nic.mac1609_4 	TooLittleTime 	0
scalar IntersectionExampleScenario.node[37].nic.mac1609_4 	TimesIntoBackoff 	0
scalar IntersectionExampleScenario.node[37].nic.mac1609_4 	SlotsBackoff 	0
scalar IntersectionExampleScenario.node[37].nic.mac1609_4 	NumInternalContention 	0
scalar IntersectionExampleScenario.node[37].nic.mac1609_4 	totalBusyTime 	0
scalar IntersectionExampleScenario.node[37].veinsmobility 	startTime 	151.5
scalar IntersectionExampleScenario.node[37].veinsmobility 	totalTime 	36.75
scalar IntersectionExampleScenario.node[37].veinsmobility 	stopTime 	188.5
scalar IntersectionExampleScenario.node[37].veinsmobility 	minSpeed 	5.6500000953674
scalar IntersectionExampleScenario.node[37].veinsmobility 	maxSpeed 	16.27499961853
scalar IntersectionExampleScenario.node[37].veinsmobility 	totalDistance 	518.21111327792
scalar IntersectionExampleScenario.node[37].veinsmobility 	totalCO2Emission 	121.05084632434
scalar IntersectionExampleScenario.node[34].appl 	VehicleRemoved 	0
scalar IntersectionExampleScenario.node[34].appl 	ArrivedAtDest 	1
scalar IntersectionExampleScenario.node[34].appl 	IntersectionEnterTime 	149.5
scalar IntersectionExampleScenario.node[34].appl 	IntersectionExitTime 	175.02816878795
scalar IntersectionExampleScenario.node[34].appl 	NumberOfCollisions 	0
scalar IntersectionExampleScenario.node[34].nic.phy80211p 	busyTime 	0
scalar IntersectionExampleScenario.node[34].nic.mac1609_4 	ReceivedUnicastPackets 	0
scalar IntersectionExampleScenario.node[34].nic.mac1609_4 	ReceivedBroadcasts 	0
scalar IntersectionExampleScenario.node[34].nic.mac1609_4 	SentPackets 	0
scalar IntersectionExampleScenario.node[34].nic.mac1609_4 	SNIRLostPackets 	0
scalar IntersectionExampleScenario.node[34].nic.mac1609_4 	RXTXLostPackets 	0
scalar IntersectionExampleScenario.node[34].nic.mac1609_4 	TotalLostPackets 	0
scalar IntersectionExampleScenario.node[34].nic.mac1609_4 	DroppedPacketsInMac 	0
scalar IntersectionExampleScenario.node[34].nic.mac1609_4 	TooLittleTime 	0
scalar IntersectionExampleScenario.node[34].nic.mac1609_4 	TimesIntoBackoff 	0
scalar IntersectionExampleScenario.node[34].nic.mac1609_4 	SlotsBackoff 	0
scalar IntersectionExampleScenario.node[34].nic.mac1609_4 	NumInternalContention 	0
scalar IntersectionExampleScenario.node[34].nic.mac1609_4 	totalBusyTime 	0
scalar IntersectionExampleScenario.node[34].veinsmobility 	startTime 	149.5
scalar IntersectionExampleScenario.node[34].veinsmobility 	totalTime 	42
scalar IntersectionExampleScenario.node[34].veinsmobility 	stopTime 	191.75
scalar IntersectionExampleScenario.node[34].veinsmobility 	minSpeed 	4.8999996185303
scalar IntersectionExampleScenario.node[34].veinsmobility 	maxSpeed 	15.037394523621
scalar IntersectionExampleScenario.node[34].veinsmobility 	totalDistance 	551.18503570557
scalar IntersectionExampleScenario.node[34].veinsmobility 	totalCO2Emission 	126.52273022571
scalar IntersectionExampleScenario.node[35].appl 	VehicleRemoved 	0
scalar IntersectionExampleScenario.node[35].appl 	ArrivedAtDest 	1
scalar IntersectionExampleScenario.node[35].appl 	IntersectionEnterTime 	151
scalar IntersectionExampleScenario.node[35].appl 	IntersectionExitTime 	177.32349025895
scalar IntersectionExampleScenario.node[35].appl 	NumberOfCollisions 	0
scalar IntersectionExampleScenario.node[35].nic.phy80211p 	busyTime 	0
scalar IntersectionExampleScenario.node[35].nic.mac1609_4 	ReceivedUnicastPackets 	0
scalar IntersectionExampleScenario.node[35].nic.mac1609_4 	ReceivedBroadcasts 	0
scalar IntersectionExampleScenario.node[35].nic.mac1609_4 	SentPackets 	0
scalar IntersectionExampleScenario.node[35].nic.mac1609_4 	SNIRLostPackets 	0
scalar IntersectionExampleScenario.node[35].nic.mac1609_4 	RXTXLostPackets 	0
scalar IntersectionExampleScenario.node[35].nic.mac1609_4 	TotalLostPackets 	0
scalar IntersectionExampleScenario.node[35].nic.mac1609_4 	DroppedPacketsInMac 	0
scalar IntersectionExampleScenario.node[35].nic.mac1609_4 	TooLittleTime 	0
scalar IntersectionExampleScenario.node[35].nic.mac1609_4 	TimesIntoBackoff 	0
scalar IntersectionExampleScenario.node[35].nic.mac1609_4 	SlotsBackoff 	0
scalar IntersectionExampleScenario.node[35].nic.mac1609_4 	NumInternalContention 	0
scalar IntersectionExampleScenario.node[35].nic.mac1609_4 	totalBusyTime 	0
scalar IntersectionExampleScenario.node[35].veinsmobility 	startTime 	151
scalar IntersectionExampleScenario.node[35].veinsmobility 	totalTime 	42.5
scalar IntersectionExampleScenario.node[35].veinsmobility 	stopTime 	193.75
scalar IntersectionExampleScenario.node[35].veinsmobility 	minSpeed 	5.6500000953674
scalar IntersectionExampleScenario.node[35].veinsmobility 	maxSpeed 	15.375
scalar IntersectionExampleScenario.node[35].veinsmobility 	totalDistance 	570.20449623195
scalar IntersectionExampleScenario.node[35].veinsmobility 	totalCO2Emission 	133.40693890571
scalar IntersectionExampleScenario.node[36].appl 	VehicleRemoved 	0
scalar IntersectionExampleScenario.node[36].appl 	ArrivedAtDest 	1
scalar IntersectionExampleScenario.node[36].appl 	IntersectionEnterTime 	151
scalar IntersectionExampleScenario.node[36].appl 	IntersectionExitTime 	179.54029361723
scalar IntersectionExampleScenario.node[36].appl 	NumberOfCollisions 	0
scalar IntersectionExampleScenario.node[36].nic.phy80211p 	busyTime 	0
scalar IntersectionExampleScenario.node[36].nic.mac1609_4 	ReceivedUnicastPackets 	0
scalar IntersectionExampleScenario.node[36].nic.mac1609_4 	ReceivedBroadcasts 	0
scalar IntersectionExampleScenario.node[36].nic.mac1609_4 	SentPackets 	0
scalar IntersectionExampleScenario.node[36].nic.mac1609_4 	SNIRLostPackets 	0
scalar IntersectionExampleScenario.node[36].nic.mac1609_4 	RXTXLostPackets 	0
scalar IntersectionExampleScenario.node[36].nic.mac1609_4 	TotalLostPackets 	0
scalar IntersectionExampleScenario.node[36].nic.mac1609_4 	DroppedPacketsInMac 	0
scalar IntersectionExampleScenario.node[36].nic.mac1609_4 	TooLittleTime 	0
scalar IntersectionExampleScenario.node[36].nic.mac1609_4 	TimesIntoBackoff 	0
scalar IntersectionExampleScenario.node[36].nic.mac1609_4 	SlotsBackoff 	0
scalar IntersectionExampleScenario.node[36].nic.mac1609_4 	NumInternalContention 	0
scalar IntersectionExampleScenario.node[36].nic.mac1609_4 	totalBusyTime 	0
scalar IntersectionExampleScenario.node[36].veinsmobility 	startTime 	151
scalar IntersectionExampleScenario.node[36].veinsmobility 	totalTime 	45.25
scalar IntersectionExampleScenario.node[36].veinsmobility 	stopTime 	196.5
scalar IntersectionExampleScenario.node[36].veinsmobility 	minSpeed 	0
scalar IntersectionExampleScenario.node[36].veinsmobility 	maxSpeed 	15.02499961853
scalar IntersectionExampleScenario.node[36].veinsmobility 	totalDistance 	553.61759185791
scalar IntersectionExampleScenario.node[36].veinsmobility 	totalCO2Emission 	132.72588152461
scalar IntersectionExampleScenario.node[38].appl 	VehicleRemoved 	0
scalar IntersectionExampleScenario.node[38].appl 	ArrivedAtDest 	1
scalar IntersectionExampleScenario.node[38].appl 	IntersectionEnterTime 	156.5
scalar IntersectionExampleScenario.node[38].appl 	IntersectionExitTime 	181.26033900518
scalar IntersectionExampleScenario.node[38].appl 	NumberOfCollisions 	0
scalar IntersectionExampleScenario.node[38].nic.phy80211p 	busyTime 	0
scalar IntersectionExampleScenario.node[38].nic.mac1609_4 	ReceivedUnicastPackets 	0
scalar IntersectionExampleScenario.node[38].nic.mac1609_4 	ReceivedBroadcasts 	0
scalar IntersectionExampleScenario.node[38].nic.mac1609_4 	SentPackets 	0
scalar IntersectionExampleScenario.node[38].nic.mac1609_4 	SNIRLostPackets 	0
scalar IntersectionExampleScenario.node[38].nic.mac1609_4 	RXTXLostPackets 	0
scalar IntersectionExampleScenario.node[38].nic.mac1609_4 	TotalLostPackets 	0
scalar IntersectionExampleScenario.node[38].nic.mac1609_4 	DroppedPacketsInMac 	0
scalar IntersectionExampleScenario.node[38].nic.mac1609_4 	TooLittleTime 	0
scalar IntersectionExampleScenario.node[38].nic.mac1609_4 	TimesIntoBackoff 	0
scalar IntersectionExampleScenario.node[38].nic.mac1609_4 	SlotsBackoff 	0
scalar IntersectionExampleScenario.node[38].nic.mac1609_4 	NumInternalContention 	0
scalar IntersectionExampleScenario.node[38].nic.mac1609_4 	totalBusyTime 	0
scalar IntersectionExampleScenario.node[38].veinsmobility 	startTime 	156.5
scalar IntersectionExampleScenario.node[38].veinsmobility 	totalTime 	41.75
scalar IntersectionExampleScenario.node[38].veinsmobility 	stopTime 	198.5
scalar IntersectionExampleScenario.node[38].veinsmobility 	minSpeed 	5.6500000953674
scalar IntersectionExampleScenario.node[38].veinsmobility 	maxSpeed 	15.02499961853
scalar IntersectionExampleScenario.node[38].veinsmobility 	totalDistance 	544.47239245421
scalar IntersectionExampleScenario.node[38].veinsmobility 	totalCO2Emission 	129.35627739415
scalar IntersectionExampleScenario.node[40].appl 	VehicleRemoved 	0
scalar IntersectionExampleScenario.node[40].appl 	ArrivedAtDest 	1
scalar IntersectionExampleScenario.node[40].appl 	IntersectionEnterTime 	167.5
scalar IntersectionExampleScenario.node[40].appl 	IntersectionExitTime 	190.29902481797
scalar IntersectionExampleScenario.node[40].appl 	NumberOfCollisions 	0
scalar IntersectionExampleScenario.node[40].nic.phy80211p 	busyTime 	0
scalar IntersectionExampleScenario.node[40].nic.mac1609_4 	ReceivedUnicastPackets 	0
scalar IntersectionExampleScenario.node[40].nic.mac1609_4 	ReceivedBroadcasts 	0
scalar IntersectionExampleScenario.node[40].nic.mac1609_4 	SentPackets 	0
scalar IntersectionExampleScenario.node[40].nic.mac1609_4 	SNIRLostPackets 	0
scalar IntersectionExampleScenario.node[40].nic.mac1609_4 	RXTXLostPackets 	0
scalar IntersectionExampleScenario.node[40].nic.mac1609_4 	TotalLostPackets 	0
scalar IntersectionExampleScenario.node[40].nic.mac1609_4 	DroppedPacketsInMac 	0
scalar IntersectionExampleScenario.node[40].nic.mac1609_4 	TooLittleTime 	0
scalar IntersectionExampleScenario.node[40].nic.mac1609_4 	TimesIntoBackoff 	0
[...]
scalar IntersectionExampleScenario.node[503].veinsmobility 	totalDistance 	407.18257904053
scalar IntersectionExampleScenario.node[503].veinsmobility 	totalCO2Emission 	124.39078607831
scalar IntersectionExampleScenario.node[504].appl 	VehicleRemoved 	0
scalar IntersectionExampleScenario.node[504].appl 	ArrivedAtDest 	0
scalar IntersectionExampleScenario.node[504].appl 	IntersectionEnterTime 	1760.75
scalar IntersectionExampleScenario.node[504].appl 	IntersectionExitTime 	1797.2550045039
scalar IntersectionExampleScenario.node[504].appl 	NumberOfCollisions 	0
scalar IntersectionExampleScenario.node[504].nic.phy80211p 	busyTime 	0
scalar IntersectionExampleScenario.node[504].nic.mac1609_4 	ReceivedUnicastPackets 	0
scalar IntersectionExampleScenario.node[504].nic.mac1609_4 	ReceivedBroadcasts 	0
scalar IntersectionExampleScenario.node[504].nic.mac1609_4 	SentPackets 	0
scalar IntersectionExampleScenario.node[504].nic.mac1609_4 	SNIRLostPackets 	0
scalar IntersectionExampleScenario.node[504].nic.mac1609_4 	RXTXLostPackets 	0
scalar IntersectionExampleScenario.node[504].nic.mac1609_4 	TotalLostPackets 	0
scalar IntersectionExampleScenario.node[504].nic.mac1609_4 	DroppedPacketsInMac 	0
scalar IntersectionExampleScenario.node[504].nic.mac1609_4 	TooLittleTime 	0
scalar IntersectionExampleScenario.node[504].nic.mac1609_4 	TimesIntoBackoff 	0
scalar IntersectionExampleScenario.node[504].nic.mac1609_4 	SlotsBackoff 	0
scalar IntersectionExampleScenario.node[504].nic.mac1609_4 	NumInternalContention 	0
scalar IntersectionExampleScenario.node[504].nic.mac1609_4 	totalBusyTime 	0
scalar IntersectionExampleScenario.node[504].veinsmobility 	startTime 	1760.75
scalar IntersectionExampleScenario.node[504].veinsmobility 	totalTime 	39.25
scalar IntersectionExampleScenario.node[504].veinsmobility 	stopTime 	1800
scalar IntersectionExampleScenario.node[504].veinsmobility 	minSpeed 	0.29034459590912
scalar IntersectionExampleScenario.node[504].veinsmobility 	maxSpeed 	15.02499961853
scalar IntersectionExampleScenario.node[504].veinsmobility 	totalDistance 	339.92265394399
scalar IntersectionExampleScenario.node[504].veinsmobility 	totalCO2Emission 	107.75364580795
scalar IntersectionExampleScenario.node[505].appl 	VehicleRemoved 	0
scalar IntersectionExampleScenario.node[505].appl 	ArrivedAtDest 	0
scalar IntersectionExampleScenario.node[505].appl 	IntersectionEnterTime 	1762.5
scalar IntersectionExampleScenario.node[505].appl 	IntersectionExitTime 	-1
scalar IntersectionExampleScenario.node[505].appl 	NumberOfCollisions 	0
scalar IntersectionExampleScenario.node[505].nic.phy80211p 	busyTime 	0
scalar IntersectionExampleScenario.node[505].nic.mac1609_4 	ReceivedUnicastPackets 	0
scalar IntersectionExampleScenario.node[505].nic.mac1609_4 	ReceivedBroadcasts 	0
scalar IntersectionExampleScenario.node[505].nic.mac1609_4 	SentPackets 	0
scalar IntersectionExampleScenario.node[505].nic.mac1609_4 	SNIRLostPackets 	0
scalar IntersectionExampleScenario.node[505].nic.mac1609_4 	RXTXLostPackets 	0
scalar IntersectionExampleScenario.node[505].nic.mac1609_4 	TotalLostPackets 	0
scalar IntersectionExampleScenario.node[505].nic.mac1609_4 	DroppedPacketsInMac 	0
scalar IntersectionExampleScenario.node[505].nic.mac1609_4 	TooLittleTime 	0
scalar IntersectionExampleScenario.node[505].nic.mac1609_4 	TimesIntoBackoff 	0
scalar IntersectionExampleScenario.node[505].nic.mac1609_4 	SlotsBackoff 	0
scalar IntersectionExampleScenario.node[505].nic.mac1609_4 	NumInternalContention 	0
scalar IntersectionExampleScenario.node[505].nic.mac1609_4 	totalBusyTime 	0
scalar IntersectionExampleScenario.node[505].veinsmobility 	startTime 	1762.5
scalar IntersectionExampleScenario.node[505].veinsmobility 	totalTime 	37.5
scalar IntersectionExampleScenario.node[505].veinsmobility 	stopTime 	1800
scalar IntersectionExampleScenario.node[505].veinsmobility 	minSpeed 	0
scalar IntersectionExampleScenario.node[505].veinsmobility 	maxSpeed 	16.89999961853
scalar IntersectionExampleScenario.node[505].veinsmobility 	totalDistance 	299.13880127824
scalar IntersectionExampleScenario.node[505].veinsmobility 	totalCO2Emission 	94.352423604607
scalar IntersectionExampleScenario.node[506].appl 	VehicleRemoved 	0
scalar IntersectionExampleScenario.node[506].appl 	ArrivedAtDest 	0
scalar IntersectionExampleScenario.node[506].appl 	IntersectionEnterTime 	1765.25
scalar IntersectionExampleScenario.node[506].appl 	IntersectionExitTime 	-1
scalar IntersectionExampleScenario.node[506].appl 	NumberOfCollisions 	0
scalar IntersectionExampleScenario.node[506].nic.phy80211p 	busyTime 	0
scalar IntersectionExampleScenario.node[506].nic.mac1609_4 	ReceivedUnicastPackets 	0
scalar IntersectionExampleScenario.node[506].nic.mac1609_4 	ReceivedBroadcasts 	0
scalar IntersectionExampleScenario.node[506].nic.mac1609_4 	SentPackets 	0
scalar IntersectionExampleScenario.node[506].nic.mac1609_4 	SNIRLostPackets 	0
scalar IntersectionExampleScenario.node[506].nic.mac1609_4 	RXTXLostPackets 	0
scalar IntersectionExampleScenario.node[506].nic.mac1609_4 	TotalLostPackets 	0
scalar IntersectionExampleScenario.node[506].nic.mac1609_4 	DroppedPacketsInMac 	0
scalar IntersectionExampleScenario.node[506].nic.mac1609_4 	TooLittleTime 	0
scalar IntersectionExampleScenario.node[506].nic.mac1609_4 	TimesIntoBackoff 	0
scalar IntersectionExampleScenario.node[506].nic.mac1609_4 	SlotsBackoff 	0
scalar IntersectionExampleScenario.node[506].nic.mac1609_4 	NumInternalContention 	0
scalar IntersectionExampleScenario.node[506].nic.mac1609_4 	totalBusyTime 	0
scalar IntersectionExampleScenario.node[506].veinsmobility 	startTime 	1765.25
scalar IntersectionExampleScenario.node[506].veinsmobility 	totalTime 	34.75
scalar IntersectionExampleScenario.node[506].veinsmobility 	stopTime 	1800
scalar IntersectionExampleScenario.node[506].veinsmobility 	minSpeed 	0
scalar IntersectionExampleScenario.node[506].veinsmobility 	maxSpeed 	15.02499961853
scalar IntersectionExampleScenario.node[506].veinsmobility 	totalDistance 	293.72202301025
scalar IntersectionExampleScenario.node[506].veinsmobility 	totalCO2Emission 	83.708365179673
scalar IntersectionExampleScenario.node[507].appl 	VehicleRemoved 	0
scalar IntersectionExampleScenario.node[507].appl 	ArrivedAtDest 	0
scalar IntersectionExampleScenario.node[507].appl 	IntersectionEnterTime 	1767.75
scalar IntersectionExampleScenario.node[507].appl 	IntersectionExitTime 	-1
scalar IntersectionExampleScenario.node[507].appl 	NumberOfCollisions 	0
scalar IntersectionExampleScenario.node[507].nic.phy80211p 	busyTime 	0
scalar IntersectionExampleScenario.node[507].nic.mac1609_4 	ReceivedUnicastPackets 	0
scalar IntersectionExampleScenario.node[507].nic.mac1609_4 	ReceivedBroadcasts 	0
scalar IntersectionExampleScenario.node[507].nic.mac1609_4 	SentPackets 	0
scalar IntersectionExampleScenario.node[507].nic.mac1609_4 	SNIRLostPackets 	0
scalar IntersectionExampleScenario.node[507].nic.mac1609_4 	RXTXLostPackets 	0
scalar IntersectionExampleScenario.node[507].nic.mac1609_4 	TotalLostPackets 	0
scalar IntersectionExampleScenario.node[507].nic.mac1609_4 	DroppedPacketsInMac 	0
scalar IntersectionExampleScenario.node[507].nic.mac1609_4 	TooLittleTime 	0
scalar IntersectionExampleScenario.node[507].nic.mac1609_4 	TimesIntoBackoff 	0
scalar IntersectionExampleScenario.node[507].nic.mac1609_4 	SlotsBackoff 	0
scalar IntersectionExampleScenario.node[507].nic.mac1609_4 	NumInternalContention 	0
scalar IntersectionExampleScenario.node[507].nic.mac1609_4 	totalBusyTime 	0
scalar IntersectionExampleScenario.node[507].veinsmobility 	startTime 	1767.75
scalar IntersectionExampleScenario.node[507].veinsmobility 	totalTime 	32.25
scalar IntersectionExampleScenario.node[507].veinsmobility 	stopTime 	1800
scalar IntersectionExampleScenario.node[507].veinsmobility 	minSpeed 	0
scalar IntersectionExampleScenario.node[507].veinsmobility 	maxSpeed 	15.64999961853
scalar IntersectionExampleScenario.node[507].veinsmobility 	totalDistance 	287.42190551758
scalar IntersectionExampleScenario.node[507].veinsmobility 	totalCO2Emission 	75.438965305862
scalar IntersectionExampleScenario.node[508].appl 	VehicleRemoved 	0
scalar IntersectionExampleScenario.node[508].appl 	ArrivedAtDest 	0
scalar IntersectionExampleScenario.node[508].appl 	IntersectionEnterTime 	1771
scalar IntersectionExampleScenario.node[508].appl 	IntersectionExitTime 	-1
scalar IntersectionExampleScenario.node[508].appl 	NumberOfCollisions 	0
scalar IntersectionExampleScenario.node[508].nic.phy80211p 	busyTime 	0
scalar IntersectionExampleScenario.node[508].nic.mac1609_4 	ReceivedUnicastPackets 	0
scalar IntersectionExampleScenario.node[508].nic.mac1609_4 	ReceivedBroadcasts 	0
scalar IntersectionExampleScenario.node[508].nic.mac1609_4 	SentPackets 	0
scalar IntersectionExampleScenario.node[508].nic.mac1609_4 	SNIRLostPackets 	0
scalar IntersectionExampleScenario.node[508].nic.mac1609_4 	RXTXLostPackets 	0
scalar IntersectionExampleScenario.node[508].nic.mac1609_4 	TotalLostPackets 	0
scalar IntersectionExampleScenario.node[508].nic.mac1609_4 	DroppedPacketsInMac 	0
scalar IntersectionExampleScenario.node[508].nic.mac1609_4 	TooLittleTime 	0
scalar IntersectionExampleScenario.node[508].nic.mac1609_4 	TimesIntoBackoff 	0
scalar IntersectionExampleScenario.node[508].nic.mac1609_4 	SlotsBackoff 	0
scalar IntersectionExampleScenario.node[508].nic.mac1609_4 	NumInternalContention 	0
scalar IntersectionExampleScenario.node[508].nic.mac1609_4 	totalBusyTime 	0
scalar IntersectionExampleScenario.node[508].veinsmobility 	startTime 	1771
scalar IntersectionExampleScenario.node[508].veinsmobility 	totalTime 	29
scalar IntersectionExampleScenario.node[508].veinsmobility 	stopTime 	1800
scalar IntersectionExampleScenario.node[508].veinsmobility 	minSpeed 	0
scalar IntersectionExampleScenario.node[508].veinsmobility 	maxSpeed 	15.02499961853
scalar IntersectionExampleScenario.node[508].veinsmobility 	totalDistance 	291.63748168945
scalar IntersectionExampleScenario.node[508].veinsmobility 	totalCO2Emission 	69.288373645893
scalar IntersectionExampleScenario.node[509].appl 	VehicleRemoved 	0
scalar IntersectionExampleScenario.node[509].appl 	ArrivedAtDest 	0
scalar IntersectionExampleScenario.node[509].appl 	IntersectionEnterTime 	1773.5
scalar IntersectionExampleScenario.node[509].appl 	IntersectionExitTime 	-1
scalar IntersectionExampleScenario.node[509].appl 	NumberOfCollisions 	0
scalar IntersectionExampleScenario.node[509].nic.phy80211p 	busyTime 	0
scalar IntersectionExampleScenario.node[509].nic.mac1609_4 	ReceivedUnicastPackets 	0
scalar IntersectionExampleScenario.node[509].nic.mac1609_4 	ReceivedBroadcasts 	0
scalar IntersectionExampleScenario.node[509].nic.mac1609_4 	SentPackets 	0
scalar IntersectionExampleScenario.node[509].nic.mac1609_4 	SNIRLostPackets 	0
scalar IntersectionExampleScenario.node[509].nic.mac1609_4 	RXTXLostPackets 	0
scalar IntersectionExampleScenario.node[509].nic.mac1609_4 	TotalLostPackets 	0
scalar IntersectionExampleScenario.node[509].nic.mac1609_4 	DroppedPacketsInMac 	0
scalar IntersectionExampleScenario.node[509].nic.mac1609_4 	TooLittleTime 	0
scalar IntersectionExampleScenario.node[509].nic.mac1609_4 	TimesIntoBackoff 	0
scalar IntersectionExampleScenario.node[509].nic.mac1609_4 	SlotsBackoff 	0
scalar IntersectionExampleScenario.node[509].nic.mac1609_4 	NumInternalContention 	0
scalar IntersectionExampleScenario.node[509].nic.mac1609_4 	totalBusyTime 	0
scalar IntersectionExampleScenario.node[509].veinsmobility 	startTime 	1773.5
scalar IntersectionExampleScenario.node[509].veinsmobility 	totalTime 	26.5
scalar IntersectionExampleScenario.node[509].veinsmobility 	stopTime 	1800
scalar IntersectionExampleScenario.node[509].veinsmobility 	minSpeed 	0.66794049739838
scalar IntersectionExampleScenario.node[509].veinsmobility 	maxSpeed 	15.64999961853
scalar IntersectionExampleScenario.node[509].veinsmobility 	totalDistance 	281.03098297119
scalar IntersectionExampleScenario.node[509].veinsmobility 	totalCO2Emission 	74.368713313686
scalar IntersectionExampleScenario.node[510].appl 	VehicleRemoved 	0
scalar IntersectionExampleScenario.node[510].appl 	ArrivedAtDest 	0
scalar IntersectionExampleScenario.node[510].appl 	IntersectionEnterTime 	1776.75
scalar IntersectionExampleScenario.node[510].appl 	IntersectionExitTime 	-1
scalar IntersectionExampleScenario.node[510].appl 	NumberOfCollisions 	0
scalar IntersectionExampleScenario.node[510].nic.phy80211p 	busyTime 	0
scalar IntersectionExampleScenario.node[510].nic.mac1609_4 	ReceivedUnicastPackets 	0
scalar IntersectionExampleScenario.node[510].nic.mac1609_4 	ReceivedBroadcasts 	0
scalar IntersectionExampleScenario.node[510].nic.mac1609_4 	SentPackets 	0
scalar IntersectionExampleScenario.node[510].nic.mac1609_4 	SNIRLostPackets 	0
scalar IntersectionExampleScenario.node[510].nic.mac1609_4 	RXTXLostPackets 	0
scalar IntersectionExampleScenario.node[510].nic.mac1609_4 	TotalLostPackets 	0
scalar IntersectionExampleScenario.node[510].nic.mac1609_4 	DroppedPacketsInMac 	0
scalar IntersectionExampleScenario.node[510].nic.mac1609_4 	TooLittleTime 	0
scalar IntersectionExampleScenario.node[510].nic.mac1609_4 	TimesIntoBackoff 	0
scalar IntersectionExampleScenario.node[510].nic.mac1609_4 	SlotsBackoff 	0
scalar IntersectionExampleScenario.node[510].nic.mac1609_4 	NumInternalContention 	0
scalar IntersectionExampleScenario.node[510].nic.mac1609_4 	totalBusyTime 	0
scalar IntersectionExampleScenario.node[510].veinsmobility 	startTime 	1776.75
scalar IntersectionExampleScenario.node[510].veinsmobility 	totalTime 	23.25
scalar IntersectionExampleScenario.node[510].veinsmobility 	stopTime 	1800
scalar IntersectionExampleScenario.node[510].veinsmobility 	minSpeed 	2.9817752838135
scalar IntersectionExampleScenario.node[510].veinsmobility 	maxSpeed 	15.64999961853
scalar IntersectionExampleScenario.node[510].veinsmobility 	totalDistance 	274.4097366333
scalar IntersectionExampleScenario.node[510].veinsmobility 	totalCO2Emission 	61.623283352092
scalar IntersectionExampleScenario.node[511].appl 	VehicleRemoved 	0
scalar IntersectionExampleScenario.node[511].appl 	ArrivedAtDest 	0
scalar IntersectionExampleScenario.node[511].appl 	IntersectionEnterTime 	1779.75
scalar IntersectionExampleScenario.node[511].appl 	IntersectionExitTime 	-1
scalar IntersectionExampleScenario.node[511].appl 	NumberOfCollisions 	0
scalar IntersectionExampleScenario.node[511].nic.phy80211p 	busyTime 	0
scalar IntersectionExampleScenario.node[511].nic.mac1609_4 	ReceivedUnicastPackets 	0
scalar IntersectionExampleScenario.node[511].nic.mac1609_4 	ReceivedBroadcasts 	0
scalar IntersectionExampleScenario.node[511].nic.mac1609_4 	SentPackets 	0
scalar IntersectionExampleScenario.node[511].nic.mac1609_4 	SNIRLostPackets 	0
scalar IntersectionExampleScenario.node[511].nic.mac1609_4 	RXTXLostPackets 	0
scalar IntersectionExampleScenario.node[511].nic.mac1609_4 	TotalLostPackets 	0
scalar IntersectionExampleScenario.node[511].nic.mac1609_4 	DroppedPacketsInMac 	0
scalar IntersectionExampleScenario.node[511].nic.mac1609_4 	TooLittleTime 	0
scalar IntersectionExampleScenario.node[511].nic.mac1609_4 	TimesIntoBackoff 	0
scalar IntersectionExampleScenario.node[511].nic.mac1609_4 	SlotsBackoff 	0
scalar IntersectionExampleScenario.node[511].nic.mac1609_4 	NumInternalContention 	0
scalar IntersectionExampleScenario.node[511].nic.mac1609_4 	totalBusyTime 	0
scalar IntersectionExampleScenario.node[511].veinsmobility 	startTime 	1779.75
scalar IntersectionExampleScenario.node[511].veinsmobility 	totalTime 	20.25
scalar IntersectionExampleScenario.node[511].veinsmobility 	stopTime 	1800
scalar IntersectionExampleScenario.node[511].veinsmobility 	minSpeed 	5.6500000953674
scalar IntersectionExampleScenario.node[511].veinsmobility 	maxSpeed 	15.02499961853
scalar IntersectionExampleScenario.node[511].veinsmobility 	totalDistance 	272.99933624268
scalar IntersectionExampleScenario.node[511].veinsmobility 	totalCO2Emission 	61.291775619999
scalar IntersectionExampleScenario.node[512].appl 	VehicleRemoved 	0
scalar IntersectionExampleScenario.node[512].appl 	ArrivedAtDest 	0
scalar IntersectionExampleScenario.node[512].appl 	IntersectionEnterTime 	1785.25
scalar IntersectionExampleScenario.node[512].appl 	IntersectionExitTime 	-1
scalar IntersectionExampleScenario.node[512].appl 	NumberOfCollisions 	0
scalar IntersectionExampleScenario.node[512].nic.phy80211p 	busyTime 	0
scalar IntersectionExampleScenario.node[512].nic.mac1609_4 	ReceivedUnicastPackets 	0
scalar IntersectionExampleScenario.node[512].nic.mac1609_4 	ReceivedBroadcasts 	0
scalar IntersectionExampleScenario.node[512].nic.mac1609_4 	SentPackets 	0
scalar IntersectionExampleScenario.node[512].nic.mac1609_4 	SNIRLostPackets 	0
scalar IntersectionExampleScenario.node[512].nic.mac1609_4 	RXTXLostPackets 	0
scalar IntersectionExampleScenario.node[512].nic.mac1609_4 	TotalLostPackets 	0
scalar IntersectionExampleScenario.node[512].nic.mac1609_4 	DroppedPacketsInMac 	0
scalar IntersectionExampleScenario.node[512].nic.mac1609_4 	TooLittleTime 	0
scalar IntersectionExampleScenario.node[512].nic.mac1609_4 	TimesIntoBackoff 	0
scalar IntersectionExampleScenario.node[512].nic.mac1609_4 	SlotsBackoff 	0
scalar IntersectionExampleScenario.node[512].nic.mac1609_4 	NumInternalContention 	0
scalar IntersectionExampleScenario.node[512].nic.mac1609_4 	totalBusyTime 	0
scalar IntersectionExampleScenario.node[512].veinsmobility 	startTime 	1785.25
scalar IntersectionExampleScenario.node[512].veinsmobility 	totalTime 	14.75
scalar IntersectionExampleScenario.node[512].veinsmobility 	stopTime 	1800
scalar IntersectionExampleScenario.node[512].veinsmobility 	minSpeed 	5.6500000953674
scalar IntersectionExampleScenario.node[512].veinsmobility 	maxSpeed 	16.27499961853
scalar IntersectionExampleScenario.node[512].veinsmobility 	totalDistance 	206.96157836914
scalar IntersectionExampleScenario.node[512].veinsmobility 	totalCO2Emission 	56.019806249377
scalar IntersectionExampleScenario.node[513].appl 	VehicleRemoved 	0
scalar IntersectionExampleScenario.node[513].appl 	ArrivedAtDest 	0
scalar IntersectionExampleScenario.node[513].appl 	IntersectionEnterTime 	1795.75
scalar IntersectionExampleScenario.node[513].appl 	IntersectionExitTime 	-1
scalar IntersectionExampleScenario.node[513].appl 	NumberOfCollisions 	0
scalar IntersectionExampleScenario.node[513].nic.phy80211p 	busyTime 	0
scalar IntersectionExampleScenario.node[513].nic.mac1609_4 	ReceivedUnicastPackets 	0
scalar IntersectionExampleScenario.node[513].nic.mac1609_4 	ReceivedBroadcasts 	0
scalar IntersectionExampleScenario.node[513].nic.mac1609_4 	SentPackets 	0
scalar IntersectionExampleScenario.node[513].nic.mac1609_4 	SNIRLostPackets 	0
scalar IntersectionExampleScenario.node[513].nic.mac1609_4 	RXTXLostPackets 	0
scalar IntersectionExampleScenario.node[513].nic.mac1609_4 	TotalLostPackets 	0
scalar IntersectionExampleScenario.node[513].nic.mac1609_4 	DroppedPacketsInMac 	0
scalar IntersectionExampleScenario.node[513].nic.mac1609_4 	TooLittleTime 	0
scalar IntersectionExampleScenario.node[513].nic.mac1609_4 	TimesIntoBackoff 	0
scalar IntersectionExampleScenario.node[513].nic.mac1609_4 	SlotsBackoff 	0
scalar IntersectionExampleScenario.node[513].nic.mac1609_4 	NumInternalContention 	0
scalar IntersectionExampleScenario.node[513].nic.mac1609_4 	totalBusyTime 	0
scalar IntersectionExampleScenario.node[513].veinsmobility 	startTime 	1795.75
scalar IntersectionExampleScenario.node[513].veinsmobility 	totalTime 	4.25
scalar IntersectionExampleScenario.node[513].veinsmobility 	stopTime 	1800
scalar IntersectionExampleScenario.node[513].veinsmobility 	minSpeed 	5.6500000953674
scalar IntersectionExampleScenario.node[513].veinsmobility 	maxSpeed 	15.64999961853
scalar IntersectionExampleScenario.node[513].veinsmobility 	totalDistance 	43.934387207031
scalar IntersectionExampleScenario.node[513].veinsmobility 	totalCO2Emission 	33.562634268961
