file 15573941 1591485457                                        
version 2
run nodebug-49-20200606-19:15:04-22420
attr configname nodebug
attr datetime 20200606-19:15:04
attr experiment nodebug
attr inifile omnetpp.ini
attr iterationvars ""
attr iterationvars2 $repetition=49
attr measurement ""
attr network "\"org.car2x.veins.modules.application.ExtTraCIScenarioManagerLaunchd.IntersectionExampleScenario\""
attr processid 22420
attr repetition 49
attr replication #49
attr resultdir results
attr runnumber 49
attr seedset 49
param **.coreDebug false
param **.debug false
param *.**.nic.mac1609_4.bitrate 18Mbps
param *.**.nic.mac1609_4.txPower 20mW
param *.**.nic.mac1609_4.useServiceChannel false
param *.**.nic.phy80211p.analogueModels "xmldoc(\"config.xml\")"
param *.**.nic.phy80211p.decider "xmldoc(\"config.xml\")"
param *.**.nic.phy80211p.sensitivity -89dBm
param *.**.nic.phy80211p.thermalNoise -110dBm
param *.**.nic.phy80211p.usePropagationDelay true
param *.**.nic.phy80211p.useThermalNoise true
param *.annotations.draw false
param *.connectionManager.alpha 2.0
param *.connectionManager.carrierFrequency "5.890e9 Hz"
param *.connectionManager.pMax 20mW
param *.connectionManager.sat -89dBm
param *.connectionManager.sendDirect true
param *.manager.autoShutdown true
param *.manager.host "\"localhost\""
param *.manager.launchConfig "xmldoc(\"paramics.launchd.xml\")"
param *.manager.margin 25
param *.manager.moduleDisplayString "\"\""
param *.manager.moduleName "\"node\""
param *.manager.moduleType "\"org.car2x.veins.nodes.Car\""
param *.manager.port 9999
param *.manager.updateInterval 250ms
param *.node[*0].veinsmobility.accidentCount 0
param *.node[*0].veinsmobility.accidentDuration 30s
param *.node[*0].veinsmobility.accidentStart 75s
param *.node[*].appl.LiderSelectZoneRadio 55.0
param *.node[*].appl.ShareDataZoneRadio 110.0
param *.node[*].appl.TiempoSemaforo 30.0
param *.node[*].appl.beaconInterval 1s
param *.node[*].appl.beaconPriority 3
param *.node[*].appl.dataOnSch false
param *.node[*].appl.dataPriority 2
param *.node[*].appl.debug false
param *.node[*].appl.headerLength "256 bit"
param *.node[*].appl.maxOffset 0.005s
param *.node[*].appl.sendBeacons false
param *.node[*].appl.sendData true
param *.node[*].applType "\"Dummy\""
param *.node[*].mobilityType "\"TraCIMobility\""
param *.node[*].mobilityType.debug true
param *.node[*].veinsmobility.x 0
param *.node[*].veinsmobility.y 0
param *.node[*].veinsmobility.z 1.895
param *.node[*].veinsmobilityType "\"org.car2x.veins.modules.mobility.traci.TraCIMobility\""
param *.node[*].veinsmobilityType.debug true
param *.playgroundSizeX 8500m
param *.playgroundSizeY 8500m
param *.playgroundSizeZ 50m
param *.world.use2D false
param *.world.useTorus false

vector 62629  IntersectionExampleScenario.manager  vehiclesinsim  ETV
attr type  int
vector 62630  IntersectionExampleScenario.manager  realtime  ETV
attr type  int
attr unit  s
vector 62633  IntersectionExampleScenario.node[0].veinsmobility  posx  ETV
vector 62634  IntersectionExampleScenario.node[0].veinsmobility  posy  ETV
vector 62640  IntersectionExampleScenario.node[1].veinsmobility  posx  ETV
vector 62641  IntersectionExampleScenario.node[1].veinsmobility  posy  ETV
vector 62635  IntersectionExampleScenario.node[0].veinsmobility  speed  ETV
vector 62636  IntersectionExampleScenario.node[0].veinsmobility  acceleration  ETV
vector 62637  IntersectionExampleScenario.node[0].veinsmobility  co2emission  ETV
vector 62642  IntersectionExampleScenario.node[1].veinsmobility  speed  ETV
vector 62643  IntersectionExampleScenario.node[1].veinsmobility  acceleration  ETV
vector 62644  IntersectionExampleScenario.node[1].veinsmobility  co2emission  ETV
vector 62647  IntersectionExampleScenario.node[2].veinsmobility  posx  ETV
vector 62648  IntersectionExampleScenario.node[2].veinsmobility  posy  ETV
vector 62654  IntersectionExampleScenario.node[3].veinsmobility  posx  ETV
vector 62655  IntersectionExampleScenario.node[3].veinsmobility  posy  ETV
vector 62649  IntersectionExampleScenario.node[2].veinsmobility  speed  ETV
vector 62650  IntersectionExampleScenario.node[2].veinsmobility  acceleration  ETV
vector 62651  IntersectionExampleScenario.node[2].veinsmobility  co2emission  ETV
vector 62656  IntersectionExampleScenario.node[3].veinsmobility  speed  ETV
vector 62657  IntersectionExampleScenario.node[3].veinsmobility  acceleration  ETV
vector 62658  IntersectionExampleScenario.node[3].veinsmobility  co2emission  ETV
vector 62661  IntersectionExampleScenario.node[4].veinsmobility  posx  ETV
vector 62662  IntersectionExampleScenario.node[4].veinsmobility  posy  ETV
vector 62663  IntersectionExampleScenario.node[4].veinsmobility  speed  ETV
vector 62664  IntersectionExampleScenario.node[4].veinsmobility  acceleration  ETV
vector 62665  IntersectionExampleScenario.node[4].veinsmobility  co2emission  ETV
vector 62668  IntersectionExampleScenario.node[5].veinsmobility  posx  ETV
vector 62669  IntersectionExampleScenario.node[5].veinsmobility  posy  ETV
vector 62670  IntersectionExampleScenario.node[5].veinsmobility  speed  ETV
vector 62671  IntersectionExampleScenario.node[5].veinsmobility  acceleration  ETV
vector 62672  IntersectionExampleScenario.node[5].veinsmobility  co2emission  ETV
vector 62675  IntersectionExampleScenario.node[6].veinsmobility  posx  ETV
vector 62676  IntersectionExampleScenario.node[6].veinsmobility  posy  ETV
vector 62677  IntersectionExampleScenario.node[6].veinsmobility  speed  ETV
vector 62678  IntersectionExampleScenario.node[6].veinsmobility  acceleration  ETV
vector 62679  IntersectionExampleScenario.node[6].veinsmobility  co2emission  ETV
vector 62682  IntersectionExampleScenario.node[7].veinsmobility  posx  ETV
vector 62683  IntersectionExampleScenario.node[7].veinsmobility  posy  ETV
vector 62684  IntersectionExampleScenario.node[7].veinsmobility  speed  ETV
vector 62685  IntersectionExampleScenario.node[7].veinsmobility  acceleration  ETV
vector 62686  IntersectionExampleScenario.node[7].veinsmobility  co2emission  ETV
vector 62689  IntersectionExampleScenario.node[8].veinsmobility  posx  ETV
vector 62690  IntersectionExampleScenario.node[8].veinsmobility  posy  ETV
vector 62691  IntersectionExampleScenario.node[8].veinsmobility  speed  ETV
vector 62692  IntersectionExampleScenario.node[8].veinsmobility  acceleration  ETV
vector 62693  IntersectionExampleScenario.node[8].veinsmobility  co2emission  ETV
vector 62696  IntersectionExampleScenario.node[9].veinsmobility  posx  ETV
vector 62697  IntersectionExampleScenario.node[9].veinsmobility  posy  ETV
vector 62698  IntersectionExampleScenario.node[9].veinsmobility  speed  ETV
vector 62699  IntersectionExampleScenario.node[9].veinsmobility  acceleration  ETV
vector 62700  IntersectionExampleScenario.node[9].veinsmobility  co2emission  ETV
vector 62703  IntersectionExampleScenario.node[10].veinsmobility  posx  ETV
vector 62704  IntersectionExampleScenario.node[10].veinsmobility  posy  ETV
vector 62705  IntersectionExampleScenario.node[10].veinsmobility  speed  ETV
vector 62706  IntersectionExampleScenario.node[10].veinsmobility  acceleration  ETV
vector 62707  IntersectionExampleScenario.node[10].veinsmobility  co2emission  ETV
vector 62710  IntersectionExampleScenario.node[11].veinsmobility  posx  ETV
vector 62711  IntersectionExampleScenario.node[11].veinsmobility  posy  ETV
vector 62712  IntersectionExampleScenario.node[11].veinsmobility  speed  ETV
vector 62713  IntersectionExampleScenario.node[11].veinsmobility  acceleration  ETV
vector 62714  IntersectionExampleScenario.node[11].veinsmobility  co2emission  ETV
vector 62717  IntersectionExampleScenario.node[12].veinsmobility  posx  ETV
vector 62718  IntersectionExampleScenario.node[12].veinsmobility  posy  ETV
vector 62719  IntersectionExampleScenario.node[12].veinsmobility  speed  ETV
vector 62720  IntersectionExampleScenario.node[12].veinsmobility  acceleration  ETV
vector 62721  IntersectionExampleScenario.node[12].veinsmobility  co2emission  ETV
vector 62724  IntersectionExampleScenario.node[13].veinsmobility  posx  ETV
vector 62725  IntersectionExampleScenario.node[13].veinsmobility  posy  ETV
vector 62726  IntersectionExampleScenario.node[13].veinsmobility  speed  ETV
vector 62727  IntersectionExampleScenario.node[13].veinsmobility  acceleration  ETV
vector 62728  IntersectionExampleScenario.node[13].veinsmobility  co2emission  ETV
vector 62731  IntersectionExampleScenario.node[14].veinsmobility  posx  ETV
vector 62732  IntersectionExampleScenario.node[14].veinsmobility  posy  ETV
vector 62733  IntersectionExampleScenario.node[14].veinsmobility  speed  ETV
vector 62734  IntersectionExampleScenario.node[14].veinsmobility  acceleration  ETV
vector 62735  IntersectionExampleScenario.node[14].veinsmobility  co2emission  ETV
62658	8901 4825 134 2823 10.25 48 152 0.973 11.990504229548 480.56587504167 2612.2460010431
62657	13726 4388 134 2823 10.25 48 152 -3.098316192627 2.5 39.699392318726 198.7413223314
62656	18114 4733 125 2823 10 48 153 5.6500000953674 16.125 2223.7700414658 33036.010603426
62655	22847 5016 116 2823 9.75 48 154 483.14999389648 483.14999389648 74405.099060059 35948823.156735
62654	27863 4982 116 2823 9.75 48 154 184.17810058594 734.81692504883 69104.701156616 35120463.854685
62665	32845 5109 183 3115 11.5 51.25 160 0.973 11.648172402475 483.28159574483 2490.5642767772
62664	37954 4688 183 3115 11.5 51.25 160 -4.5 2.5 38.171613693237 204.33153867134
62663	42642 5024 172 3115 11.25 51.25 161 5.6500000953674 15.64999961853 2296.5753412247 33380.732816653
62662	47666 5286 161 3115 11 51.25 162 483.14999389648 483.14999389648 78270.29901123 37816294.489552
62661	52952 5261 161 3115 11 51.25 162 162.90466308594 731.71032714844 70872.017440796 35599794.184684
vector 62738  IntersectionExampleScenario.node[15].veinsmobility  posx  ETV
vector 62739  IntersectionExampleScenario.node[15].veinsmobility  posy  ETV
vector 62740  IntersectionExampleScenario.node[15].veinsmobility  speed  ETV
62644	58445 5998 34 3449 5.75 55.75 201 0.973 11.450879080643 561.40700508415 2795.767879184
62643	64443 5495 34 3449 5.75 55.75 201 -8.2099418640137 4 36.813589096069 483.06962067089
62642	69938 5824 29 3449 5.5 55.75 202 0 15.375 2209.0127635002 30612.527227923
62641	75762 6576 24 3449 5.25 55.75 203 483.14999389648 785.82187652588 113094.40345001 64978720.764689
62640	82338 6576 24 3449 5.25 55.75 203 483.14999389648 735.28971862793 106829.17874146 57313469.471787
vector 62741  IntersectionExampleScenario.node[15].veinsmobility  acceleration  ETV
vector 62742  IntersectionExampleScenario.node[15].veinsmobility  co2emission  ETV
vector 62745  IntersectionExampleScenario.node[16].veinsmobility  posx  ETV
vector 62746  IntersectionExampleScenario.node[16].veinsmobility  posy  ETV
62651	89237 5919 125 3639 10 58.25 194 0.973 11.450879080643 547.92718526454 2738.4811816527
62650	95156 5941 125 3639 10 58.25 194 -4.1825141906738 2.5 36.98334312439 372.71790972994
62649	101097 6163 116 3639 9.75 58.25 195 0 15.375 2227.4821392 30214.265179286
62648	107260 6383 109 3639 9.5 58.25 196 482.9997253418 790.18281555176 110302.55722046 64052241.281699
62647	113643 6392 109 3639 9.5 58.25 196 483.14999389648 734.96783447266 103400.58447266 55625038.19737
vector 62747  IntersectionExampleScenario.node[16].veinsmobility  speed  ETV
vector 62748  IntersectionExampleScenario.node[16].veinsmobility  acceleration  ETV
vector 62749  IntersectionExampleScenario.node[16].veinsmobility  co2emission  ETV
vector 62752  IntersectionExampleScenario.node[17].veinsmobility  posx  ETV
vector 62753  IntersectionExampleScenario.node[17].veinsmobility  posy  ETV
vector 62754  IntersectionExampleScenario.node[17].veinsmobility  speed  ETV
vector 62755  IntersectionExampleScenario.node[17].veinsmobility  acceleration  ETV
vector 62756  IntersectionExampleScenario.node[17].veinsmobility  co2emission  ETV
vector 62759  IntersectionExampleScenario.node[18].veinsmobility  posx  ETV
vector 62760  IntersectionExampleScenario.node[18].veinsmobility  posy  ETV
62637	120837 6986 29 4234 5.5 66.5 245 0.973 11.450879080643 603.39808734256 2835.7457676243
62636	127823 6339 29 4234 5.5 66.5 245 -6.771110534668 4 36.98334312439 452.58187023827
62635	134162 6661 24 4234 5.25 66.5 246 0 15.375 2197.6684861183 30446.00837182
62634	140823 8002 21 4234 5 66.5 247 184.17810058594 486.85000610352 104562.29034424 46357323.901682
62633	148825 8028 21 4234 5 66.5 247 237.87945556641 486.85000610352 111740.06259155 51669895.576826
vector 62761  IntersectionExampleScenario.node[18].veinsmobility  speed  ETV
vector 62762  IntersectionExampleScenario.node[18].veinsmobility  acceleration  ETV
vector 62763  IntersectionExampleScenario.node[18].veinsmobility  co2emission  ETV
62686	157100 5531 719 4294 21.5 67.5 185 0.973 12.26218747632 565.98526682285 3293.0384338331
62685	162631 5692 719 4294 21.5 67.5 185 -2.8164672851562 2.5 41.227170944214 339.19360588835
62684	168323 5766 702 4294 21.25 67.5 186 2.1839396953583 16.5 2180.6941542625 29841.285364135
62683	174089 6120 685 4294 21 67.5 187 184.17810058594 483.14999389648 75652.081604004 32373025.204759
62682	180209 6143 685 4294 21 67.5 187 486.85000610352 731.88389587402 98800.441146851 53140107.702897
62700	186352 5180 1270 4457 29.25 70.5 166 0.973 11.381300592404 524.00800532724 3027.9711934213
62699	191532 4929 1270 4457 29.25 70.5 166 -3.3442344665527 2.5 36.134572982788 280.55126406422
62698	196461 5284 1249 4457 29 70.5 167 5.6500000953674 15.277801513672 2216.8141231537 30188.791515359
62697	201745 5510 1228 4457 28.75 70.5 168 184.17810058594 733.66717529297 75165.494415283 37910854.506482
62696	207255 5544 1228 4457 28.75 70.5 168 486.85000610352 486.85000610352 81790.801025391 39819851.978423
vector 62766  IntersectionExampleScenario.node[19].veinsmobility  posx  ETV
vector 62767  IntersectionExampleScenario.node[19].veinsmobility  posy  ETV
vector 62768  IntersectionExampleScenario.node[19].veinsmobility  speed  ETV
vector 62769  IntersectionExampleScenario.node[19].veinsmobility  acceleration  ETV
vector 62770  IntersectionExampleScenario.node[19].veinsmobility  co2emission  ETV
vector 62773  IntersectionExampleScenario.node[20].veinsmobility  posx  ETV
vector 62774  IntersectionExampleScenario.node[20].veinsmobility  posy  ETV
vector 62775  IntersectionExampleScenario.node[20].veinsmobility  speed  ETV
vector 62776  IntersectionExampleScenario.node[20].veinsmobility  acceleration  ETV
vector 62777  IntersectionExampleScenario.node[20].veinsmobility  co2emission  ETV
62679	213601 7028 430 4824 16.75 77 242 0.973 11.90022389248 631.49323716306 3168.1012274705
62678	220629 6056 430 4824 16.75 77 242 -28.549938201904 4 39.869146347046 1225.9144398033
62677	226685 6573 415 4824 16.5 77 243 0 16 2247.9106683731 33028.43589499
62676	233258 8014 400 4824 16.25 77 244 483.14999389648 483.14999389648 117888.59851074 56957875.65093
62675	241272 7999 400 4824 16.25 77 244 176.91058349609 735.07762145996 110982.43029785 54788149.744254
vector 62780  IntersectionExampleScenario.node[21].veinsmobility  posx  ETV
vector 62781  IntersectionExampleScenario.node[21].veinsmobility  posy  ETV
vector 62782  IntersectionExampleScenario.node[21].veinsmobility  speed  ETV
vector 62787  IntersectionExampleScenario.node[22].veinsmobility  posx  ETV
vector 62788  IntersectionExampleScenario.node[22].veinsmobility  posy  ETV
vector 62783  IntersectionExampleScenario.node[21].veinsmobility  acceleration  ETV
vector 62784  IntersectionExampleScenario.node[21].veinsmobility  co2emission  ETV
vector 62789  IntersectionExampleScenario.node[22].veinsmobility  speed  ETV
62672	249904 7333 374 4922 15.75 78.5 252 0.973 10.756497587458 585.07844642549 2473.6147654287
62671	257237 6502 374 4922 15.75 78.5 252 -7.3721170425415 4 33.418523788452 468.54927828521
62670	263739 6931 361 4922 15.5 78.5 253 0 14.39999961853 2200.1202614307 29058.839816729
62669	270670 8335 348 4922 15.25 78.5 254 236.78717041016 486.85000610352 114547.4815979 52851900.701853
62668	279005 8334 348 4922 15.25 78.5 254 483.14999389648 785.82187652588 138945.46327209 78161010.171485
vector 62790  IntersectionExampleScenario.node[22].veinsmobility  acceleration  ETV
vector 62791  IntersectionExampleScenario.node[22].veinsmobility  co2emission  ETV
62693	287508 6405 1114 5074 27.25 80.5 214 0.973 11.200708441096 550.17855192484 2626.764240758
62692	293913 6860 1114 5074 27.25 80.5 214 -3.7878279685974 2.5 35.455564498901 314.01532731019
62691	300773 6935 1095 5074 27 80.5 215 0 15.02499961853 2209.5017428324 28460.478881314
62690	307708 7128 1076 5074 26.75 80.5 216 483.14999389648 483.14999389648 104360.39868164 50421725.986069
62689	314836 7078 1076 5074 26.75 80.5 216 184.17810058594 731.98806762695 97285.782928467 48089551.307695
62707	321914 5483 1875 5093 37 80.75 176 0.973 11.200708441096 508.90205325708 2508.5060163391
62706	327397 5486 1875 5093 37 80.75 176 -2.1179695129395 2.5000019073486 36.134572982788 241.0652996333
62705	332883 5573 1856 5093 36.75 80.75 177 5.6500000953674 15.02499961853 2215.0094094276 29236.502681792
62704	338456 5868 1837 5093 36.5 80.75 178 235.02020263672 486.85000610352 77819.848449707 35066664.867613
62703	344324 5859 1837 5093 36.5 80.75 178 483.12969970703 785.82187652588 101208.93824005 59379559.516302
vector 62794  IntersectionExampleScenario.node[23].veinsmobility  posx  ETV
vector 62795  IntersectionExampleScenario.node[23].veinsmobility  posy  ETV
vector 62801  IntersectionExampleScenario.node[24].veinsmobility  posx  ETV
vector 62802  IntersectionExampleScenario.node[24].veinsmobility  posy  ETV
vector 62796  IntersectionExampleScenario.node[23].veinsmobility  speed  ETV
vector 62797  IntersectionExampleScenario.node[23].veinsmobility  acceleration  ETV
vector 62798  IntersectionExampleScenario.node[23].veinsmobility  co2emission  ETV
vector 62803  IntersectionExampleScenario.node[24].veinsmobility  speed  ETV
vector 62804  IntersectionExampleScenario.node[24].veinsmobility  acceleration  ETV
vector 62805  IntersectionExampleScenario.node[24].veinsmobility  co2emission  ETV
62721	350985 5487 2139 5334 40.25 83.75 175 0.973 10.916047529558 533.38899298661 2823.1586846612
62720	356472 5208 2139 5334 40.25 83.75 175 -3.4544219970703 2.5 34.606801986694 331.87324877757
62719	361680 5495 2118 5334 40 83.75 176 5.6500000953674 14.625 2178.6841835976 28206.268977734
62718	367175 5834 2097 5334 39.75 83.75 177 237.61267089844 483.14999389648 76878.700195312 34381791.199943
62717	373009 5815 2097 5334 39.75 83.75 177 184.17810058594 483.19125366211 70579.518005371 29949994.93242
vector 62808  IntersectionExampleScenario.node[25].veinsmobility  posx  ETV
vector 62809  IntersectionExampleScenario.node[25].veinsmobility  posy  ETV
62735	378978 5090 2432 5355 43.75 84 162 0.973 11.90022389248 524.76085505003 2799.4978405183
62734	384068 4855 2432 5355 43.75 84 162 -4.5 2.5 41.227170944214 260.22808195916
62733	388923 5079 2409 5355 43.5 84 163 5.6500000953674 16.007736206055 2250.6673440933 32215.665320744
62732	394002 5401 2386 5355 43.25 84 164 483.14999389648 733.7442779541 87326.652862549 47449075.964173
62731	399403 5387 2386 5355 43.25 84 164 174.53436279297 486.85000610352 64589.520721436 27349101.799056
vector 62810  IntersectionExampleScenario.node[25].veinsmobility  speed  ETV
vector 62815  IntersectionExampleScenario.node[26].veinsmobility  posx  ETV
vector 62816  IntersectionExampleScenario.node[26].veinsmobility  posy  ETV
vector 62811  IntersectionExampleScenario.node[25].veinsmobility  acceleration  ETV
vector 62812  IntersectionExampleScenario.node[25].veinsmobility  co2emission  ETV
vector 62822  IntersectionExampleScenario.node[27].veinsmobility  posx  ETV
vector 62823  IntersectionExampleScenario.node[27].veinsmobility  posy  ETV
vector 62817  IntersectionExampleScenario.node[26].veinsmobility  speed  ETV
vector 62818  IntersectionExampleScenario.node[26].veinsmobility  acceleration  ETV
vector 62819  IntersectionExampleScenario.node[26].veinsmobility  co2emission  ETV
vector 62824  IntersectionExampleScenario.node[27].veinsmobility  speed  ETV
vector 62825  IntersectionExampleScenario.node[27].veinsmobility  acceleration  ETV
vector 62826  IntersectionExampleScenario.node[27].veinsmobility  co2emission  ETV
vector 62829  IntersectionExampleScenario.node[28].veinsmobility  posx  ETV
vector 62830  IntersectionExampleScenario.node[28].veinsmobility  posy  ETV
vector 62831  IntersectionExampleScenario.node[28].veinsmobility  speed  ETV
vector 62832  IntersectionExampleScenario.node[28].veinsmobility  acceleration  ETV
vector 62833  IntersectionExampleScenario.node[28].veinsmobility  co2emission  ETV
62714	406240 6442 1974 6085 38.25 91.25 213 0.973 11.00486315618 555.41767293764 2567.8098238465
62713	412682 6171 1974 6085 38.25 91.25 213 -8.167628288269 4 34.606801986694 468.62196080282
62712	418853 6232 1953 6085 38 91.25 214 0 14.75 2204.9154894352 29616.296430855
62711	425085 7074 1932 6085 37.75 91.25 215 483.14999389648 785.82187652588 119356.41558838 68294129.73444
62710	432159 7083 1932 6085 37.75 91.25 215 483.14999389648 734.46961975098 112892.45603943 60411864.111637
vector 62836  IntersectionExampleScenario.node[29].veinsmobility  posx  ETV
vector 62837  IntersectionExampleScenario.node[29].veinsmobility  posy  ETV
vector 62838  IntersectionExampleScenario.node[29].veinsmobility  speed  ETV
vector 62839  IntersectionExampleScenario.node[29].veinsmobility  acceleration  ETV
vector 62840  IntersectionExampleScenario.node[29].veinsmobility  co2emission  ETV
vector 62843  IntersectionExampleScenario.node[30].veinsmobility  posx  ETV
vector 62844  IntersectionExampleScenario.node[30].veinsmobility  posy  ETV
vector 62845  IntersectionExampleScenario.node[30].veinsmobility  speed  ETV
vector 62846  IntersectionExampleScenario.node[30].veinsmobility  acceleration  ETV
vector 62847  IntersectionExampleScenario.node[30].veinsmobility  co2emission  ETV
62749	440044 5190 3681 6929 58.75 99 162 0.973 11.36141391502 497.59860970425 2603.3112020495
62748	445234 4704 3681 6929 58.75 99 162 -3.4656429290771 2.5 36.98334312439 274.19288198751
62747	449938 5059 3660 6929 58.5 99 163 5.6500000953674 15.25 2183.7128014565 30486.636126182
62746	454997 5405 3639 6929 58.25 99 164 486.84750366211 785.82187652588 93870.51108551 55493257.774969
62745	460402 5345 3639 6929 58.25 99 164 236.71746826172 483.14999389648 70865.358886719 31565680.27796
vector 62850  IntersectionExampleScenario.node[31].veinsmobility  posx  ETV
vector 62851  IntersectionExampleScenario.node[31].veinsmobility  posy  ETV
vector 62852  IntersectionExampleScenario.node[31].veinsmobility  speed  ETV
vector 62853  IntersectionExampleScenario.node[31].veinsmobility  acceleration  ETV
vector 62854  IntersectionExampleScenario.node[31].veinsmobility  co2emission  ETV
62728	466148 6770 2344 7109 42.75 100.75 233 0.973 12.099024792222 621.06293080959 3264.4372156765
62727	472918 6343 2344 7109 42.75 100.75 233 -8.5033254623413 4 40.378400802612 511.54756098749
62726	479261 6475 2323 7109 42.5 100.75 234 0 16.27499961853 2209.8757975101 32226.322549615
62725	485736 7731 2302 7109 42.25 100.75 235 184.17810058594 732.75503540039 107148.09405518 52916016.528853
62724	493467 7761 2302 7109 42.25 100.75 235 486.85000610352 486.85000610352 114409.75143433 55700388.184103
vector 62857  IntersectionExampleScenario.node[32].veinsmobility  posx  ETV
vector 62858  IntersectionExampleScenario.node[32].veinsmobility  posy  ETV
vector 62864  IntersectionExampleScenario.node[33].veinsmobility  posx  ETV
vector 62865  IntersectionExampleScenario.node[33].veinsmobility  posy  ETV
62763	501536 5637 4264 7972 67 112 181 0.973 11.810082123732 572.66985704423 3158.5146471765
62762	507173 5164 4264 7972 67 112 181 -7.2209577560425 4 39.869146347046 497.84007066586
62761	512337 5505 4249 7972 66.75 112 182 0 15.875 2182.5982687473 31268.018854761
62760	517842 6017 4234 7972 66.5 112 183 486.85000610352 734.37205505371 97168.311401367 52565003.390347
62759	523859 6079 4234 7972 66.5 112 183 486.63604736328 785.82187652588 103046.75914764 59861063.690661
vector 62859  IntersectionExampleScenario.node[32].veinsmobility  speed  ETV
vector 62866  IntersectionExampleScenario.node[33].veinsmobility  speed  ETV
vector 62860  IntersectionExampleScenario.node[32].veinsmobility  acceleration  ETV
vector 62861  IntersectionExampleScenario.node[32].veinsmobility  co2emission  ETV
vector 62867  IntersectionExampleScenario.node[33].veinsmobility  acceleration  ETV
vector 62868  IntersectionExampleScenario.node[33].veinsmobility  co2emission  ETV
62742	530432 6757 3468 8006 56 112.5 227 0.973 11.36141391502 586.78776604097 2808.1653589632
62741	537189 6061 3468 8006 56 112.5 227 -7.457010269165 4 37.32285118103 467.27674674445
62740	543250 6440 3449 8006 55.75 112.5 228 0 15.25 2179.3544082642 30207.236950068
62739	549690 7543 3430 8006 55.5 112.5 229 236.31317138672 483.14999389648 102290.52114868 46757691.544408
62738	557233 7580 3430 8006 55.5 112.5 229 184.17810058594 483.36395263672 95866.181121826 42144985.077555
62756	564813 6137 4084 8135 64 114.5 203 0.973 11.200708441096 545.62872210577 2626.0824430734
62755	570950 6615 4084 8135 64 114.5 203 -2.2437705993652 2.5000004768372 36.98334312439 285.94619305224
62754	577565 6762 4066 8135 63.75 114.5 204 1.0357650518417 15.058119773865 2197.0332732201 28527.340323339
62753	584327 6818 4047 8135 63.5 114.5 205 483.14999389648 733.54971313477 107675.8813324 57631753.753175
62752	591145 6786 4047 8135 63.5 114.5 205 184.17810058594 486.85000610352 83938.307403564 36275471.743881
62770	597931 5265 4630 8240 73.75 116.25 171 0.973 12.099024792222 531.9432457868 3015.7815845894
62769	603196 5166 4630 8240 73.75 116.25 171 -2.1303367614746 2.5 40.038900375366 268.12752985575
62768	608362 5451 4615 8240 73.5 116.25 172 5.6500000953674 16.27499961853 2211.4956908226 30209.153720984
62767	613813 5770 4600 8240 73.25 116.25 173 483.14999389648 734.01837158203 91839.162139893 49737951.427235
62766	619583 5740 4600 8240 73.25 116.25 173 184.17810058594 486.85000610352 69229.254974365 29473268.826053
vector 62871  IntersectionExampleScenario.node[34].veinsmobility  posx  ETV
vector 62872  IntersectionExampleScenario.node[34].veinsmobility  posy  ETV
vector 62873  IntersectionExampleScenario.node[34].veinsmobility  speed  ETV
vector 62874  IntersectionExampleScenario.node[34].veinsmobility  acceleration  ETV
vector 62875  IntersectionExampleScenario.node[34].veinsmobility  co2emission  ETV
62784	625724 5101 4903 8355 78.25 118 160 0.973 12.099024792222 582.55663955848 3658.3254004867
62783	630825 4808 4903 8355 78.25 118 160 -4.5 2.5 40.548154830933 455.56115498851
62782	635633 5286 4886 8355 78 118 161 3.489296913147 16.27499961853 2182.0136766434 31551.048721496
62781	640919 5411 4869 8355 77.75 118 162 486.85000610352 732.5240020752 86761.070510864 47366627.33848
62780	646330 5408 4869 8355 77.75 118 162 486.77520751953 785.82187652588 92537.292442322 54589679.788489
62791	651738 5404 4941 8540 78.75 120.75 169 0.973 11.934181170414 533.8802007822 2979.6914135771
62790	657142 5292 4941 8540 78.75 120.75 169 -4.5 2.5 39.869146347046 288.26605989984
62789	662434 5375 4922 8540 78.5 120.75 170 5.6500000953674 16.047039031982 2287.465985775 32522.760397751
62788	667809 5725 4903 8540 78.25 120.75 171 486.85000610352 734.99513244629 91370.11390686 49773669.491586
62787	673534 5723 4903 8540 78.25 120.75 171 486.85000610352 809.56562805176 99319.1378479 59826218.539259
62805	679257 5054 5250 8615 82.75 122 158 0.973 11.810082123732 516.35298288055 3026.8389662449
62804	684311 4936 5250 8615 82.75 122 158 -3.4052715301514 2.5 39.529638290405 296.11003611369
62803	689247 5004 5229 8615 82.5 122 159 5.6500000953674 15.987868309021 2189.5295672417 31620.742424747
62802	694251 5362 5208 8615 82.25 122 160 235.49145507812 483.14999389648 69173.711212158 30829881.28695
62801	699613 5350 5208 8615 82.25 122 160 184.17810058594 483.16613769531 63630.363037109 27037928.879265
62812	704963 4998 5401 8689 84.5 123.25 156 0.973 11.935679697965 524.99594699227 3002.1416164343
62811	709961 5069 5401 8689 84.5 123.25 156 -3.829833984375 2.5 40.208654403687 280.24303914048
62810	715030 5228 5378 8689 84.25 123.25 157 5.6500000953674 16.049114227295 2224.5437393188 32591.365312007
62809	720258 5293 5355 8689 84 123.25 158 238.5947265625 486.85000610352 68847.110839844 30919195.357769
62808	725551 5295 5355 8689 84 123.25 158 483.05865478516 791.70355987549 90761.613777161 53976300.654259
62777	730846 6382 4704 8845 75 126.25 206 0.973 10.916047529558 543.23057731314 2517.0882505932
62776	737228 5780 4704 8845 75 126.25 206 -7.8154296875 4 34.267293930054 448.84505795862
62775	743008 6192 4689 8845 74.75 126.25 207 0 14.625 2179.667781353 28929.234911764
62774	749200 6962 4674 8845 74.5 126.25 208 486.63604736328 785.82187652588 116193.62242126 66881961.22081
62773	756162 6902 4674 8845 74.5 126.25 208 235.92425537109 483.14999389648 91694.979400635 41499560.7033
62798	763064 5691 5229 8923 82.5 127.75 182 0.973 11.200708441096 534.81761261559 2659.5975048882
62797	768755 5747 5229 8923 82.5 127.75 182 -2.5766868591309 2.5 38.341367721558 280.62239948908
62796	774502 5897 5208 8923 82.25 127.75 183 3.0249538421631 15.276113510132 2181.1836154461 29199.385174923
62795	780399 6171 5188 8923 82 127.75 184 486.85000610352 785.82187652588 104263.79715729 60877531.212954
62794	786570 6173 5188 8923 82 127.75 184 237.71142578125 483.14999389648 80760.734375 36413898.417255
62819	792743 5593 5453 8975 85 128.75 176 0.973 11.990504229548 579.78796295479 3267.2476838069
62818	798336 5346 5453 8975 85 128.75 176 -4.5 2.5 41.736440658569 364.84610830025
62817	803682 5688 5426 8975 84.75 128.75 177 4.2155938148499 16.13783454895 2277.9037709236 32166.7971627
62816	809370 5972 5401 8975 84.5 128.75 178 237.33575439453 801.41563415527 94887.934089661 54913839.533696
62815	815342 5991 5401 8975 84.5 128.75 178 483.14999389648 483.14999389648 86000.698913574 41551237.155187
vector 62878  IntersectionExampleScenario.node[35].veinsmobility  posx  ETV
vector 62879  IntersectionExampleScenario.node[35].veinsmobility  posy  ETV
vector 62880  IntersectionExampleScenario.node[35].veinsmobility  speed  ETV
vector 62881  IntersectionExampleScenario.node[35].veinsmobility  acceleration  ETV
vector 62882  IntersectionExampleScenario.node[35].veinsmobility  co2emission  ETV
62826	821734 6361 5480 9341 85.25 136.5 206 0.973 11.450879080643 565.11575093754 2796.9145299631
62825	828095 5848 5480 9341 85.25 136.5 206 -8.2128324508667 4 36.813589096069 483.09837192663
62824	833943 6164 5453 9341 85 136.5 207 0 15.375 2194.1650776863 30391.974956571
62823	840107 6980 5426 9341 84.75 136.5 208 184.17810058594 486.85000610352 86158.234313965 37675613.612228
62822	847087 7001 5426 9341 84.75 136.5 208 238.42358398438 486.85000610352 92767.210968018 42434611.347711
62847	854088 5397 6749 9421 97.25 139.25 169 0.973 11.810082123732 558.80032022218 3255.246774998
62846	859485 5176 6749 9421 97.25 139.25 169 -3.065975189209 2.5 39.869146347046 347.47896084052
62845	864661 5439 6722 9421 97 139.25 170 5.6500000953674 15.875 2180.6107406616 29972.815303668
62844	870100 5760 6695 9421 96.75 139.25 171 184.17810058594 483.2734375 68289.079925537 29008869.851912
62843	875860 5796 6695 9421 96.75 139.25 171 486.85000610352 731.70909118652 91165.171920776 49522292.101063
vector 62885  IntersectionExampleScenario.node[36].veinsmobility  posx  ETV
vector 62886  IntersectionExampleScenario.node[36].veinsmobility  posy  ETV
vector 62887  IntersectionExampleScenario.node[36].veinsmobility  speed  ETV
vector 62888  IntersectionExampleScenario.node[36].veinsmobility  acceleration  ETV
vector 62889  IntersectionExampleScenario.node[36].veinsmobility  co2emission  ETV
vector 62892  IntersectionExampleScenario.node[37].veinsmobility  posx  ETV
vector 62893  IntersectionExampleScenario.node[37].veinsmobility  posy  ETV
vector 62894  IntersectionExampleScenario.node[37].veinsmobility  speed  ETV
vector 62895  IntersectionExampleScenario.node[37].veinsmobility  acceleration  ETV
vector 62896  IntersectionExampleScenario.node[37].veinsmobility  co2emission  ETV
vector 62899  IntersectionExampleScenario.node[38].veinsmobility  posx  ETV
vector 62900  IntersectionExampleScenario.node[38].veinsmobility  posy  ETV
vector 62901  IntersectionExampleScenario.node[38].veinsmobility  speed  ETV
vector 62902  IntersectionExampleScenario.node[38].veinsmobility  acceleration  ETV
vector 62903  IntersectionExampleScenario.node[38].veinsmobility  co2emission  ETV
vector 62906  IntersectionExampleScenario.node[39].veinsmobility  posx  ETV
vector 62907  IntersectionExampleScenario.node[39].veinsmobility  posy  ETV
vector 62908  IntersectionExampleScenario.node[39].veinsmobility  speed  ETV
vector 62909  IntersectionExampleScenario.node[39].veinsmobility  acceleration  ETV
vector 62910  IntersectionExampleScenario.node[39].veinsmobility  co2emission  ETV
62833	883260 6781 6085 9756 91.25 147 224 0.973 11.648172402475 593.75238480247 2976.3162301263
62832	890041 6345 6085 9756 91.25 147 224 -7.2680816650391 4 38.511121749878 474.1635172015
62831	896386 6509 6058 9756 91 147 225 0 15.64999961853 2186.7884094715 30944.20640245
62830	902895 7640 6031 9756 90.75 147 226 483.14999389648 734.23628234863 117643.57510376 62337627.178871
62829	910535 7619 6031 9756 90.75 147 226 184.17810058594 486.85000610352 94846.42288208 41826335.329254
62854	918154 6088 7058 9855 100.25 149.25 197 0.973 12.553400930962 605.43144364643 3406.9283330671
62853	924242 5774 7058 9855 100.25 149.25 197 -8.9821796417236 4 42.924703598022 543.64901964832
62852	930016 5907 7031 9855 100 149.25 198 0 16.89999961853 2183.5519185066 32533.836451538
62851	935923 6757 7004 9855 99.75 149.25 199 486.85000610352 733.82626342773 104580.62159729 55922320.361358
62850	942680 6744 7004 9855 99.75 149.25 199 486.75677490234 785.82187652588 110674.1488266 63425705.683803
vector 62913  IntersectionExampleScenario.node[40].veinsmobility  posx  ETV
vector 62914  IntersectionExampleScenario.node[40].veinsmobility  posy  ETV
vector 62915  IntersectionExampleScenario.node[40].veinsmobility  speed  ETV
vector 62916  IntersectionExampleScenario.node[40].veinsmobility  acceleration  ETV
vector 62917  IntersectionExampleScenario.node[40].veinsmobility  co2emission  ETV
62840	949825 7741 6278 10020 93 152.5 239 0.973 11.200708441096 600.41811562048 2702.0369699335
62839	957566 7945 6278 10020 93 152.5 239 -4.5 2.5 35.964826583862 420.66535580066
62838	965511 8096 6249 10020 92.75 152.5 240 0 15.02499961853 2285.9360052831 30546.346152572
62837	973607 8151 6220 10020 92.5 152.5 241 483.14999389648 735.13597106934 125348.5645752 66357493.682641
62836	981758 8132 6220 10020 92.5 152.5 241 164.94219970703 486.85000610352 99552.943695068 43526126.148696
62868	989890 5350 8006 10072 112.5 153.5 165 0.973 11.648172402475 558.97377545784 3308.5455732477
62867	995240 4885 8006 10072 112.5 153.5 165 -4.5 2.5 38.341367721558 357.19112997066
62866	1000125 5331 7989 10072 112.25 153.5 166 5.6500000953674 15.64999961853 2189.0150747299 30218.922708952
62865	1005456 5672 7972 10072 112 153.5 167 235.77886962891 483.14999389648 72420.230072021 32353890.159817
62864	1011128 5650 7972 10072 112 153.5 167 184.17810058594 483.22134399414 66520.31161499 28247340.896318
62861	1016778 6098 8006 10423 112.5 160.25 192 0.973 11.648172402475 561.47896353784 2907.5472500903
62860	1022876 5536 8006 10423 112.5 160.25 192 -7.03919506073 4 38.341367721558 476.33694168539
62859	1028412 5927 7989 10423 112.25 160.25 193 0 15.64999961853 2177.4668385983 30628.127941716
62858	1034339 6624 7972 10423 112 160.25 194 486.63604736328 785.82187652588 108673.55791473 62763646.623541
62857	1040963 6563 7972 10423 112 160.25 194 236.95220947266 483.14999389648 85549.351135254 38718547.656887
62875	1047526 5669 8304 10475 117.25 161.25 177 0.973 11.90022389248 547.88572594737 3015.4930268045
62874	1053195 5678 8304 10475 117.25 161.25 177 -4.2863693237305 2.5000019073486 39.699392318726 372.32984883805
62873	1058873 5846 8287 10475 117 161.25 178 1.317255616188 16 2203.4211999178 30976.283646
62872	1064719 6115 8270 10475 116.75 161.25 179 482.94049072266 785.82187652588 101098.90555573 58928311.541236
62871	1070834 6121 8270 10475 116.75 161.25 179 483.14999389648 732.22891235352 94653.31211853 51034194.196491
vector 62920  IntersectionExampleScenario.node[41].veinsmobility  posx  ETV
vector 62921  IntersectionExampleScenario.node[41].veinsmobility  posy  ETV
vector 62922  IntersectionExampleScenario.node[41].veinsmobility  speed  ETV
vector 62923  IntersectionExampleScenario.node[41].veinsmobility  acceleration  ETV
vector 62924  IntersectionExampleScenario.node[41].veinsmobility  co2emission  ETV
vector 62927  IntersectionExampleScenario.node[42].veinsmobility  posx  ETV
vector 62928  IntersectionExampleScenario.node[42].veinsmobility  posy  ETV
vector 62929  IntersectionExampleScenario.node[42].veinsmobility  speed  ETV
vector 62930  IntersectionExampleScenario.node[42].veinsmobility  acceleration  ETV
vector 62931  IntersectionExampleScenario.node[42].veinsmobility  co2emission  ETV
vector 62934  IntersectionExampleScenario.node[43].veinsmobility  posx  ETV
vector 62935  IntersectionExampleScenario.node[43].veinsmobility  posy  ETV
vector 62936  IntersectionExampleScenario.node[43].veinsmobility  speed  ETV
vector 62937  IntersectionExampleScenario.node[43].veinsmobility  acceleration  ETV
vector 62938  IntersectionExampleScenario.node[43].veinsmobility  co2emission  ETV
vector 62941  IntersectionExampleScenario.node[44].veinsmobility  posx  ETV
vector 62942  IntersectionExampleScenario.node[44].veinsmobility  posy  ETV
vector 62943  IntersectionExampleScenario.node[44].veinsmobility  speed  ETV
vector 62944  IntersectionExampleScenario.node[44].veinsmobility  acceleration  ETV
vector 62945  IntersectionExampleScenario.node[44].veinsmobility  co2emission  ETV
62910	1078559 5170 9652 11601 144.75 182.75 153 0.973 12.099024792222 517.03968971001 3019.6362943788
62909	1083729 4886 9652 11601 144.75 182.75 153 -3.5800514221191 2.5 40.887662887573 273.6912597823
62908	1088615 5058 9639 11601 144.5 182.75 154 5.6500000953674 16.27499961853 2207.1773347855 32734.19414688
62907	1093673 5386 9626 11601 144.25 182.75 155 483.14999389648 732.80177307129 82957.841720581 45320204.652586
62906	1099059 5369 9626 11601 144.25 182.75 155 184.17810058594 486.85000610352 61673.085601807 26279296.64894
62882	1104428 6535 9150 11612 132.25 183 204 0.973 11.200708441096 553.91812800753 2664.806822421
62881	1110963 6016 9150 11612 132.25 183 204 -6.8640689849854 4 35.625318527222 447.68975026733
62880	1116979 6379 9137 11612 132 183 205 0 15.02499961853 2205.7956194878 30004.684011173
62879	1123358 7125 9124 11612 131.75 183 206 235.62408447266 486.85000610352 91429.874511719 41683467.196609
62878	1130483 7120 9124 11612 131.75 183 206 483.14999389648 785.82187652588 114728.31861115 65886447.75677
vector 62948  IntersectionExampleScenario.node[45].veinsmobility  posx  ETV
vector 62949  IntersectionExampleScenario.node[45].veinsmobility  posy  ETV
vector 62950  IntersectionExampleScenario.node[45].veinsmobility  speed  ETV
vector 62951  IntersectionExampleScenario.node[45].veinsmobility  acceleration  ETV
vector 62952  IntersectionExampleScenario.node[45].veinsmobility  co2emission  ETV
62889	1138004 5837 9467 11710 140.75 185.25 179 0.973 11.200708441096 521.3128561823 2614.7188385993
62888	1143841 5832 9467 11710 140.75 185.25 179 -2.2406425476074 2.5 36.813589096069 263.4337579607
62887	1149673 6064 9458 11710 140.5 185.25 180 4.464686870575 15.02499961853 2205.4396591187 29147.014925862
62886	1155737 6270 9449 11710 140.25 185.25 181 237.17700195312 486.85000610352 79532.263977051 35969041.117227
62885	1162007 6280 9449 11710 140.25 185.25 181 483.06750488281 785.82187652588 102730.10874176 60138473.849483
vector 62955  IntersectionExampleScenario.node[46].veinsmobility  posx  ETV
vector 62956  IntersectionExampleScenario.node[46].veinsmobility  posy  ETV
vector 62957  IntersectionExampleScenario.node[46].veinsmobility  speed  ETV
vector 62958  IntersectionExampleScenario.node[46].veinsmobility  acceleration  ETV
vector 62959  IntersectionExampleScenario.node[46].veinsmobility  co2emission  ETV
vector 62962  IntersectionExampleScenario.node[47].veinsmobility  posx  ETV
vector 62963  IntersectionExampleScenario.node[47].veinsmobility  posy  ETV
vector 62964  IntersectionExampleScenario.node[47].veinsmobility  speed  ETV
vector 62969  IntersectionExampleScenario.node[48].veinsmobility  posx  ETV
vector 62970  IntersectionExampleScenario.node[48].veinsmobility  posy  ETV
vector 62965  IntersectionExampleScenario.node[47].veinsmobility  acceleration  ETV
vector 62966  IntersectionExampleScenario.node[47].veinsmobility  co2emission  ETV
vector 62971  IntersectionExampleScenario.node[48].veinsmobility  speed  ETV
vector 62972  IntersectionExampleScenario.node[48].veinsmobility  acceleration  ETV
vector 62973  IntersectionExampleScenario.node[48].veinsmobility  co2emission  ETV
vector 62976  IntersectionExampleScenario.node[49].veinsmobility  posx  ETV
vector 62977  IntersectionExampleScenario.node[49].veinsmobility  posy  ETV
vector 62978  IntersectionExampleScenario.node[49].veinsmobility  speed  ETV
vector 62979  IntersectionExampleScenario.node[49].veinsmobility  acceleration  ETV
vector 62980  IntersectionExampleScenario.node[49].veinsmobility  co2emission  ETV
vector 62983  IntersectionExampleScenario.node[50].veinsmobility  posx  ETV
vector 62984  IntersectionExampleScenario.node[50].veinsmobility  posy  ETV
vector 62985  IntersectionExampleScenario.node[50].veinsmobility  speed  ETV
vector 62986  IntersectionExampleScenario.node[50].veinsmobility  acceleration  ETV
vector 62987  IntersectionExampleScenario.node[50].veinsmobility  co2emission  ETV
62896	1170292 6731 9507 12318 141.75 195 214 0.973 11.90022389248 594.10965338356 3087.875251325
62895	1177023 6267 9507 12318 141.75 195 214 -8.013355255127 4 39.529638290405 491.35818162182
62894	1183290 6487 9496 12318 141.5 195 215 0 16 2201.7318792343 31602.528258395
62893	1189777 7507 9485 12318 141.25 195 216 483.14999389648 785.82187652588 119281.65222931 67858849.939237
62892	1197284 7511 9485 12318 141.25 195 216 483.14999389648 733.12632751465 112606.46012878 59763177.158375
vector 62990  IntersectionExampleScenario.node[51].veinsmobility  posx  ETV
vector 62991  IntersectionExampleScenario.node[51].veinsmobility  posy  ETV
vector 62992  IntersectionExampleScenario.node[51].veinsmobility  speed  ETV
vector 62993  IntersectionExampleScenario.node[51].veinsmobility  acceleration  ETV
vector 62994  IntersectionExampleScenario.node[51].veinsmobility  co2emission  ETV
62903	1205196 6849 9566 12457 143 196.75 216 0.973 11.90022389248 623.05064090629 3214.5374494363
62902	1212045 6376 9566 12457 143 196.75 216 -4.5 2.5 42.245687484741 493.15648962809
62901	1218421 6753 9553 12457 142.75 196.75 217 0 16.275604248047 2287.0895898491 33705.958159561
62900	1225174 7578 9540 12457 142.5 196.75 218 482.98971557617 807.09531402588 122062.83805084 70654625.356134
62899	1232752 7591 9540 12457 142.5 196.75 218 483.14999389648 731.93951416016 113185.51846313 59782273.245185
62917	1240343 6376 9903 12709 150.25 199.75 199 0.973 11.54047740176 551.22582527888 2788.3672967034
62916	1246719 6488 9903 12709 150.25 199.75 199 -4.5 2.5 37.15309715271 352.85222500404
62915	1253207 6805 9890 12709 150 199.75 200 1.3498678207397 15.5 2221.9133263826 29159.21873055
62914	1260012 7001 9877 12709 149.75 199.75 201 235.15991210938 785.82187652588 104736.16655731 58826667.966016
62913	1267013 7026 9877 12709 149.75 199.75 201 483.14999389648 483.14999389648 97113.148773193 46920217.237037
vector 62997  IntersectionExampleScenario.node[52].veinsmobility  posx  ETV
vector 62998  IntersectionExampleScenario.node[52].veinsmobility  posy  ETV
vector 62999  IntersectionExampleScenario.node[52].veinsmobility  speed  ETV
vector 63000  IntersectionExampleScenario.node[52].veinsmobility  acceleration  ETV
vector 63001  IntersectionExampleScenario.node[52].veinsmobility  co2emission  ETV
62924	1274440 5419 10751 13226 166.5 206.25 160 0.973 11.810082123732 519.24573714757 2908.9200351636
62923	1279859 5107 10751 13226 166.5 206.25 160 -3.4006843566895 2.5 39.359884262085 297.43075844684
62922	1284966 5306 10737 13226 166.25 206.25 161 5.6500000953674 15.875 2186.2226524353 31244.784123902
62921	1290272 5638 10722 13226 166 206.25 162 184.17810058594 483.17489624023 64513.791717529 27429872.927585
62920	1295910 5662 10722 13226 166 206.25 162 486.85000610352 733.57844543457 86957.789093018 47598350.785581
vector 63004  IntersectionExampleScenario.node[53].veinsmobility  posx  ETV
vector 63005  IntersectionExampleScenario.node[53].veinsmobility  posy  ETV
vector 63006  IntersectionExampleScenario.node[53].veinsmobility  speed  ETV
vector 63007  IntersectionExampleScenario.node[53].veinsmobility  acceleration  ETV
vector 63008  IntersectionExampleScenario.node[53].veinsmobility  co2emission  ETV
vector 63011  IntersectionExampleScenario.node[54].veinsmobility  posx  ETV
vector 63012  IntersectionExampleScenario.node[54].veinsmobility  posy  ETV
vector 63013  IntersectionExampleScenario.node[54].veinsmobility  speed  ETV
vector 63014  IntersectionExampleScenario.node[54].veinsmobility  acceleration  ETV
vector 63015  IntersectionExampleScenario.node[54].veinsmobility  co2emission  ETV
vector 63018  IntersectionExampleScenario.node[55].veinsmobility  posx  ETV
vector 63019  IntersectionExampleScenario.node[55].veinsmobility  posy  ETV
vector 63020  IntersectionExampleScenario.node[55].veinsmobility  speed  ETV
vector 63021  IntersectionExampleScenario.node[55].veinsmobility  acceleration  ETV
vector 63022  IntersectionExampleScenario.node[55].veinsmobility  co2emission  ETV
62945	1302775 5828 11218 14255 175.75 218.5 172 0.973 10.756497587458 482.61724842978 2265.6689485141
62944	1308603 5198 11218 14255 175.75 218.5 172 -2.9526805877686 2.5 33.248777389526 243.38164430753
62943	1313801 5772 11203 14255 175.5 218.5 173 5.6500000953674 14.39999961853 2183.9579043388 28633.042140632
62942	1319573 6084 11188 14255 175.25 218.5 174 486.85000610352 733.5375213623 93629.259460449 51390274.642297
62941	1325657 6083 11188 14255 175.25 218.5 174 486.85000610352 785.82187652588 99381.651947021 58593190.479573
vector 63025  IntersectionExampleScenario.node[56].veinsmobility  posx  ETV
vector 63026  IntersectionExampleScenario.node[56].veinsmobility  posy  ETV
vector 63027  IntersectionExampleScenario.node[56].veinsmobility  speed  ETV
vector 63028  IntersectionExampleScenario.node[56].veinsmobility  acceleration  ETV
vector 63029  IntersectionExampleScenario.node[56].veinsmobility  co2emission  ETV
vector 63032  IntersectionExampleScenario.node[57].veinsmobility  posx  ETV
vector 63033  IntersectionExampleScenario.node[57].veinsmobility  posy  ETV
vector 63034  IntersectionExampleScenario.node[57].veinsmobility  speed  ETV
vector 63035  IntersectionExampleScenario.node[57].veinsmobility  acceleration  ETV
vector 63036  IntersectionExampleScenario.node[57].veinsmobility  co2emission  ETV
vector 63039  IntersectionExampleScenario.node[58].veinsmobility  posx  ETV
vector 63040  IntersectionExampleScenario.node[58].veinsmobility  posy  ETV
vector 63041  IntersectionExampleScenario.node[58].veinsmobility  speed  ETV
vector 63042  IntersectionExampleScenario.node[58].veinsmobility  acceleration  ETV
vector 63043  IntersectionExampleScenario.node[58].veinsmobility  co2emission  ETV
vector 63046  IntersectionExampleScenario.node[59].veinsmobility  posx  ETV
vector 63047  IntersectionExampleScenario.node[59].veinsmobility  posy  ETV
vector 63048  IntersectionExampleScenario.node[59].veinsmobility  speed  ETV
vector 63049  IntersectionExampleScenario.node[59].veinsmobility  acceleration  ETV
vector 63050  IntersectionExampleScenario.node[59].veinsmobility  co2emission  ETV
vector 63053  IntersectionExampleScenario.node[60].veinsmobility  posx  ETV
vector 63054  IntersectionExampleScenario.node[60].veinsmobility  posy  ETV
vector 63055  IntersectionExampleScenario.node[60].veinsmobility  speed  ETV
vector 63056  IntersectionExampleScenario.node[60].veinsmobility  acceleration  ETV
vector 63057  IntersectionExampleScenario.node[60].veinsmobility  co2emission  ETV
62966	1333745 5513 11895 15079 189 229.25 162 0.973 11.36141391502 498.04660962162 2605.702682659
62965	1339258 5013 11895 15079 189 229.25 162 -3.4963760375977 2.5 37.15309715271 266.39964838222
62964	1344271 5389 11880 15079 188.75 229.25 163 5.6500000953674 15.25 2185.2570457458 30545.530708214
62963	1349660 5736 11865 15079 188.5 229.25 164 236.24053955078 483.14999389648 70855.863647461 31560643.56414
62962	1355396 5719 11865 15079 188.5 229.25 164 184.17810058594 483.14999389648 65225.143066406 27703567.755517
vector 63060  IntersectionExampleScenario.node[61].veinsmobility  posx  ETV
vector 63061  IntersectionExampleScenario.node[61].veinsmobility  posy  ETV
vector 63062  IntersectionExampleScenario.node[61].veinsmobility  speed  ETV
62931	1361347 7539 10878 15173 169.25 230.25 245 0.973 11.810082123732 615.18799323427 3067.1560420052
62930	1368886 7025 10878 15173 169.25 230.25 245 -7.7750473022461 4 38.511121749878 481.76489070548
62929	1375911 7174 10867 15173 169 230.25 246 0 15.875 2181.7101407051 30752.64095389
62928	1383085 8634 10855 15173 168.75 230.25 247 486.63604736328 785.82187652588 135079.4285965 75916920.692861
62927	1391719 8567 10855 15173 168.75 230.25 247 235.74822998047 483.14999389648 111109.85464478 51060861.167846
vector 63063  IntersectionExampleScenario.node[61].veinsmobility  acceleration  ETV
vector 63064  IntersectionExampleScenario.node[61].veinsmobility  co2emission  ETV
62938	1400455 7573 10915 15223 170 230.75 244 0.973 11.648172402475 632.49512886524 3063.2190492328
62937	1408028 6856 10915 15223 170 230.75 244 -4.5 2.5 40.038900375366 485.38624935578
62936	1414884 7390 10902 15223 169.75 230.75 245 0 15.719921112061 2300.2420507669 33161.148593426
62935	1422274 8591 10889 15223 169.5 230.75 246 238.74792480469 808.82032012939 128816.27140045 72038480.041301
62934	1430865 8611 10889 15223 169.5 230.75 246 483.14999389648 483.14999389648 118854.89849854 57424743.484134
vector 63067  IntersectionExampleScenario.node[62].veinsmobility  posx  ETV
vector 63068  IntersectionExampleScenario.node[62].veinsmobility  posy  ETV
vector 63069  IntersectionExampleScenario.node[62].veinsmobility  speed  ETV
vector 63070  IntersectionExampleScenario.node[62].veinsmobility  acceleration  ETV
vector 63071  IntersectionExampleScenario.node[62].veinsmobility  co2emission  ETV
62952	1439877 6249 11666 15464 184.25 233 196 0.973 12.099024792222 576.49104874701 3189.4144385971
62951	1446126 6313 11666 15464 184.25 233 196 -2.2077293395996 2.5000009536743 41.396924972534 337.02754735312
62950	1452439 6554 11655 15464 184 233 197 1.3900276422501 16.27499961853 2181.4352974892 29556.177958794
62949	1458993 6915 11644 15464 183.75 233 198 486.85000610352 785.82187652588 111499.079216 64576179.877614
62948	1465908 6914 11644 15464 183.75 233 198 238.03149414062 483.14999389648 87906.411376953 39984281.517558
62959	1472822 6292 11813 15707 187.5 235.25 192 0.973 11.200708441096 528.38220810476 2599.269960334
62958	1479114 6368 11813 15707 187.5 235.25 192 -4.0471382141113 2.5 36.134572982788 284.82290918754
62957	1485482 6532 11800 15707 187.25 235.25 193 4.2758760452271 15.02499961853 2260.8970594406 29391.913545698
62956	1492014 6777 11787 15707 187 235.25 194 236.76184082031 797.07032012939 102512.54497528 58694416.452987
62955	1498791 6789 11787 15707 187 235.25 194 483.14999389648 483.14999389648 93731.098815918 45286179.820821
vector 63074  IntersectionExampleScenario.node[63].veinsmobility  posx  ETV
vector 63075  IntersectionExampleScenario.node[63].veinsmobility  posy  ETV
vector 63076  IntersectionExampleScenario.node[63].veinsmobility  speed  ETV
vector 63077  IntersectionExampleScenario.node[63].veinsmobility  acceleration  ETV
vector 63078  IntersectionExampleScenario.node[63].veinsmobility  co2emission  ETV
vector 63081  IntersectionExampleScenario.node[64].veinsmobility  posx  ETV
vector 63082  IntersectionExampleScenario.node[64].veinsmobility  posy  ETV
62973	1506135 6783 11929 16345 189.5 242 211 0.973 11.200708441096 562.15646731356 2676.6527690642
62972	1512918 6198 11929 16345 189.5 242 211 -8.6544380187988 4 35.795072555542 474.85016826786
62971	1519116 6593 11912 16345 189.25 242 212 0 15.02499961853 2207.0238060951 30119.554519985
62970	1525709 7433 11895 16345 189 242 213 184.17810058594 486.85000610352 88416.523742676 38714593.805884
62969	1533142 7444 11895 16345 189 242 213 235.04376220703 486.85000610352 94821.601348877 43332859.46562
vector 63083  IntersectionExampleScenario.node[64].veinsmobility  speed  ETV
vector 63084  IntersectionExampleScenario.node[64].veinsmobility  acceleration  ETV
vector 63085  IntersectionExampleScenario.node[64].veinsmobility  co2emission  ETV
63001	1540833 5376 13100 16560 204.75 244.5 160 0.973 11.54047740176 512.6523266691 2949.1992128431
63000	1546209 5151 13100 16560 204.75 244.5 160 -3.3153190612793 2.5 36.98334312439 258.40673772712
62999	1551360 5391 13079 16560 204.5 244.5 161 5.6500000953674 15.5 2215.9604072571 31134.254942314
62998	1556751 5633 13058 16560 204.25 244.5 162 184.17810058594 733.37829589844 72607.323471069 36759672.205648
62997	1562384 5671 13058 16560 204.25 244.5 162 486.85000610352 486.85000610352 78869.70098877 38397714.407765
vector 63088  IntersectionExampleScenario.node[65].veinsmobility  posx  ETV
vector 63089  IntersectionExampleScenario.node[65].veinsmobility  posy  ETV
vector 63090  IntersectionExampleScenario.node[65].veinsmobility  speed  ETV
vector 63091  IntersectionExampleScenario.node[65].veinsmobility  acceleration  ETV
vector 63092  IntersectionExampleScenario.node[65].veinsmobility  co2emission  ETV
vector 63095  IntersectionExampleScenario.node[66].veinsmobility  posx  ETV
vector 63096  IntersectionExampleScenario.node[66].veinsmobility  posy  ETV
vector 63097  IntersectionExampleScenario.node[66].veinsmobility  speed  ETV
vector 63098  IntersectionExampleScenario.node[66].veinsmobility  acceleration  ETV
vector 63099  IntersectionExampleScenario.node[66].veinsmobility  co2emission  ETV
62980	1568857 7625 12026 17168 191 252 245 0.973 11.648172402475 624.74019404047 3031.490158055
62979	1576482 6560 12026 17168 191 252 245 -40.080043792725 4 38.850629806519 1947.7564630226
62978	1583042 7145 12009 17168 190.75 252 246 0 15.64999961853 2205.4126739502 32047.887560898
62977	1590187 8644 11992 17168 190.5 252 247 486.85000610352 486.85000610352 120251.95150757 58544663.325419
62976	1598831 8631 11992 17168 190.5 252 247 238.74694824219 785.82187652588 126817.42459869 69219953.327842
vector 63102  IntersectionExampleScenario.node[67].veinsmobility  posx  ETV
vector 63103  IntersectionExampleScenario.node[67].veinsmobility  posy  ETV
vector 63104  IntersectionExampleScenario.node[67].veinsmobility  speed  ETV
vector 63105  IntersectionExampleScenario.node[67].veinsmobility  acceleration  ETV
vector 63106  IntersectionExampleScenario.node[67].veinsmobility  co2emission  ETV
62987	1607863 8243 12166 17419 193 254.75 248 0.973 11.200708441096 620.85183538524 2866.8188886206
62986	1616106 8175 12166 17419 193 254.75 248 -4.5 2.5 36.98334312439 426.62977271107
62985	1624281 8474 12147 17419 192.75 254.75 249 0 15.426170349121 2280.0340588056 31357.92894629
62984	1632755 8751 12128 17419 192.5 254.75 250 486.85000610352 486.85000610352 121712.50152588 59255732.110748
62983	1641506 8720 12128 17419 192.5 254.75 250 238.41314697266 803.92188262939 130542.57112885 72787835.118503
63022	1650226 5275 14098 17442 216.5 255 155 0.973 11.90022389248 500.52554855579 2781.3659964429
63021	1655501 4779 14098 17442 216.5 255 155 -3.2846527099609 2.5 39.869146347046 241.68198894314
63020	1660280 5161 14077 17442 216.25 255 156 5.6500000953674 16 2213.0224189758 32437.108865515
63019	1665441 5474 14056 17442 216 255 157 483.14999389648 734.23080444336 84137.684555054 46037684.003542
63018	1670915 5472 14056 17442 216 255 157 184.17810058594 486.85000610352 62504.023132324 26643239.540765
62994	1676387 7890 12436 17626 196.5 257 243 0.973 11.450879080643 614.82640299945 2887.0461760631
62993	1684277 8100 12436 17626 196.5 257 243 -4.5 2.5 38.680875778198 366.78352917495
62992	1692377 8262 12415 17626 196.25 257 244 0 15.382175445557 2285.482091248 30357.720232479
62991	1700639 8567 12394 17626 196 257 245 236.17590332031 486.85000610352 110865.43649292 51283230.98353
62990	1709206 8552 12394 17626 196 257 245 483.14999389648 804.51564025879 137116.83859253 79013749.006459
63008	1717758 6145 13629 17764 211 258.5 191 0.96333723109819 12.099024792222 562.91106797792 3019.3114833699
63007	1723903 6190 13629 17764 211 258.5 191 -2.2502155303955 2.5 40.208654403687 307.49310675201
63006	1730093 6453 13606 17764 210.75 258.5 192 2.6525797843933 16.27499961853 2213.5138511658 29608.318056821
63005	1736546 6731 13583 17764 210.5 258.5 193 235.77606201172 486.85000610352 85717.430603027 39095143.536749
63004	1743277 6738 13583 17764 210.5 258.5 193 483.14999389648 785.82187652588 109077.4838028 63450498.361088
63015	1750015 6384 13893 18073 214 262 193 0.973 10.986838765007 518.25002407368 2423.2773643011
63014	1756399 6445 13893 18073 214 262 193 -3.902229309082 2.5 34.606801986694 258.58274646644
63013	1762844 6514 13872 18073 213.75 262 194 5.049711227417 14.748792648315 2258.8396553993 28489.154308809
63012	1769358 6794 13850 18073 213.5 262 195 236.31787109375 486.85000610352 85975.572357178 38993240.99441
63011	1776152 6801 13850 18073 213.5 262 195 483.11920166016 798.59687805176 111703.83283234 66058364.163975
vector 63109  IntersectionExampleScenario.node[68].veinsmobility  posx  ETV
vector 63110  IntersectionExampleScenario.node[68].veinsmobility  posy  ETV
vector 63111  IntersectionExampleScenario.node[68].veinsmobility  speed  ETV
vector 63112  IntersectionExampleScenario.node[68].veinsmobility  acceleration  ETV
vector 63113  IntersectionExampleScenario.node[68].veinsmobility  co2emission  ETV
63050	1783354 5444 14942 18463 227.75 267.25 159 0.973 11.200708441096 454.43358443025 2203.6616744493
63049	1788798 5289 14942 18463 227.75 267.25 159 -3.0831832885742 2.5 35.795072555542 168.96044544591
63048	1794087 5383 14919 18463 227.5 267.25 160 5.6500000953674 15.02499961853 2213.3390111923 31128.204928606
63047	1799470 5625 14896 18463 227.25 267.25 161 237.40185546875 785.82187652588 83844.648078918 47918035.911289
63046	1805095 5636 14896 18463 227.25 267.25 161 483.14999389648 483.14999389648 77787.149017334 37582860.57295
vector 63116  IntersectionExampleScenario.node[69].veinsmobility  posx  ETV
vector 63117  IntersectionExampleScenario.node[69].veinsmobility  posy  ETV
vector 63118  IntersectionExampleScenario.node[69].veinsmobility  speed  ETV
vector 63119  IntersectionExampleScenario.node[69].veinsmobility  acceleration  ETV
vector 63120  IntersectionExampleScenario.node[69].veinsmobility  co2emission  ETV
63029	1811132 6687 14619 19009 223.75 276 210 0.973 11.90022389248 594.84860598549 3137.5009278339
63028	1817819 6341 14619 19009 223.75 276 210 -8.7942094802856 4 39.869146347046 516.85478174334
63027	1824160 6463 14600 19009 223.5 276 211 0 16 2218.6640501022 32187.572387211
63026	1830623 7396 14581 19009 223.25 276 212 184.17810058594 735.07762145996 96446.930664062 48008165.361301
63025	1838019 7420 14581 19009 223.25 276 212 486.85000610352 486.85000610352 103212.20129395 50248860.829914
vector 63123  IntersectionExampleScenario.node[70].veinsmobility  posx  ETV
vector 63124  IntersectionExampleScenario.node[70].veinsmobility  posy  ETV
vector 63125  IntersectionExampleScenario.node[70].veinsmobility  speed  ETV
vector 63130  IntersectionExampleScenario.node[71].veinsmobility  posx  ETV
vector 63131  IntersectionExampleScenario.node[71].veinsmobility  posy  ETV
vector 63126  IntersectionExampleScenario.node[70].veinsmobility  acceleration  ETV
vector 63127  IntersectionExampleScenario.node[70].veinsmobility  co2emission  ETV
vector 63132  IntersectionExampleScenario.node[71].veinsmobility  speed  ETV
vector 63133  IntersectionExampleScenario.node[71].veinsmobility  acceleration  ETV
vector 63134  IntersectionExampleScenario.node[71].veinsmobility  co2emission  ETV
63036	1846241 6946 14772 19119 225.75 277.75 209 0.973 11.648172402475 599.0885420955 3092.0194626328
63035	1853187 6929 14772 19119 225.75 277.75 209 -4.5 2.5 40.038900375366 439.34629917103
63034	1860116 7209 14753 19119 225.5 277.75 210 0 16.052265167236 2283.5996686872 32711.816679916
63033	1867325 7330 14733 19119 225.25 277.75 211 166.078125 732.03741455078 93849.711914062 46206945.641591
63032	1874655 7387 14733 19119 225.25 277.75 211 486.85000610352 486.85000610352 102725.35128784 50011837.901471
vector 63137  IntersectionExampleScenario.node[72].veinsmobility  posx  ETV
vector 63138  IntersectionExampleScenario.node[72].veinsmobility  posy  ETV
vector 63139  IntersectionExampleScenario.node[72].veinsmobility  speed  ETV
63071	1882274 6144 15302 19211 231.5 279.25 192 0.973 12.353032912318 587.89225604363 3351.7749561662
63070	1888418 6321 15302 19211 231.5 279.25 192 -3.9366149902344 2.5000019073486 42.924703598022 361.06008950143
63069	1894739 6470 15275 19211 231.25 279.25 193 1.3805367946625 16.625 2212.5841178894 30986.850383742
63068	1901209 6753 15248 19211 231 279.25 194 184.17810058594 486.87319946289 79099.156188965 34053835.746784
63067	1907962 6766 15248 19211 231 279.25 194 235.61193847656 486.85000610352 86520.406219482 39586922.81825
vector 63140  IntersectionExampleScenario.node[72].veinsmobility  acceleration  ETV
vector 63141  IntersectionExampleScenario.node[72].veinsmobility  co2emission  ETV
63085	1914897 5332 16391 19441 242.5 283 163 0.973 11.90022389248 530.53056963537 3192.7738722541
63084	1920229 5269 16391 19441 242.5 283 163 -3.0316696166992 2.5 39.020376205444 280.13338968752
63083	1925498 5428 16368 19441 242.25 283 164 5.6500000953674 16 2215.1971797943 30952.020196055
63082	1930926 5745 16345 19441 242 283 165 184.17810058594 486.85000610352 65753.940795898 27976874.271825
63081	1936671 5772 16345 19441 242 283 165 235.20349121094 486.85000610352 71908.374267578 32320566.430332
vector 63144  IntersectionExampleScenario.node[73].veinsmobility  posx  ETV
vector 63145  IntersectionExampleScenario.node[73].veinsmobility  posy  ETV
vector 63146  IntersectionExampleScenario.node[73].veinsmobility  speed  ETV
vector 63147  IntersectionExampleScenario.node[73].veinsmobility  acceleration  ETV
vector 63148  IntersectionExampleScenario.node[73].veinsmobility  co2emission  ETV
63043	1942844 7715 14833 19778 226.5 288 247 0.973 11.200708441096 599.07308649488 2735.3383940894
63042	1950559 6943 14833 19778 226.5 288 247 -9.0782556533813 4 35.625318527222 516.75502694476
63041	1957502 7367 14812 19778 226.25 288 248 0 15.02499961853 2215.8025455475 30388.070398341
63040	1964869 8713 14791 19778 226 288 249 483.14999389648 483.14999389648 120304.34848022 58125045.233941
63039	1973582 8678 14791 19778 226 288 249 184.17810058594 734.74969482422 113978.55593872 56509620.98688
63057	1982260 7877 15056 19808 229 288.5 239 0.973 11.810082123732 627.34356996016 3035.3350481264
63056	1990137 7863 15056 19808 229 288.5 239 -4.5 2.5 39.699392318726 458.80717766564
63055	1998000 7817 15033 19808 228.75 288.5 240 0 15.875 2250.491859368 31775.269848089
63054	2005817 8426 15010 19808 228.5 288.5 241 236.12188720703 483.14999389648 108378.22665405 49791300.004794
63053	2014243 8403 15010 19808 228.5 288.5 241 168.58435058594 483.14999389648 99913.847076416 43670998.296784
vector 63151  IntersectionExampleScenario.node[74].veinsmobility  posx  ETV
vector 63152  IntersectionExampleScenario.node[74].veinsmobility  posy  ETV
vector 63153  IntersectionExampleScenario.node[74].veinsmobility  speed  ETV
vector 63154  IntersectionExampleScenario.node[74].veinsmobility  acceleration  ETV
vector 63155  IntersectionExampleScenario.node[74].veinsmobility  co2emission  ETV
63064	2023047 8055 15198 20015 230.5 291.75 246 0.973 11.36141391502 607.34516034856 2797.5401838886
63063	2031102 8095 15198 20015 230.5 291.75 246 -3.8926680088043 2.5 36.98334312439 355.89420984002
63062	2039197 8285 15173 20015 230.25 291.75 247 0 15.25 2294.0738754272 30155.745560274
63061	2047482 8676 15148 20015 230 291.75 248 237.27239990234 483.14999389648 111492.33465576 51205809.452469
63060	2056158 8655 15148 20015 230 291.75 248 156.08746337891 483.14999389648 100936.65765381 43541029.954555
63078	2064813 6738 16261 20185 241 294.25 214 0.973 11.648172402475 564.08788093515 2879.2205839079
63077	2071551 6918 16261 20185 241 294.25 214 -3.878983259201 2.5 38.171613693237 344.18751320918
63076	2078469 7183 16239 20185 240.75 294.25 215 0 15.64999961853 2183.4040712155 28085.022204755
63075	2085652 7558 16216 20185 240.5 294.25 216 237.36364746094 483.14999389648 96186.073577881 43858221.761103
63074	2093210 7530 16216 20185 240.5 294.25 216 184.17810058594 483.14999389648 88069.83404541 37740443.232376
63092	2100740 6074 16928 20314 249.25 296.25 189 0.973 11.648172402475 547.27762296589 2900.7421863138
63091	2106814 6098 16928 20314 249.25 296.25 189 -3.5419902801514 2.5 39.699392318726 320.31046069634
63090	2112912 6341 16907 20314 249 296.25 190 3.2562272548676 15.64999961853 2185.6220109463 28575.218705016
63089	2119253 6674 16886 20314 248.75 296.25 191 236.90460205078 483.14999389648 84265.456787109 38150767.365367
63088	2125927 6656 16886 20314 248.75 296.25 191 184.17810058594 483.33758544922 76789.427856445 32642668.876161
vector 63158  IntersectionExampleScenario.node[75].veinsmobility  posx  ETV
vector 63159  IntersectionExampleScenario.node[75].veinsmobility  posy  ETV
vector 63160  IntersectionExampleScenario.node[75].veinsmobility  speed  ETV
vector 63161  IntersectionExampleScenario.node[75].veinsmobility  acceleration  ETV
vector 63162  IntersectionExampleScenario.node[75].veinsmobility  co2emission  ETV
vector 63165  IntersectionExampleScenario.node[76].veinsmobility  posx  ETV
vector 63166  IntersectionExampleScenario.node[76].veinsmobility  posy  ETV
vector 63167  IntersectionExampleScenario.node[76].veinsmobility  speed  ETV
vector 63168  IntersectionExampleScenario.node[76].veinsmobility  acceleration  ETV
vector 63169  IntersectionExampleScenario.node[76].veinsmobility  co2emission  ETV
vector 63172  IntersectionExampleScenario.node[77].veinsmobility  posx  ETV
vector 63173  IntersectionExampleScenario.node[77].veinsmobility  posy  ETV
vector 63174  IntersectionExampleScenario.node[77].veinsmobility  speed  ETV
vector 63175  IntersectionExampleScenario.node[77].veinsmobility  acceleration  ETV
vector 63176  IntersectionExampleScenario.node[77].veinsmobility  co2emission  ETV
63113	2133786 5281 18333 20852 265.5 303.75 154 0.973 11.648172402475 472.66918262325 2551.4683014224
63112	2139067 5031 18333 20852 265.5 303.75 154 -3.7026824951172 2.5 38.511121749878 202.72990596545
63111	2144098 5198 18314 20852 265.25 303.75 155 5.6500000953674 15.64999961853 2222.6553554535 32521.274018042
63110	2149296 5416 18295 20852 265 303.75 156 235.27618408203 785.82187652588 81227.842063904 46457089.03539
63109	2154712 5460 18295 20852 265 303.75 156 483.14999389648 483.14999389648 75371.399047852 36415690.989939
vector 63179  IntersectionExampleScenario.node[78].veinsmobility  posx  ETV
vector 63180  IntersectionExampleScenario.node[78].veinsmobility  posy  ETV
vector 63181  IntersectionExampleScenario.node[78].veinsmobility  speed  ETV
vector 63182  IntersectionExampleScenario.node[78].veinsmobility  acceleration  ETV
vector 63183  IntersectionExampleScenario.node[78].veinsmobility  co2emission  ETV
vector 63186  IntersectionExampleScenario.node[79].veinsmobility  posx  ETV
vector 63187  IntersectionExampleScenario.node[79].veinsmobility  posy  ETV
vector 63188  IntersectionExampleScenario.node[79].veinsmobility  speed  ETV
vector 63189  IntersectionExampleScenario.node[79].veinsmobility  acceleration  ETV
vector 63190  IntersectionExampleScenario.node[79].veinsmobility  co2emission  ETV
vector 63193  IntersectionExampleScenario.node[80].veinsmobility  posx  ETV
vector 63194  IntersectionExampleScenario.node[80].veinsmobility  posy  ETV
vector 63195  IntersectionExampleScenario.node[80].veinsmobility  speed  ETV
vector 63196  IntersectionExampleScenario.node[80].veinsmobility  acceleration  ETV
vector 63197  IntersectionExampleScenario.node[80].veinsmobility  co2emission  ETV
63099	2161375 7595 17016 21413 250.25 311.25 245 0.97223939240464 11.648172402475 618.13376922157 3009.426152937
63098	2168970 6866 17016 21413 250.25 311.25 245 -7.1630792617798 4 38.680875778198 475.21272998936
63097	2175836 7254 16993 21413 250 311.25 246 0 15.64999961853 2217.0011982918 31576.668155059
63096	2183090 8611 16970 21413 249.75 311.25 247 184.17810058594 734.53523254395 112943.57260132 55825245.092739
63095	2191701 8645 16970 21413 249.75 311.25 247 486.85000610352 486.85000610352 120251.95150757 58544663.325419
63106	2200346 7989 17235 21546 252.75 313 242 0.973 11.648172402475 631.88468052711 3045.5820958084
63105	2208335 7718 17235 21546 252.75 313 242 -4.5 2.5 39.869146347046 442.57868459712
63104	2216053 8180 17212 21546 252.5 313 243 0 15.64999961853 2281.5831307499 32633.44439148
63103	2224233 8503 17189 21546 252.25 313 244 168.58435058594 734.10646057129 109565.40164185 53667171.740216
63102	2232736 8540 17189 21546 252.25 313 244 486.85000610352 486.85000610352 118791.40148926 57833594.54009
vector 63200  IntersectionExampleScenario.node[81].veinsmobility  posx  ETV
vector 63201  IntersectionExampleScenario.node[81].veinsmobility  posy  ETV
vector 63202  IntersectionExampleScenario.node[81].veinsmobility  speed  ETV
vector 63203  IntersectionExampleScenario.node[81].veinsmobility  acceleration  ETV
vector 63204  IntersectionExampleScenario.node[81].veinsmobility  co2emission  ETV
vector 63207  IntersectionExampleScenario.node[82].veinsmobility  posx  ETV
vector 63208  IntersectionExampleScenario.node[82].veinsmobility  posy  ETV
vector 63209  IntersectionExampleScenario.node[82].veinsmobility  speed  ETV
vector 63210  IntersectionExampleScenario.node[82].veinsmobility  acceleration  ETV
vector 63211  IntersectionExampleScenario.node[82].veinsmobility  co2emission  ETV
vector 63214  IntersectionExampleScenario.node[83].veinsmobility  posx  ETV
vector 63215  IntersectionExampleScenario.node[83].veinsmobility  posy  ETV
vector 63216  IntersectionExampleScenario.node[83].veinsmobility  speed  ETV
vector 63217  IntersectionExampleScenario.node[83].veinsmobility  acceleration  ETV
vector 63218  IntersectionExampleScenario.node[83].veinsmobility  co2emission  ETV
63127	2242479 5865 19052 22222 276.75 321.5 180 0.973 12.099024792222 565.14756685391 3179.4966478145
63126	2248344 5625 19052 22222 276.75 321.5 180 -7.8777370452881 4 40.038900375366 509.53967753048
63125	2253969 5779 19037 22222 276.5 321.5 181 0 16.27499961853 2176.732530117 31500.033543516
63124	2259748 6369 19022 22222 276.25 321.5 182 483.14999389648 731.74800109863 96026.666488647 51646256.336863
63123	2266117 6348 19022 22222 276.25 321.5 182 184.17810058594 486.85000610352 74276.955505371 32175218.855667
63120	2272465 6275 18838 22222 273 321.5 195 0.973 12.099024792222 589.52664310478 3250.8511440884
63119	2278740 5819 18838 22222 273 321.5 195 -6.9978852272034 4 41.227170944214 492.65880119239
63118	2284559 6116 18823 22222 272.75 321.5 196 0 16.27499961853 2205.6507912874 32465.664712985
63117	2290675 6895 18808 22222 272.5 321.5 197 486.85000610352 486.85000610352 95909.451202393 46693516.90327
63116	2297570 6880 18808 22222 272.5 321.5 197 238.59759521484 785.82187652588 101977.14664459 56778997.76654
vector 63221  IntersectionExampleScenario.node[84].veinsmobility  posx  ETV
vector 63222  IntersectionExampleScenario.node[84].veinsmobility  posy  ETV
vector 63228  IntersectionExampleScenario.node[85].veinsmobility  posx  ETV
vector 63229  IntersectionExampleScenario.node[85].veinsmobility  posy  ETV
vector 63223  IntersectionExampleScenario.node[84].veinsmobility  speed  ETV
vector 63224  IntersectionExampleScenario.node[84].veinsmobility  acceleration  ETV
vector 63225  IntersectionExampleScenario.node[84].veinsmobility  co2emission  ETV
vector 63230  IntersectionExampleScenario.node[85].veinsmobility  speed  ETV
vector 63231  IntersectionExampleScenario.node[85].veinsmobility  acceleration  ETV
vector 63232  IntersectionExampleScenario.node[85].veinsmobility  co2emission  ETV
63134	2305252 6132 19086 22462 277.25 324 188 0.973 11.810082123732 562.02645993734 3020.5176604815
63133	2311384 6232 19086 22462 277.25 324 188 -4.0249938964844 2.5000009536743 39.699392318726 396.10376137017
63132	2317616 6356 19069 22462 277 324 189 0 15.875 2205.886621777 30678.133170234
63131	2323972 6646 19052 22462 276.75 324 190 486.85000610352 734.44746398926 100605.90097046 54257811.987927
63130	2330618 6638 19052 22462 276.75 324 190 486.76910400391 790.18281555176 107247.80138397 62431843.540563
vector 63235  IntersectionExampleScenario.node[86].veinsmobility  posx  ETV
vector 63236  IntersectionExampleScenario.node[86].veinsmobility  posy  ETV
vector 63237  IntersectionExampleScenario.node[86].veinsmobility  speed  ETV
vector 63238  IntersectionExampleScenario.node[86].veinsmobility  acceleration  ETV
vector 63239  IntersectionExampleScenario.node[86].veinsmobility  co2emission  ETV
vector 63242  IntersectionExampleScenario.node[87].veinsmobility  posx  ETV
vector 63243  IntersectionExampleScenario.node[87].veinsmobility  posy  ETV
vector 63244  IntersectionExampleScenario.node[87].veinsmobility  speed  ETV
vector 63245  IntersectionExampleScenario.node[87].veinsmobility  acceleration  ETV
vector 63246  IntersectionExampleScenario.node[87].veinsmobility  co2emission  ETV
63155	2338058 5495 19947 23265 290.75 331.5 164 0.973 11.36141391502 499.40207177516 2709.0639385554
63154	2343553 5493 19947 23265 290.75 331.5 164 -3.6033763885498 2.5 36.134572982788 280.46740571905
63153	2349046 5446 19930 23265 290.5 331.5 165 5.6500000953674 15.25 2189.6913676262 30235.350827534
63152	2354492 5801 19913 23265 290.25 331.5 166 486.85000610352 734.71264648438 89397.288085938 49115185.270019
63151	2360293 5799 19913 23265 290.25 331.5 166 486.85000610352 785.82187652588 94961.141304016 56101114.46327
63141	2366092 7068 19228 23649 279.5 335.25 224 0.973 11.648172402475 595.72691236005 2981.1560545118
63140	2373160 6485 19228 23649 279.5 335.25 224 -7.03919506073 4 38.341367721558 481.63103295482
63139	2379645 6819 19211 23649 279.25 335.25 225 0 15.64999961853 2212.4081838131 31409.619262413
63138	2386464 7894 19194 23649 279 335.25 226 236.58178710938 785.82187652588 116240.44048309 63954790.978415
63137	2394358 7909 19194 23649 279 335.25 226 483.14999389648 483.14999389648 109191.89862061 52756065.152091
vector 63249  IntersectionExampleScenario.node[88].veinsmobility  posx  ETV
vector 63250  IntersectionExampleScenario.node[88].veinsmobility  posy  ETV
vector 63251  IntersectionExampleScenario.node[88].veinsmobility  speed  ETV
vector 63252  IntersectionExampleScenario.node[88].veinsmobility  acceleration  ETV
vector 63253  IntersectionExampleScenario.node[88].veinsmobility  co2emission  ETV
vector 63256  IntersectionExampleScenario.node[89].veinsmobility  posx  ETV
vector 63257  IntersectionExampleScenario.node[89].veinsmobility  posy  ETV
vector 63258  IntersectionExampleScenario.node[89].veinsmobility  speed  ETV
vector 63259  IntersectionExampleScenario.node[89].veinsmobility  acceleration  ETV
vector 63260  IntersectionExampleScenario.node[89].veinsmobility  co2emission  ETV
vector 63263  IntersectionExampleScenario.node[90].veinsmobility  posx  ETV
vector 63264  IntersectionExampleScenario.node[90].veinsmobility  posy  ETV
vector 63265  IntersectionExampleScenario.node[90].veinsmobility  speed  ETV
vector 63266  IntersectionExampleScenario.node[90].veinsmobility  acceleration  ETV
vector 63267  IntersectionExampleScenario.node[90].veinsmobility  co2emission  ETV
vector 63270  IntersectionExampleScenario.node[91].veinsmobility  posx  ETV
vector 63271  IntersectionExampleScenario.node[91].veinsmobility  posy  ETV
vector 63272  IntersectionExampleScenario.node[91].veinsmobility  speed  ETV
vector 63273  IntersectionExampleScenario.node[91].veinsmobility  acceleration  ETV
vector 63274  IntersectionExampleScenario.node[91].veinsmobility  co2emission  ETV
63148	2403871 7712 19490 24784 283.75 346 250 0.973 11.90022389248 635.9807568456 3146.0341995008
63147	2411583 6728 19490 24784 283.75 346 250 -23.079174041748 4 39.869146347046 957.98980641368
63146	2418311 7217 19473 24784 283.5 346 251 0 16 2206.5301532745 32182.182870812
63145	2425528 8799 19456 24784 283.25 346 252 184.17810058594 486.85000610352 107299.66043091 47765727.727532
63144	2434327 8815 19456 24784 283.25 346 252 235.83721923828 486.85000610352 114414.16610718 53058332.004073
vector 63277  IntersectionExampleScenario.node[92].veinsmobility  posx  ETV
vector 63278  IntersectionExampleScenario.node[92].veinsmobility  posy  ETV
63183	2443296 5893 20989 25164 305.5 350 179 0.973 11.200708441096 531.70689645111 2777.6990532063
63182	2449189 5742 20989 25164 305.5 350 179 -2.8727855682373 2.5000019073486 35.625318527222 310.46595120036
63181	2454931 6002 20968 25164 305.25 350 180 5.2802777290344 15.02499961853 2191.6094026566 28516.975767159
63180	2460933 6312 20947 25164 305 350 181 184.17810058594 483.14999389648 72522.395294189 30861521.417895
63179	2467245 6307 20947 25164 305 350 181 486.85000610352 734.90817260742 96784.867858887 52768864.61605
vector 63279  IntersectionExampleScenario.node[92].veinsmobility  speed  ETV
vector 63280  IntersectionExampleScenario.node[92].veinsmobility  acceleration  ETV
vector 63281  IntersectionExampleScenario.node[92].veinsmobility  co2emission  ETV
vector 63284  IntersectionExampleScenario.node[93].veinsmobility  posx  ETV
vector 63285  IntersectionExampleScenario.node[93].veinsmobility  posy  ETV
vector 63291  IntersectionExampleScenario.node[94].veinsmobility  posx  ETV
vector 63292  IntersectionExampleScenario.node[94].veinsmobility  posy  ETV
vector 63286  IntersectionExampleScenario.node[93].veinsmobility  speed  ETV
vector 63293  IntersectionExampleScenario.node[94].veinsmobility  speed  ETV
vector 63287  IntersectionExampleScenario.node[93].veinsmobility  acceleration  ETV
vector 63288  IntersectionExampleScenario.node[93].veinsmobility  co2emission  ETV
vector 63294  IntersectionExampleScenario.node[94].veinsmobility  acceleration  ETV
vector 63295  IntersectionExampleScenario.node[94].veinsmobility  co2emission  ETV
vector 63298  IntersectionExampleScenario.node[95].veinsmobility  posx  ETV
vector 63299  IntersectionExampleScenario.node[95].veinsmobility  posy  ETV
vector 63300  IntersectionExampleScenario.node[95].veinsmobility  speed  ETV
vector 63301  IntersectionExampleScenario.node[95].veinsmobility  acceleration  ETV
vector 63302  IntersectionExampleScenario.node[95].veinsmobility  co2emission  ETV
63211	2475002 5227 21990 25885 318.75 357.25 155 0.973 12.099024792222 511.34466514128 2968.3233784916
63210	2480229 4958 21990 25885 318.75 357.25 155 -3.3715972900391 2.5 40.038900375366 267.91237849696
63209	2485187 5163 21969 25885 318.5 357.25 156 5.6500000953674 16.27499961853 2208.1169919968 32324.31865255
63208	2490350 5491 21948 25885 318.25 357.25 157 483.14999389648 733.43994140625 84061.590515137 45947526.266809
63207	2495841 5474 21948 25885 318.25 357.25 157 184.17810058594 487.06176757812 62525.578460693 26651773.581547
[...]
65703	14880561 6779 123336 127686 1707.25 1757 200 0.973 12.126738481104 612.49761713328 3388.0131082003
65702	14887340 6533 123336 127686 1707.25 1757 200 -7.0093650817871 4 42.653127670288 501.36682409553
65701	14893873 6774 123317 127686 1707 1757 201 0 16.313282012939 2205.2135136127 32291.405485569
65700	14900647 7473 123298 127686 1706.75 1757 202 486.85000610352 486.85000610352 98343.70123291 47878631.545484
65699	14908120 7441 123298 127686 1706.75 1757 202 238.74273681641 785.82187652588 104071.68260956 57665204.564806
65710	14915561 6935 123477 127771 1709.25 1758.25 197 0.973 11.90022389248 582.12139505297 3082.5225700782
65709	14922496 6662 123477 127771 1709.25 1758.25 197 -4.5 2.5000004768372 39.869146347046 440.57458615704
65708	14929158 7086 123458 127771 1709 1758.25 198 0 16 2278.5140541848 32391.663575613
65707	14936244 7359 123439 127771 1708.75 1758.25 199 237.11254882812 486.85000610352 88691.278320312 40553655.879099
65706	14943603 7345 123439 127771 1708.75 1758.25 199 483.13555908203 803.92188262939 112595.99811554 65899164.140233
vector 65797  IntersectionExampleScenario.node[452].veinsmobility  posx  ETV
vector 65798  IntersectionExampleScenario.node[452].veinsmobility  posy  ETV
vector 65799  IntersectionExampleScenario.node[452].veinsmobility  speed  ETV
vector 65800  IntersectionExampleScenario.node[452].veinsmobility  acceleration  ETV
vector 65801  IntersectionExampleScenario.node[452].veinsmobility  co2emission  ETV
vector 65804  IntersectionExampleScenario.node[453].veinsmobility  posx  ETV
vector 65805  IntersectionExampleScenario.node[453].veinsmobility  posy  ETV
vector 65806  IntersectionExampleScenario.node[453].veinsmobility  speed  ETV
65738	14951589 5847 124425 127957 1720.25 1760.75 163 0.973 12.099024792222 561.46101154017 3215.4768068999
65737	14957436 5461 124425 127957 1720.25 1760.75 163 -29.550966262817 4 41.227170944214 1253.1919519446
65736	14962897 5803 124402 127957 1720 1760.75 164 0 16.27499961853 2167.5338778496 31900.438461772
65735	14968700 6092 124379 127957 1719.75 1760.75 165 238.96655273438 483.14999389648 72008.582397461 32314254.56967
65734	14974792 6077 124379 127957 1719.75 1760.75 165 184.17810058594 483.3996887207 66163.762908936 28279048.876245
vector 65807  IntersectionExampleScenario.node[453].veinsmobility  acceleration  ETV
vector 65808  IntersectionExampleScenario.node[453].veinsmobility  co2emission  ETV
65731	14981040 5956 124313 127978 1719 1761 169 0.973 11.200708441096 506.88018932423 2706.0333466641
65730	14986996 5737 124313 127978 1719 1761 169 -3.305721282959 2.5 35.964826583862 250.79426023859
65729	14992733 6066 124290 127978 1718.75 1761 170 5.6500000953674 15.02499961853 2223.3405227661 30020.500248711
65728	14998799 6326 124267 127978 1718.5 1761 171 486.85000610352 486.85000610352 83251.351043701 40530920.763752
65727	15005125 6311 124267 127978 1718.5 1761 171 234.95263671875 785.82187652588 89164.568443298 50804271.735567
vector 65811  IntersectionExampleScenario.node[454].veinsmobility  posx  ETV
vector 65812  IntersectionExampleScenario.node[454].veinsmobility  posy  ETV
vector 65813  IntersectionExampleScenario.node[454].veinsmobility  speed  ETV
vector 65814  IntersectionExampleScenario.node[454].veinsmobility  acceleration  ETV
vector 65815  IntersectionExampleScenario.node[454].veinsmobility  co2emission  ETV
65752	15011842 5608 124998 128362 1726 1765.25 158 0.973 11.810082123732 543.65306034566 3319.3732447811
65751	15017450 5297 124998 128362 1726 1765.25 158 -3.9748611450195 2.5 39.869146347046 333.8740156571
65750	15022747 5556 124971 128362 1725.75 1765.25 159 5.6500000953674 15.875 2175.2264895439 31215.31589891
65749	15028303 5912 124944 128362 1725.5 1765.25 160 238.94659423828 483.14999389648 69436.274139404 31022186.47532
65748	15034215 5895 124944 128362 1725.5 1765.25 160 184.17810058594 483.14999389648 63573.34552002 26982189.13685
vector 65818  IntersectionExampleScenario.node[455].veinsmobility  posx  ETV
vector 65819  IntersectionExampleScenario.node[455].veinsmobility  posy  ETV
vector 65820  IntersectionExampleScenario.node[455].veinsmobility  speed  ETV
vector 65821  IntersectionExampleScenario.node[455].veinsmobility  acceleration  ETV
vector 65822  IntersectionExampleScenario.node[455].veinsmobility  co2emission  ETV
65745	15040516 6825 124544 128830 1721.5 1770.75 198 0.973 11.200708441096 556.39614763525 2777.8586550416
65744	15047341 6432 124544 128830 1721.5 1770.75 198 -6.7961292266846 4 35.795072555542 456.37917709635
65743	15053773 6687 124519 128830 1721.25 1770.75 199 0 15.02499961853 2172.3640954494 29446.998513841
65742	15060460 7386 124494 128830 1721 1770.75 200 486.63604736328 785.82187652588 111984.65222931 64630717.296411
65741	15067846 7336 124494 128830 1721 1770.75 200 238.08221435547 483.14999389648 88189.238250732 39906512.618094
vector 65825  IntersectionExampleScenario.node[456].veinsmobility  posx  ETV
vector 65826  IntersectionExampleScenario.node[456].veinsmobility  posy  ETV
vector 65827  IntersectionExampleScenario.node[456].veinsmobility  speed  ETV
vector 65828  IntersectionExampleScenario.node[456].veinsmobility  acceleration  ETV
vector 65829  IntersectionExampleScenario.node[456].veinsmobility  co2emission  ETV
65717	15075588 8987 123671 129540 1711.75 1781.5 280 0.973 11.36141391502 664.1442443526 3110.8243287483
65716	15084575 8728 123671 129540 1711.75 1781.5 280 -7.0018720626831 4 36.98334312439 526.54871756024
65715	15093303 8898 123650 129540 1711.5 1781.5 281 0 15.25 2175.0948154926 27514.592154197
65714	15102201 10399 123629 129540 1711.25 1781.5 282 184.17810058594 483.36395263672 119405.8104248 52654241.715924
65713	15112600 10368 123629 129540 1711.25 1781.5 282 486.85000610352 732.63011169434 145615.55007935 76306146.364506
vector 65832  IntersectionExampleScenario.node[457].veinsmobility  posx  ETV
vector 65833  IntersectionExampleScenario.node[457].veinsmobility  posy  ETV
vector 65834  IntersectionExampleScenario.node[457].veinsmobility  speed  ETV
vector 65835  IntersectionExampleScenario.node[457].veinsmobility  acceleration  ETV
vector 65836  IntersectionExampleScenario.node[457].veinsmobility  co2emission  ETV
vector 65839  IntersectionExampleScenario.node[458].veinsmobility  posx  ETV
vector 65840  IntersectionExampleScenario.node[458].veinsmobility  posy  ETV
vector 65841  IntersectionExampleScenario.node[458].veinsmobility  speed  ETV
65724	15123609 9473 123885 129683 1714.25 1784.25 281 0.973 11.36141391502 646.33741128113 2880.2799432165
65723	15133082 9555 123885 129683 1714.25 1784.25 281 -4.5 2.5 36.98334312439 427.24975582342
65722	15142637 9618 123862 129683 1714 1784.25 282 0 15.25 2244.6333094714 28629.059325948
65721	15152255 10440 123839 129683 1713.75 1784.25 283 168.58435058594 483.15823364258 118224.855896 51727365.618436
65720	15162695 10461 123839 129683 1713.75 1784.25 283 486.85000610352 733.1043548584 146136.38473511 76584176.649679
vector 65842  IntersectionExampleScenario.node[458].veinsmobility  acceleration  ETV
vector 65843  IntersectionExampleScenario.node[458].veinsmobility  co2emission  ETV
vector 65846  IntersectionExampleScenario.node[459].veinsmobility  posx  ETV
vector 65847  IntersectionExampleScenario.node[459].veinsmobility  posy  ETV
vector 65848  IntersectionExampleScenario.node[459].veinsmobility  speed  ETV
vector 65853  IntersectionExampleScenario.node[460].veinsmobility  posx  ETV
vector 65854  IntersectionExampleScenario.node[460].veinsmobility  posy  ETV
vector 65849  IntersectionExampleScenario.node[459].veinsmobility  acceleration  ETV
vector 65850  IntersectionExampleScenario.node[459].veinsmobility  co2emission  ETV
vector 65855  IntersectionExampleScenario.node[460].veinsmobility  speed  ETV
vector 65856  IntersectionExampleScenario.node[460].veinsmobility  acceleration  ETV
vector 65857  IntersectionExampleScenario.node[460].veinsmobility  co2emission  ETV
65759	15174139 7625 125434 129778 1730 1785.75 224 0.973 11.90022389248 592.60035349407 3059.1979221437
65758	15181764 7953 125434 129778 1730 1785.75 224 -3.7320432662964 2.5 39.699392318726 340.45674814422
65757	15189717 8022 125405 129778 1729.75 1785.75 225 0 16 2209.6146921739 29580.166029684
65756	15197739 8334 125376 129778 1729.5 1785.75 226 184.17810058594 486.85000610352 93444.432678223 40537461.816085
65755	15206073 8359 125376 129778 1729.5 1785.75 226 236.70434570312 486.85000610352 101786.84191895 46915460.83114
65766	15214432 7076 125988 129880 1735.25 1787.25 209 0.973 11.990504229548 583.32823642107 3092.5102982279
65765	15221508 7394 125988 129880 1735.25 1787.25 209 -4.3409690856934 2.5000019073486 40.887662887573 387.09957683222
65764	15228902 7524 125962 129880 1735 1787.25 210 0 16.125 2210.581346333 30052.695406835
65763	15236426 7771 125935 129880 1734.75 1787.25 211 184.17810058594 731.60131835938 93825.679397583 45733972.894098
65762	15244197 7807 125935 129880 1734.75 1787.25 211 486.85000610352 486.85000610352 102725.35128784 50011837.901471
65773	15252004 7461 126117 130203 1736.5 1792 223 0.973 11.648172402475 592.70952980001 2955.0259809974
65772	15259465 6888 126117 130203 1736.5 1792 223 -7.7750906944275 4 38.511121749878 476.52721114425
65771	15266353 7200 126090 130203 1736.25 1792 224 0 15.64999961853 2186.543571353 30924.021030557
65770	15273553 8317 126063 130203 1736 1792 225 483.14999389648 734.23628234863 117160.42510986 62104193.262269
65769	15281870 8301 126063 130203 1736 1792 225 184.17810058594 486.85000610352 94369.240905762 41599207.952163
vector 65860  IntersectionExampleScenario.node[461].veinsmobility  posx  ETV
vector 65861  IntersectionExampleScenario.node[461].veinsmobility  posy  ETV
vector 65862  IntersectionExampleScenario.node[461].veinsmobility  speed  ETV
vector 65863  IntersectionExampleScenario.node[461].veinsmobility  acceleration  ETV
vector 65864  IntersectionExampleScenario.node[461].veinsmobility  co2emission  ETV
65780	15290577 6822 126810 130360 1744 1794.25 202 0.973 12.099024792222 601.33061368224 3254.4147959017
65779	15297399 6366 126810 130360 1744 1794.25 202 -8.0194416046143 4 42.075933456421 521.04256260356
65778	15303765 6628 126789 130360 1743.75 1794.25 203 0 16.27499961853 2174.7356379032 32039.503230655
65777	15310393 7542 126768 130360 1743.5 1794.25 204 486.85000610352 731.61090087891 106967.52523804 57043283.495515
65776	15317935 7542 126768 130360 1743.5 1794.25 204 486.75677490234 785.82187652588 113280.87393951 64802575.057449
vector 65867  IntersectionExampleScenario.node[462].veinsmobility  posx  ETV
vector 65868  IntersectionExampleScenario.node[462].veinsmobility  posy  ETV
vector 65869  IntersectionExampleScenario.node[462].veinsmobility  speed  ETV
vector 65874  IntersectionExampleScenario.node[463].veinsmobility  posx  ETV
vector 65875  IntersectionExampleScenario.node[463].veinsmobility  posy  ETV
vector 65870  IntersectionExampleScenario.node[462].veinsmobility  acceleration  ETV
vector 65871  IntersectionExampleScenario.node[462].veinsmobility  co2emission  ETV
vector 65876  IntersectionExampleScenario.node[463].veinsmobility  speed  ETV
65794	15326118 5750 127550 130444 1755 1795.25 162 0.973 11.54047740176 527.52741253141 3078.8059508826
65793	15331868 5454 127550 130444 1755 1795.25 162 -4.0031967163086 2.5 37.15309715271 288.27622757483
65792	15337322 5779 127533 130444 1754.75 1795.25 163 5.6500000953674 15.5 2221.3553981781 31004.270008224
65791	15343101 6068 127516 130444 1754.5 1795.25 164 483.14999389648 483.14999389648 79236.598999023 38283162.322756
65790	15349169 6033 127516 130444 1754.5 1795.25 164 184.17810058594 734.5509185791 73545.229568481 37217889.829391
vector 65877  IntersectionExampleScenario.node[463].veinsmobility  acceleration  ETV
vector 65878  IntersectionExampleScenario.node[463].veinsmobility  co2emission  ETV
65787	15355373 6392 127285 130642 1751 1797.5 187 0.97223939240464 11.810082123732 540.12255404315 2929.3168863522
65786	15361765 6642 127285 130642 1751 1797.5 187 -2.2172241210938 2.5 38.680875778198 289.72096647838
65785	15368407 6669 127268 130642 1750.75 1797.5 188 2.7797861099243 15.875 2192.1298184395 29215.963572784
65784	15375076 6987 127251 130642 1750.5 1797.5 189 486.85000610352 735.27188110352 100291.93623352 54223671.669013
65783	15382063 6989 127251 130642 1750.5 1797.5 189 486.85000610352 785.82187652588 106884.21686554 62246331.26921
vector 65881  IntersectionExampleScenario.node[464].veinsmobility  posx  ETV
vector 65882  IntersectionExampleScenario.node[464].veinsmobility  posy  ETV
vector 65888  IntersectionExampleScenario.node[465].veinsmobility  posx  ETV
vector 65889  IntersectionExampleScenario.node[465].veinsmobility  posy  ETV
vector 65883  IntersectionExampleScenario.node[464].veinsmobility  speed  ETV
65801	15389443 5211 127860 130852 1759.5 1800 163 0.973 11.648172402475 379.13788364623 1722.3800268933
65800	15394654 4672 127860 130852 1759.5 1800 163 -6.9388580322266 4 8.3999996185303 400.09380169674
65799	15399326 5009 127841 130852 1759.25 1800 164 0 15.64999961853 1228.5013518333 16872.97107225
65798	15404335 6081 127822 130852 1759 1800 165 184.17810058594 483.36395263672 65242.735137939 27432720.437425
65797	15410416 6094 127822 130852 1759 1800 165 486.85000610352 498.5234375 80382.154571533 39159701.527419
65808	15416510 5461 127978 130852 1761 1800 157 0.973 11.810082123732 542.37115310488 3400.4854357624
65807	15421971 5357 127978 130852 1761 1800 157 -3.1497058868408 2.5 39.869146347046 324.52539840398
65806	15427328 5519 127957 130852 1760.75 1800 158 5.6500000953674 15.875 2115.0110793114 29721.070909403
65805	15432847 5857 127936 130852 1760.5 1800 159 486.85000610352 715.9845123291 84359.611801147 45509934.213272
65804	15438704 5872 127936 130852 1760.5 1800 159 486.82443237305 785.82187652588 91393.754768372 54229677.039593
65815	15444576 5344 128045 130852 1761.75 1800 154 0.973 11.648172402475 394.47484873925 1960.3250474084
65814	15449920 5468 128045 130852 1761.75 1800 154 -4.5 2.5000019073486 15.114957809448 398.08750134902
65813	15455388 5689 128022 130852 1761.5 1800 155 0 15.961259841919 1266.4229195965 17275.297624805
65812	15461077 5742 127999 130852 1761.25 1800 156 167.29217529297 481.0612487793 59054.726257324 24051740.427268
65811	15466819 5772 127999 130852 1761.25 1800 156 486.85000610352 486.85000610352 75948.600952148 36975576.837107
65822	15472591 4405 128450 130852 1766.25 1800 136 0.973 11.200708441096 303.60634983433 1360.0997793564
65821	15476996 4043 128450 130852 1766.25 1800 136 -10.253644943237 2.5 -22.60000038147 410.14787314138
65820	15481039 4365 128427 130852 1766 1800 137 0 15.02499961853 1146.5765881538 15740.305537221
65819	15485404 5105 128404 130852 1765.75 1800 138 483.14999389648 483.14999389648 66674.699157715 32213880.4911
65818	15490509 5086 128404 130852 1765.75 1800 138 184.17810058594 471.60000610352 51935.336486816 20968686.689775
65829	15495595 3653 129100 130852 1774.5 1800 103 0.973 12.099024792222 379.29479346762 2505.6665796385
65828	15499248 3364 129100 130852 1774.5 1800 103 -3.3015441894531 2.5 40.370126724243 214.27498672704
65827	15502612 3612 129081 130852 1774.25 1800 104 5.6500000953674 16.27499961853 1471.0289678574 21464.050315984
65826	15506224 3867 129062 130852 1774 1800 105 423.42584228516 785.82187652588 64047.144813538 40379251.118999
65825	15510091 3883 129062 130852 1774 1800 105 483.14999389648 483.14999389648 50730.749359131 24510561.243228
65836	15513974 2567 129577 130852 1782.25 1800 72 0.973 12.099024792222 294.82780482168 2103.9492409111
65835	15516541 2466 129577 130852 1782.25 1800 72 -2.1622161865234 2.5 40.107748031616 162.40998982202
65834	15519007 2683 129564 130852 1782 1800 73 5.6500000953674 16.27499961853 1036.8272600174 15212.444581939
65833	15521690 2717 129551 130852 1781.75 1800 74 184.17810058594 437.97659301758 22350.996887207 7211309.9430971
65832	15524407 2737 129551 130852 1781.75 1800 74 486.85000610352 486.85000610352 36026.90045166 17539696.704781
65843	15527144 2321 129698 130852 1784.5 1800 63 1.6778656626784 11.200708441096 223.21070875214 1264.4544162726
65842	15529465 2173 129698 130852 1784.5 1800 63 -0.12916564941406 2.5 36.98334312439 93.788124843824
65841	15531638 2353 129683 130852 1784.25 1800 64 5.6500000953674 15.02499961853 880.78753566742 12504.722641711
65840	15533991 2387 129668 130852 1784 1800 65 167.29217529297 382.5285949707 17251.904388428 4869697.9832744
65839	15536378 2403 129668 130852 1784 1800 65 486.85000610352 486.85000610352 31645.250396729 15406490.348795
65850	15538781 2191 129744 130852 1785.25 1800 60 0.973 10.756497587458 199.62276485035 1100.0665615593
65849	15540972 2162 129744 130852 1785.25 1800 60 -0.43780517578125 2.5 33.248777389526 87.938103996628
65848	15543134 2243 129729 130852 1785 1800 61 5.6500000953674 14.39999961853 793.94927310944 10621.176917673
65847	15545377 2287 129713 130852 1784.75 1800 62 591.96331787109 785.82187652588 43206.42086792 30334051.065967
65846	15547664 2293 129713 130852 1784.75 1800 62 483.14999389648 483.14999389648 29955.299621582 14472902.829335
65857	15549957 2088 129778 130852 1785.75 1800 58 0.973 11.648172402475 215.48385363664 1353.1104685625
65856	15552045 2101 129778 130852 1785.75 1800 58 -2.0975685119629 2.5 30.317544937134 117.10673953589
65855	15554146 2165 129761 130852 1785.5 1800 59 5.6500000953674 15.64999961853 817.70387363434 11746.711637885
65854	15556311 2220 129744 130852 1785.25 1800 60 483.14999389648 483.14999389648 28988.999633789 14006034.99613
65853	15558531 2200 129744 130852 1785.25 1800 60 184.17810058594 384.05380249023 16481.397399902 4762849.6161103
65864	15560731 855 130360 130852 1794.25 1800 24 0.973 12.553400930962 166.29682686869 1502.449760195
65863	15561586 683 130360 130852 1794.25 1800 24 -0.5 2.5 43.039579391479 113.2442817319
65862	15562269 910 130341 130852 1794 1800 25 5.6500000953674 16.89999961853 313.57678985596 4283.2671280855
65861	15563179 961 130322 130852 1793.75 1800 26 483.14999389648 483.14999389648 12561.899841309 6069281.8316565
65860	15564140 944 130322 130852 1793.75 1800 26 184.17810058594 257.18255615234 5544.1877441406 1195840.9703855
65871	15565084 772 130421 130852 1795 1800 21 1.0416949659221 12.099024792222 152.06424219322 1343.6842849957
65870	15565856 591 130421 130852 1795 1800 21 -0.31820678710938 2.5 41.62989616394 106.45826305973
65869	15566447 801 130400 130852 1794.75 1800 22 5.6500000953674 16.27499961853 261.80473709106 3391.8529732141
65868	15567248 833 130379 130852 1794.5 1800 23 184.17810058594 244.29241943359 4784.0113525391 1003207.2137642
65867	15568081 850 130379 130852 1794.5 1800 23 486.85000610352 486.85000610352 11197.550140381 5451527.3541888
65878	15568931 699 130467 130852 1795.5 1800 19 1.4520093777112 11.648172402475 139.12103585351 1196.8147542392
65877	15569630 528 130467 130852 1795.5 1800 19 -0.20246887207031 2.5 39.531789779663 100.07701346025
65876	15570158 727 130444 130852 1795.25 1800 20 5.6500000953674 15.64999961853 227.74374485016 2814.3283540161
65875	15570885 775 130421 130852 1795 1800 21 483.14999389648 483.14999389648 10146.149871826 4902112.2486456
65874	15571660 763 130421 130852 1795 1800 21 162.90466308594 214.64031982422 3852.2337036133 712172.51137264
65883	15572423 35 130852 130852 1800 1800 1 5.6500000953674 5.6500000953674 5.6500000953674 31.922501077652
65882	15572458 73 130830 130852 1799.75 1800 2 483.14999389648 483.14999389648 966.29998779297 466867.83320435
65881	15572531 73 130830 130852 1799.75 1800 2 173.05072021484 173.05072021484 346.10144042969 59893.103533752
65889	15572604 35 130852 130852 1800 1800 1 486.85000610352 486.85000610352 486.85000610352 237022.92844299
65888	15572639 35 130852 130852 1800 1800 1 785.82187652588 785.82187652588 785.82187652588 617516.02162665
62629	15572674 626 0 130851 0 1800 31 0 18 378 4974
62630	15573300 641 0 130851 0 1800 31 0 153 2354 240956
