version 2
run nodebug-1-20200606-18:18:45-22420
attr configname nodebug
attr datetime 20200606-18:18:45
attr experiment nodebug
attr inifile omnetpp.ini
attr iterationvars ""
attr iterationvars2 $repetition=1
attr measurement ""
attr network "\"org.car2x.veins.modules.application.ExtTraCIScenarioManagerLaunchd.IntersectionExampleScenario\""
attr processid 22420
attr repetition 1
attr replication #1
attr resultdir results
attr runnumber 1
attr seedset 1
param **.coreDebug false
param **.debug false
param *.**.nic.mac1609_4.bitrate 18Mbps
param *.**.nic.mac1609_4.txPower 20mW
param *.**.nic.mac1609_4.useServiceChannel false
param *.**.nic.phy80211p.analogueModels "xmldoc(\"config.xml\")"
param *.**.nic.phy80211p.decider "xmldoc(\"config.xml\")"
param *.**.nic.phy80211p.sensitivity -89dBm
param *.**.nic.phy80211p.thermalNoise -110dBm
param *.**.nic.phy80211p.usePropagationDelay true
param *.**.nic.phy80211p.useThermalNoise true
param *.annotations.draw false
param *.connectionManager.alpha 2.0
param *.connectionManager.carrierFrequency "5.890e9 Hz"
param *.connectionManager.pMax 20mW
param *.connectionManager.sat -89dBm
param *.connectionManager.sendDirect true
param *.manager.autoShutdown true
param *.manager.host "\"localhost\""
param *.manager.launchConfig "xmldoc(\"paramics.launchd.xml\")"
param *.manager.margin 25
param *.manager.moduleDisplayString "\"\""
param *.manager.moduleName "\"node\""
param *.manager.moduleType "\"org.car2x.veins.nodes.Car\""
param *.manager.port 9999
param *.manager.updateInterval 250ms
param *.node[*0].veinsmobility.accidentCount 0
param *.node[*0].veinsmobility.accidentDuration 30s
param *.node[*0].veinsmobility.accidentStart 75s
param *.node[*].appl.LiderSelectZoneRadio 55.0
param *.node[*].appl.ShareDataZoneRadio 110.0
param *.node[*].appl.TiempoSemaforo 30.0
param *.node[*].appl.beaconInterval 1s
param *.node[*].appl.beaconPriority 3
param *.node[*].appl.dataOnSch false
param *.node[*].appl.dataPriority 2
param *.node[*].appl.debug false
param *.node[*].appl.headerLength "256 bit"
param *.node[*].appl.maxOffset 0.005s
param *.node[*].appl.sendBeacons false
param *.node[*].appl.sendData true
param *.node[*].applType "\"Dummy\""
param *.node[*].mobilityType "\"TraCIMobility\""
param *.node[*].mobilityType.debug true
param *.node[*].veinsmobility.x 0
param *.node[*].veinsmobility.y 0
param *.node[*].veinsmobility.z 1.895
param *.node[*].veinsmobilityType "\"org.car2x.veins.modules.mobility.traci.TraCIMobility\""
param *.node[*].veinsmobilityType.debug true
param *.playgroundSizeX 8500m
param *.playgroundSizeY 8500m
param *.playgroundSizeZ 50m
param *.world.use2D false
param *.world.useTorus false

scalar IntersectionExampleScenario.node[0].appl 	VehicleRemoved 	0
scalar IntersectionExampleScenario.node[0].appl 	ArrivedAtDest 	1
scalar IntersectionExampleScenario.node[0].appl 	IntersectionEnterTime 	0.25
scalar IntersectionExampleScenario.node[0].appl 	IntersectionExitTime 	24.037791570969
scalar IntersectionExampleScenario.node[0].appl 	NumberOfCollisions 	0
scalar IntersectionExampleScenario.node[0].nic.phy80211p 	busyTime 	0
scalar IntersectionExampleScenario.node[0].nic.mac1609_4 	ReceivedUnicastPackets 	0
scalar IntersectionExampleScenario.node[0].nic.mac1609_4 	ReceivedBroadcasts 	0
scalar IntersectionExampleScenario.node[0].nic.mac1609_4 	SentPackets 	0
scalar IntersectionExampleScenario.node[0].nic.mac1609_4 	SNIRLostPackets 	0
scalar IntersectionExampleScenario.node[0].nic.mac1609_4 	RXTXLostPackets 	0
scalar IntersectionExampleScenario.node[0].nic.mac1609_4 	TotalLostPackets 	0
scalar IntersectionExampleScenario.node[0].nic.mac1609_4 	DroppedPacketsInMac 	0
scalar IntersectionExampleScenario.node[0].nic.mac1609_4 	TooLittleTime 	0
scalar IntersectionExampleScenario.node[0].nic.mac1609_4 	TimesIntoBackoff 	0
scalar IntersectionExampleScenario.node[0].nic.mac1609_4 	SlotsBackoff 	0
scalar IntersectionExampleScenario.node[0].nic.mac1609_4 	NumInternalContention 	0
scalar IntersectionExampleScenario.node[0].nic.mac1609_4 	totalBusyTime 	0
scalar IntersectionExampleScenario.node[0].veinsmobility 	startTime 	0.25
scalar IntersectionExampleScenario.node[0].veinsmobility 	totalTime 	40.75
scalar IntersectionExampleScenario.node[0].veinsmobility 	stopTime 	41.25
scalar IntersectionExampleScenario.node[0].veinsmobility 	minSpeed 	5.6500000953674
scalar IntersectionExampleScenario.node[0].veinsmobility 	maxSpeed 	15.25
scalar IntersectionExampleScenario.node[0].veinsmobility 	totalDistance 	544.57392777741
scalar IntersectionExampleScenario.node[0].veinsmobility 	totalCO2Emission 	124.39965242606
scalar IntersectionExampleScenario.node[2].appl 	VehicleRemoved 	0
scalar IntersectionExampleScenario.node[2].appl 	ArrivedAtDest 	1
scalar IntersectionExampleScenario.node[2].appl 	IntersectionEnterTime 	5.75
scalar IntersectionExampleScenario.node[2].appl 	IntersectionExitTime 	29.335652437585
scalar IntersectionExampleScenario.node[2].appl 	NumberOfCollisions 	0
scalar IntersectionExampleScenario.node[2].nic.phy80211p 	busyTime 	0
scalar IntersectionExampleScenario.node[2].nic.mac1609_4 	ReceivedUnicastPackets 	0
scalar IntersectionExampleScenario.node[2].nic.mac1609_4 	ReceivedBroadcasts 	0
scalar IntersectionExampleScenario.node[2].nic.mac1609_4 	SentPackets 	0
scalar IntersectionExampleScenario.node[2].nic.mac1609_4 	SNIRLostPackets 	0
scalar IntersectionExampleScenario.node[2].nic.mac1609_4 	RXTXLostPackets 	0
scalar IntersectionExampleScenario.node[2].nic.mac1609_4 	TotalLostPackets 	0
scalar IntersectionExampleScenario.node[2].nic.mac1609_4 	DroppedPacketsInMac 	0
scalar IntersectionExampleScenario.node[2].nic.mac1609_4 	TooLittleTime 	0
scalar IntersectionExampleScenario.node[2].nic.mac1609_4 	TimesIntoBackoff 	0
scalar IntersectionExampleScenario.node[2].nic.mac1609_4 	SlotsBackoff 	0
scalar IntersectionExampleScenario.node[2].nic.mac1609_4 	NumInternalContention 	0
scalar IntersectionExampleScenario.node[2].nic.mac1609_4 	totalBusyTime 	0
scalar IntersectionExampleScenario.node[2].veinsmobility 	startTime 	5.75
scalar IntersectionExampleScenario.node[2].veinsmobility 	totalTime 	40
scalar IntersectionExampleScenario.node[2].veinsmobility 	stopTime 	46
scalar IntersectionExampleScenario.node[2].veinsmobility 	minSpeed 	5.6500000953674
scalar IntersectionExampleScenario.node[2].veinsmobility 	maxSpeed 	15.02499961853
scalar IntersectionExampleScenario.node[2].veinsmobility 	totalDistance 	551.98734283447
scalar IntersectionExampleScenario.node[2].veinsmobility 	totalCO2Emission 	113.58977997837
scalar IntersectionExampleScenario.node[3].appl 	VehicleRemoved 	0
scalar IntersectionExampleScenario.node[3].appl 	ArrivedAtDest 	1
scalar IntersectionExampleScenario.node[3].appl 	IntersectionEnterTime 	7.25
scalar IntersectionExampleScenario.node[3].appl 	IntersectionExitTime 	32.083808438445
scalar IntersectionExampleScenario.node[3].appl 	NumberOfCollisions 	0
scalar IntersectionExampleScenario.node[3].nic.phy80211p 	busyTime 	0
scalar IntersectionExampleScenario.node[3].nic.mac1609_4 	ReceivedUnicastPackets 	0
scalar IntersectionExampleScenario.node[3].nic.mac1609_4 	ReceivedBroadcasts 	0
scalar IntersectionExampleScenario.node[3].nic.mac1609_4 	SentPackets 	0
scalar IntersectionExampleScenario.node[3].nic.mac1609_4 	SNIRLostPackets 	0
scalar IntersectionExampleScenario.node[3].nic.mac1609_4 	RXTXLostPackets 	0
scalar IntersectionExampleScenario.node[3].nic.mac1609_4 	TotalLostPackets 	0
scalar IntersectionExampleScenario.node[3].nic.mac1609_4 	DroppedPacketsInMac 	0
scalar IntersectionExampleScenario.node[3].nic.mac1609_4 	TooLittleTime 	0
scalar IntersectionExampleScenario.node[3].nic.mac1609_4 	TimesIntoBackoff 	0
scalar IntersectionExampleScenario.node[3].nic.mac1609_4 	SlotsBackoff 	0
scalar IntersectionExampleScenario.node[3].nic.mac1609_4 	NumInternalContention 	0
scalar IntersectionExampleScenario.node[3].nic.mac1609_4 	totalBusyTime 	0
scalar IntersectionExampleScenario.node[3].veinsmobility 	startTime 	7.25
scalar IntersectionExampleScenario.node[3].veinsmobility 	totalTime 	42.5
scalar IntersectionExampleScenario.node[3].veinsmobility 	stopTime 	50
scalar IntersectionExampleScenario.node[3].veinsmobility 	minSpeed 	5.6500000953674
scalar IntersectionExampleScenario.node[3].veinsmobility 	maxSpeed 	14.39999961853
scalar IntersectionExampleScenario.node[3].veinsmobility 	totalDistance 	552.39717079825
scalar IntersectionExampleScenario.node[3].veinsmobility 	totalCO2Emission 	115.34414294625
scalar IntersectionExampleScenario.node[4].appl 	VehicleRemoved 	0
scalar IntersectionExampleScenario.node[4].appl 	ArrivedAtDest 	1
scalar IntersectionExampleScenario.node[4].appl 	IntersectionEnterTime 	11
scalar IntersectionExampleScenario.node[4].appl 	IntersectionExitTime 	34.024762685411
scalar IntersectionExampleScenario.node[4].appl 	NumberOfCollisions 	0
scalar IntersectionExampleScenario.node[4].nic.phy80211p 	busyTime 	0
scalar IntersectionExampleScenario.node[4].nic.mac1609_4 	ReceivedUnicastPackets 	0
scalar IntersectionExampleScenario.node[4].nic.mac1609_4 	ReceivedBroadcasts 	0
scalar IntersectionExampleScenario.node[4].nic.mac1609_4 	SentPackets 	0
scalar IntersectionExampleScenario.node[4].nic.mac1609_4 	SNIRLostPackets 	0
scalar IntersectionExampleScenario.node[4].nic.mac1609_4 	RXTXLostPackets 	0
scalar IntersectionExampleScenario.node[4].nic.mac1609_4 	TotalLostPackets 	0
scalar IntersectionExampleScenario.node[4].nic.mac1609_4 	DroppedPacketsInMac 	0
scalar IntersectionExampleScenario.node[4].nic.mac1609_4 	TooLittleTime 	0
scalar IntersectionExampleScenario.node[4].nic.mac1609_4 	TimesIntoBackoff 	0
scalar IntersectionExampleScenario.node[4].nic.mac1609_4 	SlotsBackoff 	0
scalar IntersectionExampleScenario.node[4].nic.mac1609_4 	NumInternalContention 	0
scalar IntersectionExampleScenario.node[4].nic.mac1609_4 	totalBusyTime 	0
scalar IntersectionExampleScenario.node[4].veinsmobility 	startTime 	11
scalar IntersectionExampleScenario.node[4].veinsmobility 	totalTime 	39.25
scalar IntersectionExampleScenario.node[4].veinsmobility 	stopTime 	50.5
scalar IntersectionExampleScenario.node[4].veinsmobility 	minSpeed 	5.6500000953674
scalar IntersectionExampleScenario.node[4].veinsmobility 	maxSpeed 	15.091696739197
scalar IntersectionExampleScenario.node[4].veinsmobility 	totalDistance 	553.50882720947
scalar IntersectionExampleScenario.node[4].veinsmobility 	totalCO2Emission 	116.27660605414
scalar IntersectionExampleScenario.node[5].appl 	VehicleRemoved 	0
scalar IntersectionExampleScenario.node[5].appl 	ArrivedAtDest 	1
scalar IntersectionExampleScenario.node[5].appl 	IntersectionEnterTime 	12
scalar IntersectionExampleScenario.node[5].appl 	IntersectionExitTime 	35.086540327116
scalar IntersectionExampleScenario.node[5].appl 	NumberOfCollisions 	0
scalar IntersectionExampleScenario.node[5].nic.phy80211p 	busyTime 	0
scalar IntersectionExampleScenario.node[5].nic.mac1609_4 	ReceivedUnicastPackets 	0
scalar IntersectionExampleScenario.node[5].nic.mac1609_4 	ReceivedBroadcasts 	0
scalar IntersectionExampleScenario.node[5].nic.mac1609_4 	SentPackets 	0
scalar IntersectionExampleScenario.node[5].nic.mac1609_4 	SNIRLostPackets 	0
scalar IntersectionExampleScenario.node[5].nic.mac1609_4 	RXTXLostPackets 	0
scalar IntersectionExampleScenario.node[5].nic.mac1609_4 	TotalLostPackets 	0
scalar IntersectionExampleScenario.node[5].nic.mac1609_4 	DroppedPacketsInMac 	0
scalar IntersectionExampleScenario.node[5].nic.mac1609_4 	TooLittleTime 	0
scalar IntersectionExampleScenario.node[5].nic.mac1609_4 	TimesIntoBackoff 	0
scalar IntersectionExampleScenario.node[5].nic.mac1609_4 	SlotsBackoff 	0
scalar IntersectionExampleScenario.node[5].nic.mac1609_4 	NumInternalContention 	0
scalar IntersectionExampleScenario.node[5].nic.mac1609_4 	totalBusyTime 	0
scalar IntersectionExampleScenario.node[5].veinsmobility 	startTime 	12
scalar IntersectionExampleScenario.node[5].veinsmobility 	totalTime 	39.25
scalar IntersectionExampleScenario.node[5].veinsmobility 	stopTime 	51.5
scalar IntersectionExampleScenario.node[5].veinsmobility 	minSpeed 	5.6500000953674
scalar IntersectionExampleScenario.node[5].veinsmobility 	maxSpeed 	16.065124511719
scalar IntersectionExampleScenario.node[5].veinsmobility 	totalDistance 	551.80594447471
scalar IntersectionExampleScenario.node[5].veinsmobility 	totalCO2Emission 	126.32098032602
scalar IntersectionExampleScenario.node[1].appl 	VehicleRemoved 	0
scalar IntersectionExampleScenario.node[1].appl 	ArrivedAtDest 	1
scalar IntersectionExampleScenario.node[1].appl 	IntersectionEnterTime 	1
scalar IntersectionExampleScenario.node[1].appl 	IntersectionExitTime 	38.543195090635
scalar IntersectionExampleScenario.node[1].appl 	NumberOfCollisions 	0
scalar IntersectionExampleScenario.node[1].nic.phy80211p 	busyTime 	0
scalar IntersectionExampleScenario.node[1].nic.mac1609_4 	ReceivedUnicastPackets 	0
scalar IntersectionExampleScenario.node[1].nic.mac1609_4 	ReceivedBroadcasts 	0
scalar IntersectionExampleScenario.node[1].nic.mac1609_4 	SentPackets 	0
scalar IntersectionExampleScenario.node[1].nic.mac1609_4 	SNIRLostPackets 	0
scalar IntersectionExampleScenario.node[1].nic.mac1609_4 	RXTXLostPackets 	0
scalar IntersectionExampleScenario.node[1].nic.mac1609_4 	TotalLostPackets 	0
scalar IntersectionExampleScenario.node[1].nic.mac1609_4 	DroppedPacketsInMac 	0
scalar IntersectionExampleScenario.node[1].nic.mac1609_4 	TooLittleTime 	0
scalar IntersectionExampleScenario.node[1].nic.mac1609_4 	TimesIntoBackoff 	0
scalar IntersectionExampleScenario.node[1].nic.mac1609_4 	SlotsBackoff 	0
scalar IntersectionExampleScenario.node[1].nic.mac1609_4 	NumInternalContention 	0
scalar IntersectionExampleScenario.node[1].nic.mac1609_4 	totalBusyTime 	0
scalar IntersectionExampleScenario.node[1].veinsmobility 	startTime 	1
scalar IntersectionExampleScenario.node[1].veinsmobility 	totalTime 	54
scalar IntersectionExampleScenario.node[1].veinsmobility 	stopTime 	55.25
scalar IntersectionExampleScenario.node[1].veinsmobility 	minSpeed 	0
scalar IntersectionExampleScenario.node[1].veinsmobility 	maxSpeed 	15.684093475342
scalar IntersectionExampleScenario.node[1].veinsmobility 	totalDistance 	545.43252469451
scalar IntersectionExampleScenario.node[1].veinsmobility 	totalCO2Emission 	148.91314228841
scalar IntersectionExampleScenario.node[6].appl 	VehicleRemoved 	0
scalar IntersectionExampleScenario.node[6].appl 	ArrivedAtDest 	1
scalar IntersectionExampleScenario.node[6].appl 	IntersectionEnterTime 	14
scalar IntersectionExampleScenario.node[6].appl 	IntersectionExitTime 	50.254881848028
scalar IntersectionExampleScenario.node[6].appl 	NumberOfCollisions 	0
scalar IntersectionExampleScenario.node[6].nic.phy80211p 	busyTime 	0
scalar IntersectionExampleScenario.node[6].nic.mac1609_4 	ReceivedUnicastPackets 	0
scalar IntersectionExampleScenario.node[6].nic.mac1609_4 	ReceivedBroadcasts 	0
scalar IntersectionExampleScenario.node[6].nic.mac1609_4 	SentPackets 	0
scalar IntersectionExampleScenario.node[6].nic.mac1609_4 	SNIRLostPackets 	0
scalar IntersectionExampleScenario.node[6].nic.mac1609_4 	RXTXLostPackets 	0
scalar IntersectionExampleScenario.node[6].nic.mac1609_4 	TotalLostPackets 	0
scalar IntersectionExampleScenario.node[6].nic.mac1609_4 	DroppedPacketsInMac 	0
scalar IntersectionExampleScenario.node[6].nic.mac1609_4 	TooLittleTime 	0
scalar IntersectionExampleScenario.node[6].nic.mac1609_4 	TimesIntoBackoff 	0
scalar IntersectionExampleScenario.node[6].nic.mac1609_4 	SlotsBackoff 	0
scalar IntersectionExampleScenario.node[6].nic.mac1609_4 	NumInternalContention 	0
scalar IntersectionExampleScenario.node[6].nic.mac1609_4 	totalBusyTime 	0
scalar IntersectionExampleScenario.node[6].veinsmobility 	startTime 	14
scalar IntersectionExampleScenario.node[6].veinsmobility 	totalTime 	52.5
scalar IntersectionExampleScenario.node[6].veinsmobility 	stopTime 	66.75
scalar IntersectionExampleScenario.node[6].veinsmobility 	minSpeed 	0
scalar IntersectionExampleScenario.node[6].veinsmobility 	maxSpeed 	15.375
scalar IntersectionExampleScenario.node[6].veinsmobility 	totalDistance 	553.95883178711
scalar IntersectionExampleScenario.node[6].veinsmobility 	totalCO2Emission 	143.61646893845
scalar IntersectionExampleScenario.node[9].appl 	VehicleRemoved 	0
scalar IntersectionExampleScenario.node[9].appl 	ArrivedAtDest 	1
scalar IntersectionExampleScenario.node[9].appl 	IntersectionEnterTime 	18
scalar IntersectionExampleScenario.node[9].appl 	IntersectionExitTime 	52.093768039049
scalar IntersectionExampleScenario.node[9].appl 	NumberOfCollisions 	0
scalar IntersectionExampleScenario.node[9].nic.phy80211p 	busyTime 	0
scalar IntersectionExampleScenario.node[9].nic.mac1609_4 	ReceivedUnicastPackets 	0
scalar IntersectionExampleScenario.node[9].nic.mac1609_4 	ReceivedBroadcasts 	0
scalar IntersectionExampleScenario.node[9].nic.mac1609_4 	SentPackets 	0
scalar IntersectionExampleScenario.node[9].nic.mac1609_4 	SNIRLostPackets 	0
scalar IntersectionExampleScenario.node[9].nic.mac1609_4 	RXTXLostPackets 	0
scalar IntersectionExampleScenario.node[9].nic.mac1609_4 	TotalLostPackets 	0
scalar IntersectionExampleScenario.node[9].nic.mac1609_4 	DroppedPacketsInMac 	0
scalar IntersectionExampleScenario.node[9].nic.mac1609_4 	TooLittleTime 	0
scalar IntersectionExampleScenario.node[9].nic.mac1609_4 	TimesIntoBackoff 	0
scalar IntersectionExampleScenario.node[9].nic.mac1609_4 	SlotsBackoff 	0
scalar IntersectionExampleScenario.node[9].nic.mac1609_4 	NumInternalContention 	0
scalar IntersectionExampleScenario.node[9].nic.mac1609_4 	totalBusyTime 	0
scalar IntersectionExampleScenario.node[9].veinsmobility 	startTime 	18
scalar IntersectionExampleScenario.node[9].veinsmobility 	totalTime 	49.5
scalar IntersectionExampleScenario.node[9].veinsmobility 	stopTime 	67.75
scalar IntersectionExampleScenario.node[9].veinsmobility 	minSpeed 	0
scalar IntersectionExampleScenario.node[9].veinsmobility 	maxSpeed 	16.404178619385
scalar IntersectionExampleScenario.node[9].veinsmobility 	totalDistance 	560.16918945312
scalar IntersectionExampleScenario.node[9].veinsmobility 	totalCO2Emission 	152.79572517266
scalar IntersectionExampleScenario.node[7].appl 	VehicleRemoved 	0
scalar IntersectionExampleScenario.node[7].appl 	ArrivedAtDest 	1
scalar IntersectionExampleScenario.node[7].appl 	IntersectionEnterTime 	17
scalar IntersectionExampleScenario.node[7].appl 	IntersectionExitTime 	60.552638452587
scalar IntersectionExampleScenario.node[7].appl 	NumberOfCollisions 	0
scalar IntersectionExampleScenario.node[7].nic.phy80211p 	busyTime 	0
scalar IntersectionExampleScenario.node[7].nic.mac1609_4 	ReceivedUnicastPackets 	0
scalar IntersectionExampleScenario.node[7].nic.mac1609_4 	ReceivedBroadcasts 	0
scalar IntersectionExampleScenario.node[7].nic.mac1609_4 	SentPackets 	0
scalar IntersectionExampleScenario.node[7].nic.mac1609_4 	SNIRLostPackets 	0
scalar IntersectionExampleScenario.node[7].nic.mac1609_4 	RXTXLostPackets 	0
scalar IntersectionExampleScenario.node[7].nic.mac1609_4 	TotalLostPackets 	0
scalar IntersectionExampleScenario.node[7].nic.mac1609_4 	DroppedPacketsInMac 	0
scalar IntersectionExampleScenario.node[7].nic.mac1609_4 	TooLittleTime 	0
scalar IntersectionExampleScenario.node[7].nic.mac1609_4 	TimesIntoBackoff 	0
scalar IntersectionExampleScenario.node[7].nic.mac1609_4 	SlotsBackoff 	0
scalar IntersectionExampleScenario.node[7].nic.mac1609_4 	NumInternalContention 	0
scalar IntersectionExampleScenario.node[7].nic.mac1609_4 	totalBusyTime 	0
scalar IntersectionExampleScenario.node[7].veinsmobility 	startTime 	17
scalar IntersectionExampleScenario.node[7].veinsmobility 	totalTime 	60.25
scalar IntersectionExampleScenario.node[7].veinsmobility 	stopTime 	77.5
scalar IntersectionExampleScenario.node[7].veinsmobility 	minSpeed 	0
scalar IntersectionExampleScenario.node[7].veinsmobility 	maxSpeed 	15.25
scalar IntersectionExampleScenario.node[7].veinsmobility 	totalDistance 	543.89903165252
scalar IntersectionExampleScenario.node[7].veinsmobility 	totalCO2Emission 	151.7353922019
scalar IntersectionExampleScenario.node[11].appl 	VehicleRemoved 	0
scalar IntersectionExampleScenario.node[11].appl 	ArrivedAtDest 	1
scalar IntersectionExampleScenario.node[11].appl 	IntersectionEnterTime 	26
scalar IntersectionExampleScenario.node[11].appl 	IntersectionExitTime 	60.51202153237
scalar IntersectionExampleScenario.node[11].appl 	NumberOfCollisions 	0
scalar IntersectionExampleScenario.node[11].nic.phy80211p 	busyTime 	0
scalar IntersectionExampleScenario.node[11].nic.mac1609_4 	ReceivedUnicastPackets 	0
scalar IntersectionExampleScenario.node[11].nic.mac1609_4 	ReceivedBroadcasts 	0
scalar IntersectionExampleScenario.node[11].nic.mac1609_4 	SentPackets 	0
scalar IntersectionExampleScenario.node[11].nic.mac1609_4 	SNIRLostPackets 	0
scalar IntersectionExampleScenario.node[11].nic.mac1609_4 	RXTXLostPackets 	0
scalar IntersectionExampleScenario.node[11].nic.mac1609_4 	TotalLostPackets 	0
scalar IntersectionExampleScenario.node[11].nic.mac1609_4 	DroppedPacketsInMac 	0
scalar IntersectionExampleScenario.node[11].nic.mac1609_4 	TooLittleTime 	0
scalar IntersectionExampleScenario.node[11].nic.mac1609_4 	TimesIntoBackoff 	0
scalar IntersectionExampleScenario.node[11].nic.mac1609_4 	SlotsBackoff 	0
scalar IntersectionExampleScenario.node[11].nic.mac1609_4 	NumInternalContention 	0
scalar IntersectionExampleScenario.node[11].nic.mac1609_4 	totalBusyTime 	0
scalar IntersectionExampleScenario.node[11].veinsmobility 	startTime 	26
scalar IntersectionExampleScenario.node[11].veinsmobility 	totalTime 	51.5
scalar IntersectionExampleScenario.node[11].veinsmobility 	stopTime 	77.75
scalar IntersectionExampleScenario.node[11].veinsmobility 	minSpeed 	0
scalar IntersectionExampleScenario.node[11].veinsmobility 	maxSpeed 	15.25
scalar IntersectionExampleScenario.node[11].veinsmobility 	totalDistance 	545.00279904754
scalar IntersectionExampleScenario.node[11].veinsmobility 	totalCO2Emission 	141.34544151024
scalar IntersectionExampleScenario.node[8].appl 	VehicleRemoved 	0
scalar IntersectionExampleScenario.node[8].appl 	ArrivedAtDest 	1
scalar IntersectionExampleScenario.node[8].appl 	IntersectionEnterTime 	17.5
scalar IntersectionExampleScenario.node[8].appl 	IntersectionExitTime 	62.789439454238
scalar IntersectionExampleScenario.node[8].appl 	NumberOfCollisions 	0
scalar IntersectionExampleScenario.node[8].nic.phy80211p 	busyTime 	0
scalar IntersectionExampleScenario.node[8].nic.mac1609_4 	ReceivedUnicastPackets 	0
scalar IntersectionExampleScenario.node[8].nic.mac1609_4 	ReceivedBroadcasts 	0
scalar IntersectionExampleScenario.node[8].nic.mac1609_4 	SentPackets 	0
scalar IntersectionExampleScenario.node[8].nic.mac1609_4 	SNIRLostPackets 	0
scalar IntersectionExampleScenario.node[8].nic.mac1609_4 	RXTXLostPackets 	0
scalar IntersectionExampleScenario.node[8].nic.mac1609_4 	TotalLostPackets 	0
scalar IntersectionExampleScenario.node[8].nic.mac1609_4 	DroppedPacketsInMac 	0
scalar IntersectionExampleScenario.node[8].nic.mac1609_4 	TooLittleTime 	0
scalar IntersectionExampleScenario.node[8].nic.mac1609_4 	TimesIntoBackoff 	0
scalar IntersectionExampleScenario.node[8].nic.mac1609_4 	SlotsBackoff 	0
scalar IntersectionExampleScenario.node[8].nic.mac1609_4 	NumInternalContention 	0
scalar IntersectionExampleScenario.node[8].nic.mac1609_4 	totalBusyTime 	0
scalar IntersectionExampleScenario.node[8].veinsmobility 	startTime 	17.5
scalar IntersectionExampleScenario.node[8].veinsmobility 	totalTime 	61.5
scalar IntersectionExampleScenario.node[8].veinsmobility 	stopTime 	79.25
scalar IntersectionExampleScenario.node[8].veinsmobility 	minSpeed 	0
scalar IntersectionExampleScenario.node[8].veinsmobility 	maxSpeed 	15.410064697266
scalar IntersectionExampleScenario.node[8].veinsmobility 	totalDistance 	575.55203726213
scalar IntersectionExampleScenario.node[8].veinsmobility 	totalCO2Emission 	156.67910541901
scalar IntersectionExampleScenario.node[17].appl 	VehicleRemoved 	0
scalar IntersectionExampleScenario.node[17].appl 	ArrivedAtDest 	1
scalar IntersectionExampleScenario.node[17].appl 	IntersectionEnterTime 	41.5
scalar IntersectionExampleScenario.node[17].appl 	IntersectionExitTime 	64.81759852395
scalar IntersectionExampleScenario.node[17].appl 	NumberOfCollisions 	0
scalar IntersectionExampleScenario.node[17].nic.phy80211p 	busyTime 	0
scalar IntersectionExampleScenario.node[17].nic.mac1609_4 	ReceivedUnicastPackets 	0
scalar IntersectionExampleScenario.node[17].nic.mac1609_4 	ReceivedBroadcasts 	0
scalar IntersectionExampleScenario.node[17].nic.mac1609_4 	SentPackets 	0
scalar IntersectionExampleScenario.node[17].nic.mac1609_4 	SNIRLostPackets 	0
scalar IntersectionExampleScenario.node[17].nic.mac1609_4 	RXTXLostPackets 	0
scalar IntersectionExampleScenario.node[17].nic.mac1609_4 	TotalLostPackets 	0
scalar IntersectionExampleScenario.node[17].nic.mac1609_4 	DroppedPacketsInMac 	0
scalar IntersectionExampleScenario.node[17].nic.mac1609_4 	TooLittleTime 	0
scalar IntersectionExampleScenario.node[17].nic.mac1609_4 	TimesIntoBackoff 	0
scalar IntersectionExampleScenario.node[17].nic.mac1609_4 	SlotsBackoff 	0
scalar IntersectionExampleScenario.node[17].nic.mac1609_4 	NumInternalContention 	0
scalar IntersectionExampleScenario.node[17].nic.mac1609_4 	totalBusyTime 	0
scalar IntersectionExampleScenario.node[17].veinsmobility 	startTime 	41.5
scalar IntersectionExampleScenario.node[17].veinsmobility 	totalTime 	38.75
scalar IntersectionExampleScenario.node[17].veinsmobility 	stopTime 	80.5
scalar IntersectionExampleScenario.node[17].veinsmobility 	minSpeed 	5.6500000953674
scalar IntersectionExampleScenario.node[17].veinsmobility 	maxSpeed 	16.324939727783
scalar IntersectionExampleScenario.node[17].veinsmobility 	totalDistance 	548.98326872693
scalar IntersectionExampleScenario.node[17].veinsmobility 	totalCO2Emission 	144.3534841507
scalar IntersectionExampleScenario.node[10].appl 	VehicleRemoved 	0
scalar IntersectionExampleScenario.node[10].appl 	ArrivedAtDest 	1
scalar IntersectionExampleScenario.node[10].appl 	IntersectionEnterTime 	23.75
scalar IntersectionExampleScenario.node[10].appl 	IntersectionExitTime 	65.305766812584
scalar IntersectionExampleScenario.node[10].appl 	NumberOfCollisions 	0
scalar IntersectionExampleScenario.node[10].nic.phy80211p 	busyTime 	0
scalar IntersectionExampleScenario.node[10].nic.mac1609_4 	ReceivedUnicastPackets 	0
scalar IntersectionExampleScenario.node[10].nic.mac1609_4 	ReceivedBroadcasts 	0
scalar IntersectionExampleScenario.node[10].nic.mac1609_4 	SentPackets 	0
scalar IntersectionExampleScenario.node[10].nic.mac1609_4 	SNIRLostPackets 	0
scalar IntersectionExampleScenario.node[10].nic.mac1609_4 	RXTXLostPackets 	0
scalar IntersectionExampleScenario.node[10].nic.mac1609_4 	TotalLostPackets 	0
scalar IntersectionExampleScenario.node[10].nic.mac1609_4 	DroppedPacketsInMac 	0
scalar IntersectionExampleScenario.node[10].nic.mac1609_4 	TooLittleTime 	0
scalar IntersectionExampleScenario.node[10].nic.mac1609_4 	TimesIntoBackoff 	0
scalar IntersectionExampleScenario.node[10].nic.mac1609_4 	SlotsBackoff 	0
scalar IntersectionExampleScenario.node[10].nic.mac1609_4 	NumInternalContention 	0
scalar IntersectionExampleScenario.node[10].nic.mac1609_4 	totalBusyTime 	0
scalar IntersectionExampleScenario.node[10].veinsmobility 	startTime 	23.75
scalar IntersectionExampleScenario.node[10].veinsmobility 	totalTime 	57.5
scalar IntersectionExampleScenario.node[10].veinsmobility 	stopTime 	81.5
scalar IntersectionExampleScenario.node[10].veinsmobility 	minSpeed 	0
scalar IntersectionExampleScenario.node[10].veinsmobility 	maxSpeed 	16
scalar IntersectionExampleScenario.node[10].veinsmobility 	totalDistance 	549.01668238313
scalar IntersectionExampleScenario.node[10].veinsmobility 	totalCO2Emission 	149.95364028139
scalar IntersectionExampleScenario.node[18].appl 	VehicleRemoved 	0
scalar IntersectionExampleScenario.node[18].appl 	ArrivedAtDest 	1
scalar IntersectionExampleScenario.node[18].appl 	IntersectionEnterTime 	45.25
scalar IntersectionExampleScenario.node[18].appl 	IntersectionExitTime 	68.317303086835
scalar IntersectionExampleScenario.node[18].appl 	NumberOfCollisions 	0
scalar IntersectionExampleScenario.node[18].nic.phy80211p 	busyTime 	0
scalar IntersectionExampleScenario.node[18].nic.mac1609_4 	ReceivedUnicastPackets 	0
scalar IntersectionExampleScenario.node[18].nic.mac1609_4 	ReceivedBroadcasts 	0
scalar IntersectionExampleScenario.node[18].nic.mac1609_4 	SentPackets 	0
scalar IntersectionExampleScenario.node[18].nic.mac1609_4 	SNIRLostPackets 	0
scalar IntersectionExampleScenario.node[18].nic.mac1609_4 	RXTXLostPackets 	0
scalar IntersectionExampleScenario.node[18].nic.mac1609_4 	TotalLostPackets 	0
scalar IntersectionExampleScenario.node[18].nic.mac1609_4 	DroppedPacketsInMac 	0
scalar IntersectionExampleScenario.node[18].nic.mac1609_4 	TooLittleTime 	0
scalar IntersectionExampleScenario.node[18].nic.mac1609_4 	TimesIntoBackoff 	0
scalar IntersectionExampleScenario.node[18].nic.mac1609_4 	SlotsBackoff 	0
scalar IntersectionExampleScenario.node[18].nic.mac1609_4 	NumInternalContention 	0
scalar IntersectionExampleScenario.node[18].nic.mac1609_4 	totalBusyTime 	0
scalar IntersectionExampleScenario.node[18].veinsmobility 	startTime 	45.25
scalar IntersectionExampleScenario.node[18].veinsmobility 	totalTime 	38.75
scalar IntersectionExampleScenario.node[18].veinsmobility 	stopTime 	84.25
scalar IntersectionExampleScenario.node[18].veinsmobility 	minSpeed 	5.6500000953674
scalar IntersectionExampleScenario.node[18].veinsmobility 	maxSpeed 	15.850333213806
scalar IntersectionExampleScenario.node[18].veinsmobility 	totalDistance 	550.80881500244
scalar IntersectionExampleScenario.node[18].veinsmobility 	totalCO2Emission 	124.00714191878
scalar IntersectionExampleScenario.node[12].appl 	VehicleRemoved 	0
scalar IntersectionExampleScenario.node[12].appl 	ArrivedAtDest 	1
scalar IntersectionExampleScenario.node[12].appl 	IntersectionEnterTime 	26.75
scalar IntersectionExampleScenario.node[12].appl 	IntersectionExitTime 	74.260452875664
scalar IntersectionExampleScenario.node[12].appl 	NumberOfCollisions 	0
scalar IntersectionExampleScenario.node[12].nic.phy80211p 	busyTime 	0
scalar IntersectionExampleScenario.node[12].nic.mac1609_4 	ReceivedUnicastPackets 	0
scalar IntersectionExampleScenario.node[12].nic.mac1609_4 	ReceivedBroadcasts 	0
scalar IntersectionExampleScenario.node[12].nic.mac1609_4 	SentPackets 	0
scalar IntersectionExampleScenario.node[12].nic.mac1609_4 	SNIRLostPackets 	0
scalar IntersectionExampleScenario.node[12].nic.mac1609_4 	RXTXLostPackets 	0
scalar IntersectionExampleScenario.node[12].nic.mac1609_4 	TotalLostPackets 	0
scalar IntersectionExampleScenario.node[12].nic.mac1609_4 	DroppedPacketsInMac 	0
scalar IntersectionExampleScenario.node[12].nic.mac1609_4 	TooLittleTime 	0
scalar IntersectionExampleScenario.node[12].nic.mac1609_4 	TimesIntoBackoff 	0
scalar IntersectionExampleScenario.node[12].nic.mac1609_4 	SlotsBackoff 	0
scalar IntersectionExampleScenario.node[12].nic.mac1609_4 	NumInternalContention 	0
scalar IntersectionExampleScenario.node[12].nic.mac1609_4 	totalBusyTime 	0
scalar IntersectionExampleScenario.node[12].veinsmobility 	startTime 	26.75
scalar IntersectionExampleScenario.node[12].veinsmobility 	totalTime 	63.25
scalar IntersectionExampleScenario.node[12].veinsmobility 	stopTime 	90.25
scalar IntersectionExampleScenario.node[12].veinsmobility 	minSpeed 	0
scalar IntersectionExampleScenario.node[12].veinsmobility 	maxSpeed 	16
scalar IntersectionExampleScenario.node[12].veinsmobility 	totalDistance 	549.90855516543
scalar IntersectionExampleScenario.node[12].veinsmobility 	totalCO2Emission 	159.00336660827
scalar IntersectionExampleScenario.node[13].appl 	VehicleRemoved 	0
scalar IntersectionExampleScenario.node[13].appl 	ArrivedAtDest 	1
scalar IntersectionExampleScenario.node[13].appl 	IntersectionEnterTime 	35.5
scalar IntersectionExampleScenario.node[13].appl 	IntersectionExitTime 	75.323048640479
scalar IntersectionExampleScenario.node[13].appl 	NumberOfCollisions 	0
scalar IntersectionExampleScenario.node[13].nic.phy80211p 	busyTime 	0
scalar IntersectionExampleScenario.node[13].nic.mac1609_4 	ReceivedUnicastPackets 	0
scalar IntersectionExampleScenario.node[13].nic.mac1609_4 	ReceivedBroadcasts 	0
scalar IntersectionExampleScenario.node[13].nic.mac1609_4 	SentPackets 	0
scalar IntersectionExampleScenario.node[13].nic.mac1609_4 	SNIRLostPackets 	0
scalar IntersectionExampleScenario.node[13].nic.mac1609_4 	RXTXLostPackets 	0
scalar IntersectionExampleScenario.node[13].nic.mac1609_4 	TotalLostPackets 	0
scalar IntersectionExampleScenario.node[13].nic.mac1609_4 	DroppedPacketsInMac 	0
scalar IntersectionExampleScenario.node[13].nic.mac1609_4 	TooLittleTime 	0
scalar IntersectionExampleScenario.node[13].nic.mac1609_4 	TimesIntoBackoff 	0
scalar IntersectionExampleScenario.node[13].nic.mac1609_4 	SlotsBackoff 	0
scalar IntersectionExampleScenario.node[13].nic.mac1609_4 	NumInternalContention 	0
scalar IntersectionExampleScenario.node[13].nic.mac1609_4 	totalBusyTime 	0
scalar IntersectionExampleScenario.node[13].veinsmobility 	startTime 	35.5
scalar IntersectionExampleScenario.node[13].veinsmobility 	totalTime 	56.25
scalar IntersectionExampleScenario.node[13].veinsmobility 	stopTime 	92
scalar IntersectionExampleScenario.node[13].veinsmobility 	minSpeed 	0
scalar IntersectionExampleScenario.node[13].veinsmobility 	maxSpeed 	15.02499961853
scalar IntersectionExampleScenario.node[13].veinsmobility 	totalDistance 	551.23404693604
scalar IntersectionExampleScenario.node[13].veinsmobility 	totalCO2Emission 	141.14219615799
scalar IntersectionExampleScenario.node[14].appl 	VehicleRemoved 	0
scalar IntersectionExampleScenario.node[14].appl 	ArrivedAtDest 	1
scalar IntersectionExampleScenario.node[14].appl 	IntersectionEnterTime 	39.75
scalar IntersectionExampleScenario.node[14].appl 	IntersectionExitTime 	77.282622372673
scalar IntersectionExampleScenario.node[14].appl 	NumberOfCollisions 	0
scalar IntersectionExampleScenario.node[14].nic.phy80211p 	busyTime 	0
scalar IntersectionExampleScenario.node[14].nic.mac1609_4 	ReceivedUnicastPackets 	0
scalar IntersectionExampleScenario.node[14].nic.mac1609_4 	ReceivedBroadcasts 	0
scalar IntersectionExampleScenario.node[14].nic.mac1609_4 	SentPackets 	0
scalar IntersectionExampleScenario.node[14].nic.mac1609_4 	SNIRLostPackets 	0
scalar IntersectionExampleScenario.node[14].nic.mac1609_4 	RXTXLostPackets 	0
scalar IntersectionExampleScenario.node[14].nic.mac1609_4 	TotalLostPackets 	0
scalar IntersectionExampleScenario.node[14].nic.mac1609_4 	DroppedPacketsInMac 	0
scalar IntersectionExampleScenario.node[14].nic.mac1609_4 	TooLittleTime 	0
scalar IntersectionExampleScenario.node[14].nic.mac1609_4 	TimesIntoBackoff 	0
scalar IntersectionExampleScenario.node[14].nic.mac1609_4 	SlotsBackoff 	0
scalar IntersectionExampleScenario.node[14].nic.mac1609_4 	NumInternalContention 	0
scalar IntersectionExampleScenario.node[14].nic.mac1609_4 	totalBusyTime 	0
scalar IntersectionExampleScenario.node[14].veinsmobility 	startTime 	39.75
scalar IntersectionExampleScenario.node[14].veinsmobility 	totalTime 	53.25
scalar IntersectionExampleScenario.node[14].veinsmobility 	stopTime 	93.25
scalar IntersectionExampleScenario.node[14].veinsmobility 	minSpeed 	1.1610519886017
scalar IntersectionExampleScenario.node[14].veinsmobility 	maxSpeed 	16.021350860596
scalar IntersectionExampleScenario.node[14].veinsmobility 	totalDistance 	556.03968811035
scalar IntersectionExampleScenario.node[14].veinsmobility 	totalCO2Emission 	148.52248310281
scalar IntersectionExampleScenario.node[16].appl 	VehicleRemoved 	0
scalar IntersectionExampleScenario.node[16].appl 	ArrivedAtDest 	1
scalar IntersectionExampleScenario.node[16].appl 	IntersectionEnterTime 	41.5
scalar IntersectionExampleScenario.node[16].appl 	IntersectionExitTime 	79.767495765031
scalar IntersectionExampleScenario.node[16].appl 	NumberOfCollisions 	0
scalar IntersectionExampleScenario.node[16].nic.phy80211p 	busyTime 	0
scalar IntersectionExampleScenario.node[16].nic.mac1609_4 	ReceivedUnicastPackets 	0
scalar IntersectionExampleScenario.node[16].nic.mac1609_4 	ReceivedBroadcasts 	0
scalar IntersectionExampleScenario.node[16].nic.mac1609_4 	SentPackets 	0
scalar IntersectionExampleScenario.node[16].nic.mac1609_4 	SNIRLostPackets 	0
scalar IntersectionExampleScenario.node[16].nic.mac1609_4 	RXTXLostPackets 	0
scalar IntersectionExampleScenario.node[16].nic.mac1609_4 	TotalLostPackets 	0
scalar IntersectionExampleScenario.node[16].nic.mac1609_4 	DroppedPacketsInMac 	0
scalar IntersectionExampleScenario.node[16].nic.mac1609_4 	TooLittleTime 	0
scalar IntersectionExampleScenario.node[16].nic.mac1609_4 	TimesIntoBackoff 	0
scalar IntersectionExampleScenario.node[16].nic.mac1609_4 	SlotsBackoff 	0
scalar IntersectionExampleScenario.node[16].nic.mac1609_4 	NumInternalContention 	0
scalar IntersectionExampleScenario.node[16].nic.mac1609_4 	totalBusyTime 	0
scalar IntersectionExampleScenario.node[16].veinsmobility 	startTime 	41.5
scalar IntersectionExampleScenario.node[16].veinsmobility 	totalTime 	54.5
scalar IntersectionExampleScenario.node[16].veinsmobility 	stopTime 	96.25
scalar IntersectionExampleScenario.node[16].veinsmobility 	minSpeed 	0.02735161781311
scalar IntersectionExampleScenario.node[16].veinsmobility 	maxSpeed 	15.64999961853
scalar IntersectionExampleScenario.node[16].veinsmobility 	totalDistance 	573.76244132936
scalar IntersectionExampleScenario.node[16].veinsmobility 	totalCO2Emission 	145.98098191152
scalar IntersectionExampleScenario.node[15].appl 	VehicleRemoved 	0
scalar IntersectionExampleScenario.node[15].appl 	ArrivedAtDest 	1
scalar IntersectionExampleScenario.node[15].appl 	IntersectionEnterTime 	41
scalar IntersectionExampleScenario.node[15].appl 	IntersectionExitTime 	85.311632449186
scalar IntersectionExampleScenario.node[15].appl 	NumberOfCollisions 	0
scalar IntersectionExampleScenario.node[15].nic.phy80211p 	busyTime 	0
scalar IntersectionExampleScenario.node[15].nic.mac1609_4 	ReceivedUnicastPackets 	0
scalar IntersectionExampleScenario.node[15].nic.mac1609_4 	ReceivedBroadcasts 	0
scalar IntersectionExampleScenario.node[15].nic.mac1609_4 	SentPackets 	0
scalar IntersectionExampleScenario.node[15].nic.mac1609_4 	SNIRLostPackets 	0
scalar IntersectionExampleScenario.node[15].nic.mac1609_4 	RXTXLostPackets 	0
scalar IntersectionExampleScenario.node[15].nic.mac1609_4 	TotalLostPackets 	0
scalar IntersectionExampleScenario.node[15].nic.mac1609_4 	DroppedPacketsInMac 	0
scalar IntersectionExampleScenario.node[15].nic.mac1609_4 	TooLittleTime 	0
scalar IntersectionExampleScenario.node[15].nic.mac1609_4 	TimesIntoBackoff 	0
scalar IntersectionExampleScenario.node[15].nic.mac1609_4 	SlotsBackoff 	0
scalar IntersectionExampleScenario.node[15].nic.mac1609_4 	NumInternalContention 	0
scalar IntersectionExampleScenario.node[15].nic.mac1609_4 	totalBusyTime 	0
scalar IntersectionExampleScenario.node[15].veinsmobility 	startTime 	41
scalar IntersectionExampleScenario.node[15].veinsmobility 	totalTime 	60.5
scalar IntersectionExampleScenario.node[15].veinsmobility 	stopTime 	101.75
scalar IntersectionExampleScenario.node[15].veinsmobility 	minSpeed 	0
scalar IntersectionExampleScenario.node[15].veinsmobility 	maxSpeed 	15.375
scalar IntersectionExampleScenario.node[15].veinsmobility 	totalDistance 	551.64488220215
scalar IntersectionExampleScenario.node[15].veinsmobility 	totalCO2Emission 	150.07568353381
scalar IntersectionExampleScenario.node[20].appl 	VehicleRemoved 	0
scalar IntersectionExampleScenario.node[20].appl 	ArrivedAtDest 	1
scalar IntersectionExampleScenario.node[20].appl 	IntersectionEnterTime 	53
scalar IntersectionExampleScenario.node[20].appl 	IntersectionExitTime 	86.343867804651
scalar IntersectionExampleScenario.node[20].appl 	NumberOfCollisions 	0
scalar IntersectionExampleScenario.node[20].nic.phy80211p 	busyTime 	0
scalar IntersectionExampleScenario.node[20].nic.mac1609_4 	ReceivedUnicastPackets 	0
scalar IntersectionExampleScenario.node[20].nic.mac1609_4 	ReceivedBroadcasts 	0
scalar IntersectionExampleScenario.node[20].nic.mac1609_4 	SentPackets 	0
scalar IntersectionExampleScenario.node[20].nic.mac1609_4 	SNIRLostPackets 	0
scalar IntersectionExampleScenario.node[20].nic.mac1609_4 	RXTXLostPackets 	0
scalar IntersectionExampleScenario.node[20].nic.mac1609_4 	TotalLostPackets 	0
scalar IntersectionExampleScenario.node[20].nic.mac1609_4 	DroppedPacketsInMac 	0
scalar IntersectionExampleScenario.node[20].nic.mac1609_4 	TooLittleTime 	0
scalar IntersectionExampleScenario.node[20].nic.mac1609_4 	TimesIntoBackoff 	0
scalar IntersectionExampleScenario.node[20].nic.mac1609_4 	SlotsBackoff 	0
scalar IntersectionExampleScenario.node[20].nic.mac1609_4 	NumInternalContention 	0
scalar IntersectionExampleScenario.node[20].nic.mac1609_4 	totalBusyTime 	0
scalar IntersectionExampleScenario.node[20].veinsmobility 	startTime 	53
scalar IntersectionExampleScenario.node[20].veinsmobility 	totalTime 	50.25
scalar IntersectionExampleScenario.node[20].veinsmobility 	stopTime 	103.5
scalar IntersectionExampleScenario.node[20].veinsmobility 	minSpeed 	1.2995414733887
scalar IntersectionExampleScenario.node[20].veinsmobility 	maxSpeed 	15.02499961853
scalar IntersectionExampleScenario.node[20].veinsmobility 	totalDistance 	551.20773394677
scalar IntersectionExampleScenario.node[20].veinsmobility 	totalCO2Emission 	133.99700315841
scalar IntersectionExampleScenario.node[21].appl 	VehicleRemoved 	0
scalar IntersectionExampleScenario.node[21].appl 	ArrivedAtDest 	1
scalar IntersectionExampleScenario.node[21].appl 	IntersectionEnterTime 	71.75
scalar IntersectionExampleScenario.node[21].appl 	IntersectionExitTime 	93.803511398786
scalar IntersectionExampleScenario.node[21].appl 	NumberOfCollisions 	0
scalar IntersectionExampleScenario.node[21].nic.phy80211p 	busyTime 	0
scalar IntersectionExampleScenario.node[21].nic.mac1609_4 	ReceivedUnicastPackets 	0
scalar IntersectionExampleScenario.node[21].nic.mac1609_4 	ReceivedBroadcasts 	0
scalar IntersectionExampleScenario.node[21].nic.mac1609_4 	SentPackets 	0
scalar IntersectionExampleScenario.node[21].nic.mac1609_4 	SNIRLostPackets 	0
scalar IntersectionExampleScenario.node[21].nic.mac1609_4 	RXTXLostPackets 	0
scalar IntersectionExampleScenario.node[21].nic.mac1609_4 	TotalLostPackets 	0
scalar IntersectionExampleScenario.node[21].nic.mac1609_4 	DroppedPacketsInMac 	0
scalar IntersectionExampleScenario.node[21].nic.mac1609_4 	TooLittleTime 	0
scalar IntersectionExampleScenario.node[21].nic.mac1609_4 	TimesIntoBackoff 	0
scalar IntersectionExampleScenario.node[21].nic.mac1609_4 	SlotsBackoff 	0
scalar IntersectionExampleScenario.node[21].nic.mac1609_4 	NumInternalContention 	0
scalar IntersectionExampleScenario.node[21].nic.mac1609_4 	totalBusyTime 	0
scalar IntersectionExampleScenario.node[21].veinsmobility 	startTime 	71.75
scalar IntersectionExampleScenario.node[21].veinsmobility 	totalTime 	37.25
scalar IntersectionExampleScenario.node[21].veinsmobility 	stopTime 	109.25
scalar IntersectionExampleScenario.node[21].veinsmobility 	minSpeed 	5.6500000953674
scalar IntersectionExampleScenario.node[21].veinsmobility 	maxSpeed 	16.27499961853
scalar IntersectionExampleScenario.node[21].veinsmobility 	totalDistance 	551.74661254883
scalar IntersectionExampleScenario.node[21].veinsmobility 	totalCO2Emission 	122.72925242157
scalar IntersectionExampleScenario.node[19].appl 	VehicleRemoved 	0
scalar IntersectionExampleScenario.node[19].appl 	ArrivedAtDest 	1
scalar IntersectionExampleScenario.node[19].appl 	IntersectionEnterTime 	51.25
scalar IntersectionExampleScenario.node[19].appl 	IntersectionExitTime 	95.579729559831
scalar IntersectionExampleScenario.node[19].appl 	NumberOfCollisions 	0
scalar IntersectionExampleScenario.node[19].nic.phy80211p 	busyTime 	0
scalar IntersectionExampleScenario.node[19].nic.mac1609_4 	ReceivedUnicastPackets 	0
scalar IntersectionExampleScenario.node[19].nic.mac1609_4 	ReceivedBroadcasts 	0
scalar IntersectionExampleScenario.node[19].nic.mac1609_4 	SentPackets 	0
scalar IntersectionExampleScenario.node[19].nic.mac1609_4 	SNIRLostPackets 	0
scalar IntersectionExampleScenario.node[19].nic.mac1609_4 	RXTXLostPackets 	0
scalar IntersectionExampleScenario.node[19].nic.mac1609_4 	TotalLostPackets 	0
scalar IntersectionExampleScenario.node[19].nic.mac1609_4 	DroppedPacketsInMac 	0
scalar IntersectionExampleScenario.node[19].nic.mac1609_4 	TooLittleTime 	0
scalar IntersectionExampleScenario.node[19].nic.mac1609_4 	TimesIntoBackoff 	0
scalar IntersectionExampleScenario.node[19].nic.mac1609_4 	SlotsBackoff 	0
scalar IntersectionExampleScenario.node[19].nic.mac1609_4 	NumInternalContention 	0
scalar IntersectionExampleScenario.node[19].nic.mac1609_4 	totalBusyTime 	0
scalar IntersectionExampleScenario.node[19].veinsmobility 	startTime 	51.25
scalar IntersectionExampleScenario.node[19].veinsmobility 	totalTime 	60.25
scalar IntersectionExampleScenario.node[19].veinsmobility 	stopTime 	111.75
scalar IntersectionExampleScenario.node[19].veinsmobility 	minSpeed 	0
scalar IntersectionExampleScenario.node[19].veinsmobility 	maxSpeed 	16.541120529175
scalar IntersectionExampleScenario.node[19].veinsmobility 	totalDistance 	545.89440061004
scalar IntersectionExampleScenario.node[19].veinsmobility 	totalCO2Emission 	162.09721967641
scalar IntersectionExampleScenario.node[22].appl 	VehicleRemoved 	0
scalar IntersectionExampleScenario.node[22].appl 	ArrivedAtDest 	1
scalar IntersectionExampleScenario.node[22].appl 	IntersectionEnterTime 	75.5
scalar IntersectionExampleScenario.node[22].appl 	IntersectionExitTime 	109.26434324624
scalar IntersectionExampleScenario.node[22].appl 	NumberOfCollisions 	0
scalar IntersectionExampleScenario.node[22].nic.phy80211p 	busyTime 	0
scalar IntersectionExampleScenario.node[22].nic.mac1609_4 	ReceivedUnicastPackets 	0
scalar IntersectionExampleScenario.node[22].nic.mac1609_4 	ReceivedBroadcasts 	0
scalar IntersectionExampleScenario.node[22].nic.mac1609_4 	SentPackets 	0
scalar IntersectionExampleScenario.node[22].nic.mac1609_4 	SNIRLostPackets 	0
scalar IntersectionExampleScenario.node[22].nic.mac1609_4 	RXTXLostPackets 	0
scalar IntersectionExampleScenario.node[22].nic.mac1609_4 	TotalLostPackets 	0
scalar IntersectionExampleScenario.node[22].nic.mac1609_4 	DroppedPacketsInMac 	0
scalar IntersectionExampleScenario.node[22].nic.mac1609_4 	TooLittleTime 	0
scalar IntersectionExampleScenario.node[22].nic.mac1609_4 	TimesIntoBackoff 	0
scalar IntersectionExampleScenario.node[22].nic.mac1609_4 	SlotsBackoff 	0
scalar IntersectionExampleScenario.node[22].nic.mac1609_4 	NumInternalContention 	0
scalar IntersectionExampleScenario.node[22].nic.mac1609_4 	totalBusyTime 	0
scalar IntersectionExampleScenario.node[22].veinsmobility 	startTime 	75.5
scalar IntersectionExampleScenario.node[22].veinsmobility 	totalTime 	49
scalar IntersectionExampleScenario.node[22].veinsmobility 	stopTime 	124.75
scalar IntersectionExampleScenario.node[22].veinsmobility 	minSpeed 	0
scalar IntersectionExampleScenario.node[22].veinsmobility 	maxSpeed 	16.625
scalar IntersectionExampleScenario.node[22].veinsmobility 	totalDistance 	554.39847564697
scalar IntersectionExampleScenario.node[22].veinsmobility 	totalCO2Emission 	149.54378685254
scalar IntersectionExampleScenario.node[25].appl 	VehicleRemoved 	0
scalar IntersectionExampleScenario.node[25].appl 	ArrivedAtDest 	1
scalar IntersectionExampleScenario.node[25].appl 	IntersectionEnterTime 	89.5
scalar IntersectionExampleScenario.node[25].appl 	IntersectionExitTime 	113.1107427619
scalar IntersectionExampleScenario.node[25].appl 	NumberOfCollisions 	0
scalar IntersectionExampleScenario.node[25].nic.phy80211p 	busyTime 	0
scalar IntersectionExampleScenario.node[25].nic.mac1609_4 	ReceivedUnicastPackets 	0
scalar IntersectionExampleScenario.node[25].nic.mac1609_4 	ReceivedBroadcasts 	0
scalar IntersectionExampleScenario.node[25].nic.mac1609_4 	SentPackets 	0
scalar IntersectionExampleScenario.node[25].nic.mac1609_4 	SNIRLostPackets 	0
scalar IntersectionExampleScenario.node[25].nic.mac1609_4 	RXTXLostPackets 	0
scalar IntersectionExampleScenario.node[25].nic.mac1609_4 	TotalLostPackets 	0
scalar IntersectionExampleScenario.node[25].nic.mac1609_4 	DroppedPacketsInMac 	0
scalar IntersectionExampleScenario.node[25].nic.mac1609_4 	TooLittleTime 	0
scalar IntersectionExampleScenario.node[25].nic.mac1609_4 	TimesIntoBackoff 	0
scalar IntersectionExampleScenario.node[25].nic.mac1609_4 	SlotsBackoff 	0
scalar IntersectionExampleScenario.node[25].nic.mac1609_4 	NumInternalContention 	0
scalar IntersectionExampleScenario.node[25].nic.mac1609_4 	totalBusyTime 	0
scalar IntersectionExampleScenario.node[25].veinsmobility 	startTime 	89.5
scalar IntersectionExampleScenario.node[25].veinsmobility 	totalTime 	39
scalar IntersectionExampleScenario.node[25].veinsmobility 	stopTime 	128.75
scalar IntersectionExampleScenario.node[25].veinsmobility 	minSpeed 	5.6500000953674
scalar IntersectionExampleScenario.node[25].veinsmobility 	maxSpeed 	17.125
scalar IntersectionExampleScenario.node[25].veinsmobility 	totalDistance 	543.82154560759
scalar IntersectionExampleScenario.node[25].veinsmobility 	totalCO2Emission 	151.09844649216
scalar IntersectionExampleScenario.node[26].appl 	VehicleRemoved 	0
scalar IntersectionExampleScenario.node[26].appl 	ArrivedAtDest 	1
scalar IntersectionExampleScenario.node[26].appl 	IntersectionEnterTime 	90.5
scalar IntersectionExampleScenario.node[26].appl 	IntersectionExitTime 	115.5019776551
scalar IntersectionExampleScenario.node[26].appl 	NumberOfCollisions 	0
scalar IntersectionExampleScenario.node[26].nic.phy80211p 	busyTime 	0
scalar IntersectionExampleScenario.node[26].nic.mac1609_4 	ReceivedUnicastPackets 	0
scalar IntersectionExampleScenario.node[26].nic.mac1609_4 	ReceivedBroadcasts 	0
scalar IntersectionExampleScenario.node[26].nic.mac1609_4 	SentPackets 	0
scalar IntersectionExampleScenario.node[26].nic.mac1609_4 	SNIRLostPackets 	0
scalar IntersectionExampleScenario.node[26].nic.mac1609_4 	RXTXLostPackets 	0
scalar IntersectionExampleScenario.node[26].nic.mac1609_4 	TotalLostPackets 	0
scalar IntersectionExampleScenario.node[26].nic.mac1609_4 	DroppedPacketsInMac 	0
scalar IntersectionExampleScenario.node[26].nic.mac1609_4 	TooLittleTime 	0
scalar IntersectionExampleScenario.node[26].nic.mac1609_4 	TimesIntoBackoff 	0
scalar IntersectionExampleScenario.node[26].nic.mac1609_4 	SlotsBackoff 	0
scalar IntersectionExampleScenario.node[26].nic.mac1609_4 	NumInternalContention 	0
scalar IntersectionExampleScenario.node[26].nic.mac1609_4 	totalBusyTime 	0
scalar IntersectionExampleScenario.node[26].veinsmobility 	startTime 	90.5
scalar IntersectionExampleScenario.node[26].veinsmobility 	totalTime 	41
scalar IntersectionExampleScenario.node[26].veinsmobility 	stopTime 	131.75
scalar IntersectionExampleScenario.node[26].veinsmobility 	minSpeed 	5.6500000953674
scalar IntersectionExampleScenario.node[26].veinsmobility 	maxSpeed 	16
scalar IntersectionExampleScenario.node[26].veinsmobility 	totalDistance 	572.89675242658
scalar IntersectionExampleScenario.node[26].veinsmobility 	totalCO2Emission 	140.0482913208
scalar IntersectionExampleScenario.node[23].appl 	VehicleRemoved 	0
scalar IntersectionExampleScenario.node[23].appl 	ArrivedAtDest 	1
scalar IntersectionExampleScenario.node[23].appl 	IntersectionEnterTime 	85.75
scalar IntersectionExampleScenario.node[23].appl 	IntersectionExitTime 	131.30101710051
scalar IntersectionExampleScenario.node[23].appl 	NumberOfCollisions 	0
scalar IntersectionExampleScenario.node[23].nic.phy80211p 	busyTime 	0
scalar IntersectionExampleScenario.node[23].nic.mac1609_4 	ReceivedUnicastPackets 	0
scalar IntersectionExampleScenario.node[23].nic.mac1609_4 	ReceivedBroadcasts 	0
scalar IntersectionExampleScenario.node[23].nic.mac1609_4 	SentPackets 	0
scalar IntersectionExampleScenario.node[23].nic.mac1609_4 	SNIRLostPackets 	0
scalar IntersectionExampleScenario.node[23].nic.mac1609_4 	RXTXLostPackets 	0
scalar IntersectionExampleScenario.node[23].nic.mac1609_4 	TotalLostPackets 	0
scalar IntersectionExampleScenario.node[23].nic.mac1609_4 	DroppedPacketsInMac 	0
scalar IntersectionExampleScenario.node[23].nic.mac1609_4 	TooLittleTime 	0
scalar IntersectionExampleScenario.node[23].nic.mac1609_4 	TimesIntoBackoff 	0
scalar IntersectionExampleScenario.node[23].nic.mac1609_4 	SlotsBackoff 	0
scalar IntersectionExampleScenario.node[23].nic.mac1609_4 	NumInternalContention 	0
scalar IntersectionExampleScenario.node[23].nic.mac1609_4 	totalBusyTime 	0
scalar IntersectionExampleScenario.node[23].veinsmobility 	startTime 	85.75
scalar IntersectionExampleScenario.node[23].veinsmobility 	totalTime 	61
scalar IntersectionExampleScenario.node[23].veinsmobility 	stopTime 	147
scalar IntersectionExampleScenario.node[23].veinsmobility 	minSpeed 	0
scalar IntersectionExampleScenario.node[23].veinsmobility 	maxSpeed 	16.27499961853
scalar IntersectionExampleScenario.node[23].veinsmobility 	totalDistance 	548.09852708926
scalar IntersectionExampleScenario.node[23].veinsmobility 	totalCO2Emission 	158.2196343211
scalar IntersectionExampleScenario.node[24].appl 	VehicleRemoved 	0
scalar IntersectionExampleScenario.node[24].appl 	ArrivedAtDest 	1
scalar IntersectionExampleScenario.node[24].appl 	IntersectionEnterTime 	86.5
scalar IntersectionExampleScenario.node[24].appl 	IntersectionExitTime 	132.2503587906
scalar IntersectionExampleScenario.node[24].appl 	NumberOfCollisions 	0
scalar IntersectionExampleScenario.node[24].nic.phy80211p 	busyTime 	0
scalar IntersectionExampleScenario.node[24].nic.mac1609_4 	ReceivedUnicastPackets 	0
scalar IntersectionExampleScenario.node[24].nic.mac1609_4 	ReceivedBroadcasts 	0
scalar IntersectionExampleScenario.node[24].nic.mac1609_4 	SentPackets 	0
scalar IntersectionExampleScenario.node[24].nic.mac1609_4 	SNIRLostPackets 	0
scalar IntersectionExampleScenario.node[24].nic.mac1609_4 	RXTXLostPackets 	0
scalar IntersectionExampleScenario.node[24].nic.mac1609_4 	TotalLostPackets 	0
scalar IntersectionExampleScenario.node[24].nic.mac1609_4 	DroppedPacketsInMac 	0
scalar IntersectionExampleScenario.node[24].nic.mac1609_4 	TooLittleTime 	0
scalar IntersectionExampleScenario.node[24].nic.mac1609_4 	TimesIntoBackoff 	0
scalar IntersectionExampleScenario.node[24].nic.mac1609_4 	SlotsBackoff 	0
scalar IntersectionExampleScenario.node[24].nic.mac1609_4 	NumInternalContention 	0
scalar IntersectionExampleScenario.node[24].nic.mac1609_4 	totalBusyTime 	0
scalar IntersectionExampleScenario.node[24].veinsmobility 	startTime 	86.5
scalar IntersectionExampleScenario.node[24].veinsmobility 	totalTime 	62.25
scalar IntersectionExampleScenario.node[24].veinsmobility 	stopTime 	149
scalar IntersectionExampleScenario.node[24].veinsmobility 	minSpeed 	0
scalar IntersectionExampleScenario.node[24].veinsmobility 	maxSpeed 	15.474139213562
scalar IntersectionExampleScenario.node[24].veinsmobility 	totalDistance 	576.8775100708
scalar IntersectionExampleScenario.node[24].veinsmobility 	totalCO2Emission 	155.43465268384
scalar IntersectionExampleScenario.node[29].appl 	VehicleRemoved 	0
scalar IntersectionExampleScenario.node[29].appl 	ArrivedAtDest 	1
scalar IntersectionExampleScenario.node[29].appl 	IntersectionEnterTime 	97.25
scalar IntersectionExampleScenario.node[29].appl 	IntersectionExitTime 	134.83894059461
scalar IntersectionExampleScenario.node[29].appl 	NumberOfCollisions 	0
scalar IntersectionExampleScenario.node[29].nic.phy80211p 	busyTime 	0
scalar IntersectionExampleScenario.node[29].nic.mac1609_4 	ReceivedUnicastPackets 	0
scalar IntersectionExampleScenario.node[29].nic.mac1609_4 	ReceivedBroadcasts 	0
scalar IntersectionExampleScenario.node[29].nic.mac1609_4 	SentPackets 	0
scalar IntersectionExampleScenario.node[29].nic.mac1609_4 	SNIRLostPackets 	0
scalar IntersectionExampleScenario.node[29].nic.mac1609_4 	RXTXLostPackets 	0
scalar IntersectionExampleScenario.node[29].nic.mac1609_4 	TotalLostPackets 	0
scalar IntersectionExampleScenario.node[29].nic.mac1609_4 	DroppedPacketsInMac 	0
scalar IntersectionExampleScenario.node[29].nic.mac1609_4 	TooLittleTime 	0
scalar IntersectionExampleScenario.node[29].nic.mac1609_4 	TimesIntoBackoff 	0
scalar IntersectionExampleScenario.node[29].nic.mac1609_4 	SlotsBackoff 	0
scalar IntersectionExampleScenario.node[29].nic.mac1609_4 	NumInternalContention 	0
scalar IntersectionExampleScenario.node[29].nic.mac1609_4 	totalBusyTime 	0
scalar IntersectionExampleScenario.node[29].veinsmobility 	startTime 	97.25
scalar IntersectionExampleScenario.node[29].veinsmobility 	totalTime 	54.75
scalar IntersectionExampleScenario.node[29].veinsmobility 	stopTime 	152.25
scalar IntersectionExampleScenario.node[29].veinsmobility 	minSpeed 	0
scalar IntersectionExampleScenario.node[29].veinsmobility 	maxSpeed 	15.25
scalar IntersectionExampleScenario.node[29].veinsmobility 	totalDistance 	545.8869801582
scalar IntersectionExampleScenario.node[29].veinsmobility 	totalCO2Emission 	139.46554168114
scalar IntersectionExampleScenario.node[31].appl 	VehicleRemoved 	0
scalar IntersectionExampleScenario.node[31].appl 	ArrivedAtDest 	1
scalar IntersectionExampleScenario.node[31].appl 	IntersectionEnterTime 	117.25
scalar IntersectionExampleScenario.node[31].appl 	IntersectionExitTime 	140.52896980793
scalar IntersectionExampleScenario.node[31].appl 	NumberOfCollisions 	0
scalar IntersectionExampleScenario.node[31].nic.phy80211p 	busyTime 	0
scalar IntersectionExampleScenario.node[31].nic.mac1609_4 	ReceivedUnicastPackets 	0
scalar IntersectionExampleScenario.node[31].nic.mac1609_4 	ReceivedBroadcasts 	0
scalar IntersectionExampleScenario.node[31].nic.mac1609_4 	SentPackets 	0
scalar IntersectionExampleScenario.node[31].nic.mac1609_4 	SNIRLostPackets 	0
scalar IntersectionExampleScenario.node[31].nic.mac1609_4 	RXTXLostPackets 	0
scalar IntersectionExampleScenario.node[31].nic.mac1609_4 	TotalLostPackets 	0
scalar IntersectionExampleScenario.node[31].nic.mac1609_4 	DroppedPacketsInMac 	0
scalar IntersectionExampleScenario.node[31].nic.mac1609_4 	TooLittleTime 	0
scalar IntersectionExampleScenario.node[31].nic.mac1609_4 	TimesIntoBackoff 	0
scalar IntersectionExampleScenario.node[31].nic.mac1609_4 	SlotsBackoff 	0
scalar IntersectionExampleScenario.node[31].nic.mac1609_4 	NumInternalContention 	0
scalar IntersectionExampleScenario.node[31].nic.mac1609_4 	totalBusyTime 	0
scalar IntersectionExampleScenario.node[31].veinsmobility 	startTime 	117.25
scalar IntersectionExampleScenario.node[31].veinsmobility 	totalTime 	40
scalar IntersectionExampleScenario.node[31].veinsmobility 	stopTime 	157.5
scalar IntersectionExampleScenario.node[31].veinsmobility 	minSpeed 	5.6500000953674
scalar IntersectionExampleScenario.node[31].veinsmobility 	maxSpeed 	15.875
scalar IntersectionExampleScenario.node[31].veinsmobility 	totalDistance 	545.62880204242
scalar IntersectionExampleScenario.node[31].veinsmobility 	totalCO2Emission 	127.12384671915
scalar IntersectionExampleScenario.node[32].appl 	VehicleRemoved 	0
scalar IntersectionExampleScenario.node[32].appl 	ArrivedAtDest 	1
scalar IntersectionExampleScenario.node[32].appl 	IntersectionEnterTime 	119.25
scalar IntersectionExampleScenario.node[32].appl 	IntersectionExitTime 	143.01144455504
scalar IntersectionExampleScenario.node[32].appl 	NumberOfCollisions 	0
scalar IntersectionExampleScenario.node[32].nic.phy80211p 	busyTime 	0
scalar IntersectionExampleScenario.node[32].nic.mac1609_4 	ReceivedUnicastPackets 	0
scalar IntersectionExampleScenario.node[32].nic.mac1609_4 	ReceivedBroadcasts 	0
scalar IntersectionExampleScenario.node[32].nic.mac1609_4 	SentPackets 	0
scalar IntersectionExampleScenario.node[32].nic.mac1609_4 	SNIRLostPackets 	0
scalar IntersectionExampleScenario.node[32].nic.mac1609_4 	RXTXLostPackets 	0
scalar IntersectionExampleScenario.node[32].nic.mac1609_4 	TotalLostPackets 	0
scalar IntersectionExampleScenario.node[32].nic.mac1609_4 	DroppedPacketsInMac 	0
scalar IntersectionExampleScenario.node[32].nic.mac1609_4 	TooLittleTime 	0
scalar IntersectionExampleScenario.node[32].nic.mac1609_4 	TimesIntoBackoff 	0
scalar IntersectionExampleScenario.node[32].nic.mac1609_4 	SlotsBackoff 	0
scalar IntersectionExampleScenario.node[32].nic.mac1609_4 	NumInternalContention 	0
scalar IntersectionExampleScenario.node[32].nic.mac1609_4 	totalBusyTime 	0
scalar IntersectionExampleScenario.node[32].veinsmobility 	startTime 	119.25
scalar IntersectionExampleScenario.node[32].veinsmobility 	totalTime 	40.25
scalar IntersectionExampleScenario.node[32].veinsmobility 	stopTime 	159.75
scalar IntersectionExampleScenario.node[32].veinsmobility 	minSpeed 	5.6500000953674
scalar IntersectionExampleScenario.node[32].veinsmobility 	maxSpeed 	15.125464439392
scalar IntersectionExampleScenario.node[32].veinsmobility 	totalDistance 	549.47755011733
scalar IntersectionExampleScenario.node[32].veinsmobility 	totalCO2Emission 	120.36163106683
scalar IntersectionExampleScenario.node[28].appl 	VehicleRemoved 	0
scalar IntersectionExampleScenario.node[28].appl 	ArrivedAtDest 	1
scalar IntersectionExampleScenario.node[28].appl 	IntersectionEnterTime 	96
scalar IntersectionExampleScenario.node[28].appl 	IntersectionExitTime 	144.2582500217
scalar IntersectionExampleScenario.node[28].appl 	NumberOfCollisions 	0
scalar IntersectionExampleScenario.node[28].nic.phy80211p 	busyTime 	0
scalar IntersectionExampleScenario.node[28].nic.mac1609_4 	ReceivedUnicastPackets 	0
scalar IntersectionExampleScenario.node[28].nic.mac1609_4 	ReceivedBroadcasts 	0
scalar IntersectionExampleScenario.node[28].nic.mac1609_4 	SentPackets 	0
scalar IntersectionExampleScenario.node[28].nic.mac1609_4 	SNIRLostPackets 	0
scalar IntersectionExampleScenario.node[28].nic.mac1609_4 	RXTXLostPackets 	0
scalar IntersectionExampleScenario.node[28].nic.mac1609_4 	TotalLostPackets 	0
scalar IntersectionExampleScenario.node[28].nic.mac1609_4 	DroppedPacketsInMac 	0
scalar IntersectionExampleScenario.node[28].nic.mac1609_4 	TooLittleTime 	0
scalar IntersectionExampleScenario.node[28].nic.mac1609_4 	TimesIntoBackoff 	0
scalar IntersectionExampleScenario.node[28].nic.mac1609_4 	SlotsBackoff 	0
scalar IntersectionExampleScenario.node[28].nic.mac1609_4 	NumInternalContention 	0
scalar IntersectionExampleScenario.node[28].nic.mac1609_4 	totalBusyTime 	0
scalar IntersectionExampleScenario.node[28].veinsmobility 	startTime 	96
scalar IntersectionExampleScenario.node[28].veinsmobility 	totalTime 	65.25
scalar IntersectionExampleScenario.node[28].veinsmobility 	stopTime 	161.5
scalar IntersectionExampleScenario.node[28].veinsmobility 	minSpeed 	0
scalar IntersectionExampleScenario.node[28].veinsmobility 	maxSpeed 	14.75
scalar IntersectionExampleScenario.node[28].veinsmobility 	totalDistance 	533.42424120059
scalar IntersectionExampleScenario.node[28].veinsmobility 	totalCO2Emission 	147.93928206698
scalar IntersectionExampleScenario.node[27].appl 	VehicleRemoved 	0
scalar IntersectionExampleScenario.node[27].appl 	ArrivedAtDest 	1
scalar IntersectionExampleScenario.node[27].appl 	IntersectionEnterTime 	95.5
scalar IntersectionExampleScenario.node[27].appl 	IntersectionExitTime 	145.52154256383
scalar IntersectionExampleScenario.node[27].appl 	NumberOfCollisions 	0
scalar IntersectionExampleScenario.node[27].nic.phy80211p 	busyTime 	0
scalar IntersectionExampleScenario.node[27].nic.mac1609_4 	ReceivedUnicastPackets 	0
scalar IntersectionExampleScenario.node[27].nic.mac1609_4 	ReceivedBroadcasts 	0
scalar IntersectionExampleScenario.node[27].nic.mac1609_4 	SentPackets 	0
scalar IntersectionExampleScenario.node[27].nic.mac1609_4 	SNIRLostPackets 	0
scalar IntersectionExampleScenario.node[27].nic.mac1609_4 	RXTXLostPackets 	0
scalar IntersectionExampleScenario.node[27].nic.mac1609_4 	TotalLostPackets 	0
scalar IntersectionExampleScenario.node[27].nic.mac1609_4 	DroppedPacketsInMac 	0
scalar IntersectionExampleScenario.node[27].nic.mac1609_4 	TooLittleTime 	0
scalar IntersectionExampleScenario.node[27].nic.mac1609_4 	TimesIntoBackoff 	0
scalar IntersectionExampleScenario.node[27].nic.mac1609_4 	SlotsBackoff 	0
scalar IntersectionExampleScenario.node[27].nic.mac1609_4 	NumInternalContention 	0
scalar IntersectionExampleScenario.node[27].nic.mac1609_4 	totalBusyTime 	0
scalar IntersectionExampleScenario.node[27].veinsmobility 	startTime 	95.5
scalar IntersectionExampleScenario.node[27].veinsmobility 	totalTime 	66.25
scalar IntersectionExampleScenario.node[27].veinsmobility 	stopTime 	162
scalar IntersectionExampleScenario.node[27].veinsmobility 	minSpeed 	0
scalar IntersectionExampleScenario.node[27].veinsmobility 	maxSpeed 	15.130292892456
scalar IntersectionExampleScenario.node[27].veinsmobility 	totalDistance 	560.6834564209
scalar IntersectionExampleScenario.node[27].veinsmobility 	totalCO2Emission 	158.0095342079
scalar IntersectionExampleScenario.node[30].appl 	VehicleRemoved 	0
scalar IntersectionExampleScenario.node[30].appl 	ArrivedAtDest 	1
scalar IntersectionExampleScenario.node[30].appl 	IntersectionEnterTime 	117.25
scalar IntersectionExampleScenario.node[30].appl 	IntersectionExitTime 	154.51342066354
scalar IntersectionExampleScenario.node[30].appl 	NumberOfCollisions 	0
scalar IntersectionExampleScenario.node[30].nic.phy80211p 	busyTime 	0
scalar IntersectionExampleScenario.node[30].nic.mac1609_4 	ReceivedUnicastPackets 	0
scalar IntersectionExampleScenario.node[30].nic.mac1609_4 	ReceivedBroadcasts 	0
scalar IntersectionExampleScenario.node[30].nic.mac1609_4 	SentPackets 	0
scalar IntersectionExampleScenario.node[30].nic.mac1609_4 	SNIRLostPackets 	0
scalar IntersectionExampleScenario.node[30].nic.mac1609_4 	RXTXLostPackets 	0
scalar IntersectionExampleScenario.node[30].nic.mac1609_4 	TotalLostPackets 	0
scalar IntersectionExampleScenario.node[30].nic.mac1609_4 	DroppedPacketsInMac 	0
scalar IntersectionExampleScenario.node[30].nic.mac1609_4 	TooLittleTime 	0
scalar IntersectionExampleScenario.node[30].nic.mac1609_4 	TimesIntoBackoff 	0
scalar IntersectionExampleScenario.node[30].nic.mac1609_4 	SlotsBackoff 	0
scalar IntersectionExampleScenario.node[30].nic.mac1609_4 	NumInternalContention 	0
scalar IntersectionExampleScenario.node[30].nic.mac1609_4 	totalBusyTime 	0
scalar IntersectionExampleScenario.node[30].veinsmobility 	startTime 	117.25
scalar IntersectionExampleScenario.node[30].veinsmobility 	totalTime 	53.75
scalar IntersectionExampleScenario.node[30].veinsmobility 	stopTime 	171.25
scalar IntersectionExampleScenario.node[30].veinsmobility 	minSpeed 	0
scalar IntersectionExampleScenario.node[30].veinsmobility 	maxSpeed 	15.875
scalar IntersectionExampleScenario.node[30].veinsmobility 	totalDistance 	545.84717465789
scalar IntersectionExampleScenario.node[30].veinsmobility 	totalCO2Emission 	148.75798147963
scalar IntersectionExampleScenario.node[33].appl 	VehicleRemoved 	0
scalar IntersectionExampleScenario.node[33].appl 	ArrivedAtDest 	1
scalar IntersectionExampleScenario.node[33].appl 	IntersectionEnterTime 	122
scalar IntersectionExampleScenario.node[33].appl 	IntersectionExitTime 	157.10162437145
scalar IntersectionExampleScenario.node[33].appl 	NumberOfCollisions 	0
scalar IntersectionExampleScenario.node[33].nic.phy80211p 	busyTime 	0
scalar IntersectionExampleScenario.node[33].nic.mac1609_4 	ReceivedUnicastPackets 	0
scalar IntersectionExampleScenario.node[33].nic.mac1609_4 	ReceivedBroadcasts 	0
scalar IntersectionExampleScenario.node[33].nic.mac1609_4 	SentPackets 	0
scalar IntersectionExampleScenario.node[33].nic.mac1609_4 	SNIRLostPackets 	0
scalar IntersectionExampleScenario.node[33].nic.mac1609_4 	RXTXLostPackets 	0
scalar IntersectionExampleScenario.node[33].nic.mac1609_4 	TotalLostPackets 	0
scalar IntersectionExampleScenario.node[33].nic.mac1609_4 	DroppedPacketsInMac 	0
scalar IntersectionExampleScenario.node[33].nic.mac1609_4 	TooLittleTime 	0
scalar IntersectionExampleScenario.node[33].nic.mac1609_4 	TimesIntoBackoff 	0
scalar IntersectionExampleScenario.node[33].nic.mac1609_4 	SlotsBackoff 	0
scalar IntersectionExampleScenario.node[33].nic.mac1609_4 	NumInternalContention 	0
scalar IntersectionExampleScenario.node[33].nic.mac1609_4 	totalBusyTime 	0
scalar IntersectionExampleScenario.node[33].veinsmobility 	startTime 	122
scalar IntersectionExampleScenario.node[33].veinsmobility 	totalTime 	52
scalar IntersectionExampleScenario.node[33].veinsmobility 	stopTime 	174.25
scalar IntersectionExampleScenario.node[33].veinsmobility 	minSpeed 	0
scalar IntersectionExampleScenario.node[33].veinsmobility 	maxSpeed 	15.25
scalar IntersectionExampleScenario.node[33].veinsmobility 	totalDistance 	546.56624250029
scalar IntersectionExampleScenario.node[33].veinsmobility 	totalCO2Emission 	139.43336472212
scalar IntersectionExampleScenario.node[34].appl 	VehicleRemoved 	0
scalar IntersectionExampleScenario.node[34].appl 	ArrivedAtDest 	1
scalar IntersectionExampleScenario.node[34].appl 	IntersectionEnterTime 	124
scalar IntersectionExampleScenario.node[34].appl 	IntersectionExitTime 	158.80336372796
scalar IntersectionExampleScenario.node[34].appl 	NumberOfCollisions 	0
scalar IntersectionExampleScenario.node[34].nic.phy80211p 	busyTime 	0
scalar IntersectionExampleScenario.node[34].nic.mac1609_4 	ReceivedUnicastPackets 	0
scalar IntersectionExampleScenario.node[34].nic.mac1609_4 	ReceivedBroadcasts 	0
scalar IntersectionExampleScenario.node[34].nic.mac1609_4 	SentPackets 	0
scalar IntersectionExampleScenario.node[34].nic.mac1609_4 	SNIRLostPackets 	0
scalar IntersectionExampleScenario.node[34].nic.mac1609_4 	RXTXLostPackets 	0
scalar IntersectionExampleScenario.node[34].nic.mac1609_4 	TotalLostPackets 	0
scalar IntersectionExampleScenario.node[34].nic.mac1609_4 	DroppedPacketsInMac 	0
scalar IntersectionExampleScenario.node[34].nic.mac1609_4 	TooLittleTime 	0
scalar IntersectionExampleScenario.node[34].nic.mac1609_4 	TimesIntoBackoff 	0
scalar IntersectionExampleScenario.node[34].nic.mac1609_4 	SlotsBackoff 	0
scalar IntersectionExampleScenario.node[34].nic.mac1609_4 	NumInternalContention 	0
scalar IntersectionExampleScenario.node[34].nic.mac1609_4 	totalBusyTime 	0
scalar IntersectionExampleScenario.node[34].veinsmobility 	startTime 	124
scalar IntersectionExampleScenario.node[34].veinsmobility 	totalTime 	50.5
scalar IntersectionExampleScenario.node[34].veinsmobility 	stopTime 	174.75
scalar IntersectionExampleScenario.node[34].veinsmobility 	minSpeed 	2.1434662342072
scalar IntersectionExampleScenario.node[34].veinsmobility 	maxSpeed 	16.125
scalar IntersectionExampleScenario.node[34].veinsmobility 	totalDistance 	572.21751403809
scalar IntersectionExampleScenario.node[34].veinsmobility 	totalCO2Emission 	146.57545206466
scalar IntersectionExampleScenario.node[35].appl 	VehicleRemoved 	0
scalar IntersectionExampleScenario.node[35].appl 	ArrivedAtDest 	1
scalar IntersectionExampleScenario.node[35].appl 	IntersectionEnterTime 	128.25
scalar IntersectionExampleScenario.node[35].appl 	IntersectionExitTime 	165.79523805619
scalar IntersectionExampleScenario.node[35].appl 	NumberOfCollisions 	0
scalar IntersectionExampleScenario.node[35].nic.phy80211p 	busyTime 	0
scalar IntersectionExampleScenario.node[35].nic.mac1609_4 	ReceivedUnicastPackets 	0
scalar IntersectionExampleScenario.node[35].nic.mac1609_4 	ReceivedBroadcasts 	0
scalar IntersectionExampleScenario.node[35].nic.mac1609_4 	SentPackets 	0
scalar IntersectionExampleScenario.node[35].nic.mac1609_4 	SNIRLostPackets 	0
scalar IntersectionExampleScenario.node[35].nic.mac1609_4 	RXTXLostPackets 	0
scalar IntersectionExampleScenario.node[35].nic.mac1609_4 	TotalLostPackets 	0
scalar IntersectionExampleScenario.node[35].nic.mac1609_4 	DroppedPacketsInMac 	0
scalar IntersectionExampleScenario.node[35].nic.mac1609_4 	TooLittleTime 	0
scalar IntersectionExampleScenario.node[35].nic.mac1609_4 	TimesIntoBackoff 	0
scalar IntersectionExampleScenario.node[35].nic.mac1609_4 	SlotsBackoff 	0
scalar IntersectionExampleScenario.node[35].nic.mac1609_4 	NumInternalContention 	0
scalar IntersectionExampleScenario.node[35].nic.mac1609_4 	totalBusyTime 	0
scalar IntersectionExampleScenario.node[35].veinsmobility 	startTime 	128.25
scalar IntersectionExampleScenario.node[35].veinsmobility 	totalTime 	53.25
scalar IntersectionExampleScenario.node[35].veinsmobility 	stopTime 	181.75
scalar IntersectionExampleScenario.node[35].veinsmobility 	minSpeed 	0
scalar IntersectionExampleScenario.node[35].veinsmobility 	maxSpeed 	16.27499961853
scalar IntersectionExampleScenario.node[35].veinsmobility 	totalDistance 	552.05103426408
scalar IntersectionExampleScenario.node[35].veinsmobility 	totalCO2Emission 	151.17100083453
scalar IntersectionExampleScenario.node[36].appl 	VehicleRemoved 	0
scalar IntersectionExampleScenario.node[36].appl 	ArrivedAtDest 	1
scalar IntersectionExampleScenario.node[36].appl 	IntersectionEnterTime 	131.25
scalar IntersectionExampleScenario.node[36].appl 	IntersectionExitTime 	167.34774480783
scalar IntersectionExampleScenario.node[36].appl 	NumberOfCollisions 	0
scalar IntersectionExampleScenario.node[36].nic.phy80211p 	busyTime 	0
scalar IntersectionExampleScenario.node[36].nic.mac1609_4 	ReceivedUnicastPackets 	0
scalar IntersectionExampleScenario.node[36].nic.mac1609_4 	ReceivedBroadcasts 	0
scalar IntersectionExampleScenario.node[36].nic.mac1609_4 	SentPackets 	0
scalar IntersectionExampleScenario.node[36].nic.mac1609_4 	SNIRLostPackets 	0
scalar IntersectionExampleScenario.node[36].nic.mac1609_4 	RXTXLostPackets 	0
scalar IntersectionExampleScenario.node[36].nic.mac1609_4 	TotalLostPackets 	0
scalar IntersectionExampleScenario.node[36].nic.mac1609_4 	DroppedPacketsInMac 	0
scalar IntersectionExampleScenario.node[36].nic.mac1609_4 	TooLittleTime 	0
scalar IntersectionExampleScenario.node[36].nic.mac1609_4 	TimesIntoBackoff 	0
scalar IntersectionExampleScenario.node[36].nic.mac1609_4 	SlotsBackoff 	0
scalar IntersectionExampleScenario.node[36].nic.mac1609_4 	NumInternalContention 	0
scalar IntersectionExampleScenario.node[36].nic.mac1609_4 	totalBusyTime 	0
scalar IntersectionExampleScenario.node[36].veinsmobility 	startTime 	131.25
scalar IntersectionExampleScenario.node[36].veinsmobility 	totalTime 	51.25
scalar IntersectionExampleScenario.node[36].veinsmobility 	stopTime 	182.75
scalar IntersectionExampleScenario.node[36].veinsmobility 	minSpeed 	0
scalar IntersectionExampleScenario.node[36].veinsmobility 	maxSpeed 	16.27499961853
scalar IntersectionExampleScenario.node[36].veinsmobility 	totalDistance 	564.72044372559
scalar IntersectionExampleScenario.node[36].veinsmobility 	totalCO2Emission 	151.16468829092
scalar IntersectionExampleScenario.node[37].appl 	VehicleRemoved 	0
scalar IntersectionExampleScenario.node[37].appl 	ArrivedAtDest 	1
scalar IntersectionExampleScenario.node[37].appl 	IntersectionEnterTime 	136
scalar IntersectionExampleScenario.node[37].appl 	IntersectionExitTime 	169.0162212016
scalar IntersectionExampleScenario.node[37].appl 	NumberOfCollisions 	0
scalar IntersectionExampleScenario.node[37].nic.phy80211p 	busyTime 	0
scalar IntersectionExampleScenario.node[37].nic.mac1609_4 	ReceivedUnicastPackets 	0
scalar IntersectionExampleScenario.node[37].nic.mac1609_4 	ReceivedBroadcasts 	0
scalar IntersectionExampleScenario.node[37].nic.mac1609_4 	SentPackets 	0
scalar IntersectionExampleScenario.node[37].nic.mac1609_4 	SNIRLostPackets 	0
scalar IntersectionExampleScenario.node[37].nic.mac1609_4 	RXTXLostPackets 	0
scalar IntersectionExampleScenario.node[37].nic.mac1609_4 	TotalLostPackets 	0
scalar IntersectionExampleScenario.node[37].nic.mac1609_4 	DroppedPacketsInMac 	0
scalar IntersectionExampleScenario.node[37].nic.mac1609_4 	TooLittleTime 	0
scalar IntersectionExampleScenario.node[37].nic.mac1609_4 	TimesIntoBackoff 	0
scalar IntersectionExampleScenario.node[37].nic.mac1609_4 	SlotsBackoff 	0
scalar IntersectionExampleScenario.node[37].nic.mac1609_4 	NumInternalContention 	0
scalar IntersectionExampleScenario.node[37].nic.mac1609_4 	totalBusyTime 	0
scalar IntersectionExampleScenario.node[37].veinsmobility 	startTime 	136
scalar IntersectionExampleScenario.node[37].veinsmobility 	totalTime 	49.5
scalar IntersectionExampleScenario.node[37].veinsmobility 	stopTime 	185.75
scalar IntersectionExampleScenario.node[37].veinsmobility 	minSpeed 	1.8892517089844
scalar IntersectionExampleScenario.node[37].veinsmobility 	maxSpeed 	15.875
scalar IntersectionExampleScenario.node[37].veinsmobility 	totalDistance 	549.97562218287
scalar IntersectionExampleScenario.node[37].veinsmobility 	totalCO2Emission 	140.71223547027
scalar IntersectionExampleScenario.node[38].appl 	VehicleRemoved 	0
scalar IntersectionExampleScenario.node[38].appl 	ArrivedAtDest 	1
scalar IntersectionExampleScenario.node[38].appl 	IntersectionEnterTime 	149.25
scalar IntersectionExampleScenario.node[38].appl 	IntersectionExitTime 	172.75924612474
scalar IntersectionExampleScenario.node[38].appl 	NumberOfCollisions 	0
scalar IntersectionExampleScenario.node[38].nic.phy80211p 	busyTime 	0
scalar IntersectionExampleScenario.node[38].nic.mac1609_4 	ReceivedUnicastPackets 	0
scalar IntersectionExampleScenario.node[38].nic.mac1609_4 	ReceivedBroadcasts 	0
scalar IntersectionExampleScenario.node[38].nic.mac1609_4 	SentPackets 	0
scalar IntersectionExampleScenario.node[38].nic.mac1609_4 	SNIRLostPackets 	0
scalar IntersectionExampleScenario.node[38].nic.mac1609_4 	RXTXLostPackets 	0
scalar IntersectionExampleScenario.node[38].nic.mac1609_4 	TotalLostPackets 	0
scalar IntersectionExampleScenario.node[38].nic.mac1609_4 	DroppedPacketsInMac 	0
scalar IntersectionExampleScenario.node[38].nic.mac1609_4 	TooLittleTime 	0
scalar IntersectionExampleScenario.node[38].nic.mac1609_4 	TimesIntoBackoff 	0
scalar IntersectionExampleScenario.node[38].nic.mac1609_4 	SlotsBackoff 	0
scalar IntersectionExampleScenario.node[38].nic.mac1609_4 	NumInternalContention 	0
scalar IntersectionExampleScenario.node[38].nic.mac1609_4 	totalBusyTime 	0
scalar IntersectionExampleScenario.node[38].veinsmobility 	startTime 	149.25
scalar IntersectionExampleScenario.node[38].veinsmobility 	totalTime 	40
scalar IntersectionExampleScenario.node[38].veinsmobility 	stopTime 	189.5
scalar IntersectionExampleScenario.node[38].veinsmobility 	minSpeed 	5.6500000953674
scalar IntersectionExampleScenario.node[38].veinsmobility 	maxSpeed 	15.64999961853
scalar IntersectionExampleScenario.node[38].veinsmobility 	totalDistance 	552.6606655009
scalar IntersectionExampleScenario.node[38].veinsmobility 	totalCO2Emission 	131.98592343694
scalar IntersectionExampleScenario.node[40].appl 	VehicleRemoved 	0
scalar IntersectionExampleScenario.node[40].appl 	ArrivedAtDest 	1
scalar IntersectionExampleScenario.node[40].appl 	IntersectionEnterTime 	151.5
scalar IntersectionExampleScenario.node[40].appl 	IntersectionExitTime 	174.81172121415
scalar IntersectionExampleScenario.node[40].appl 	NumberOfCollisions 	0
scalar IntersectionExampleScenario.node[40].nic.phy80211p 	busyTime 	0
scalar IntersectionExampleScenario.node[40].nic.mac1609_4 	ReceivedUnicastPackets 	0
scalar IntersectionExampleScenario.node[40].nic.mac1609_4 	ReceivedBroadcasts 	0
scalar IntersectionExampleScenario.node[40].nic.mac1609_4 	SentPackets 	0
scalar IntersectionExampleScenario.node[40].nic.mac1609_4 	SNIRLostPackets 	0
scalar IntersectionExampleScenario.node[40].nic.mac1609_4 	RXTXLostPackets 	0
scalar IntersectionExampleScenario.node[40].nic.mac1609_4 	TotalLostPackets 	0
scalar IntersectionExampleScenario.node[40].nic.mac1609_4 	DroppedPacketsInMac 	0
scalar IntersectionExampleScenario.node[40].nic.mac1609_4 	TooLittleTime 	0
scalar IntersectionExampleScenario.node[40].nic.mac1609_4 	TimesIntoBackoff 	0
scalar IntersectionExampleScenario.node[40].nic.mac1609_4 	SlotsBackoff 	0
[...]
scalar IntersectionExampleScenario.node[457].veinsmobility 	totalDistance 	483.5846786499
scalar IntersectionExampleScenario.node[457].veinsmobility 	totalCO2Emission 	113.41690113095
scalar IntersectionExampleScenario.node[458].appl 	VehicleRemoved 	0
scalar IntersectionExampleScenario.node[458].appl 	ArrivedAtDest 	0
scalar IntersectionExampleScenario.node[458].appl 	IntersectionEnterTime 	1765.75
scalar IntersectionExampleScenario.node[458].appl 	IntersectionExitTime 	1792.3285822576
scalar IntersectionExampleScenario.node[458].appl 	NumberOfCollisions 	0
scalar IntersectionExampleScenario.node[458].nic.phy80211p 	busyTime 	0
scalar IntersectionExampleScenario.node[458].nic.mac1609_4 	ReceivedUnicastPackets 	0
scalar IntersectionExampleScenario.node[458].nic.mac1609_4 	ReceivedBroadcasts 	0
scalar IntersectionExampleScenario.node[458].nic.mac1609_4 	SentPackets 	0
scalar IntersectionExampleScenario.node[458].nic.mac1609_4 	SNIRLostPackets 	0
scalar IntersectionExampleScenario.node[458].nic.mac1609_4 	RXTXLostPackets 	0
scalar IntersectionExampleScenario.node[458].nic.mac1609_4 	TotalLostPackets 	0
scalar IntersectionExampleScenario.node[458].nic.mac1609_4 	DroppedPacketsInMac 	0
scalar IntersectionExampleScenario.node[458].nic.mac1609_4 	TooLittleTime 	0
scalar IntersectionExampleScenario.node[458].nic.mac1609_4 	TimesIntoBackoff 	0
scalar IntersectionExampleScenario.node[458].nic.mac1609_4 	SlotsBackoff 	0
scalar IntersectionExampleScenario.node[458].nic.mac1609_4 	NumInternalContention 	0
scalar IntersectionExampleScenario.node[458].nic.mac1609_4 	totalBusyTime 	0
scalar IntersectionExampleScenario.node[458].veinsmobility 	startTime 	1765.75
scalar IntersectionExampleScenario.node[458].veinsmobility 	totalTime 	34.25
scalar IntersectionExampleScenario.node[458].veinsmobility 	stopTime 	1800
scalar IntersectionExampleScenario.node[458].veinsmobility 	minSpeed 	5.6500000953674
scalar IntersectionExampleScenario.node[458].veinsmobility 	maxSpeed 	16
scalar IntersectionExampleScenario.node[458].veinsmobility 	totalDistance 	450.62226254804
scalar IntersectionExampleScenario.node[458].veinsmobility 	totalCO2Emission 	125.69151467636
scalar IntersectionExampleScenario.node[459].appl 	VehicleRemoved 	0
scalar IntersectionExampleScenario.node[459].appl 	ArrivedAtDest 	0
scalar IntersectionExampleScenario.node[459].appl 	IntersectionEnterTime 	1767
scalar IntersectionExampleScenario.node[459].appl 	IntersectionExitTime 	-1
scalar IntersectionExampleScenario.node[459].appl 	NumberOfCollisions 	0
scalar IntersectionExampleScenario.node[459].nic.phy80211p 	busyTime 	0
scalar IntersectionExampleScenario.node[459].nic.mac1609_4 	ReceivedUnicastPackets 	0
scalar IntersectionExampleScenario.node[459].nic.mac1609_4 	ReceivedBroadcasts 	0
scalar IntersectionExampleScenario.node[459].nic.mac1609_4 	SentPackets 	0
scalar IntersectionExampleScenario.node[459].nic.mac1609_4 	SNIRLostPackets 	0
scalar IntersectionExampleScenario.node[459].nic.mac1609_4 	RXTXLostPackets 	0
scalar IntersectionExampleScenario.node[459].nic.mac1609_4 	TotalLostPackets 	0
scalar IntersectionExampleScenario.node[459].nic.mac1609_4 	DroppedPacketsInMac 	0
scalar IntersectionExampleScenario.node[459].nic.mac1609_4 	TooLittleTime 	0
scalar IntersectionExampleScenario.node[459].nic.mac1609_4 	TimesIntoBackoff 	0
scalar IntersectionExampleScenario.node[459].nic.mac1609_4 	SlotsBackoff 	0
scalar IntersectionExampleScenario.node[459].nic.mac1609_4 	NumInternalContention 	0
scalar IntersectionExampleScenario.node[459].nic.mac1609_4 	totalBusyTime 	0
scalar IntersectionExampleScenario.node[459].veinsmobility 	startTime 	1767
scalar IntersectionExampleScenario.node[459].veinsmobility 	totalTime 	33
scalar IntersectionExampleScenario.node[459].veinsmobility 	stopTime 	1800
scalar IntersectionExampleScenario.node[459].veinsmobility 	minSpeed 	0
scalar IntersectionExampleScenario.node[459].veinsmobility 	maxSpeed 	16.27499961853
scalar IntersectionExampleScenario.node[459].veinsmobility 	totalDistance 	287.42188262939
scalar IntersectionExampleScenario.node[459].veinsmobility 	totalCO2Emission 	79.194894012786
scalar IntersectionExampleScenario.node[460].appl 	VehicleRemoved 	0
scalar IntersectionExampleScenario.node[460].appl 	ArrivedAtDest 	0
scalar IntersectionExampleScenario.node[460].appl 	IntersectionEnterTime 	1768.25
scalar IntersectionExampleScenario.node[460].appl 	IntersectionExitTime 	-1
scalar IntersectionExampleScenario.node[460].appl 	NumberOfCollisions 	0
scalar IntersectionExampleScenario.node[460].nic.phy80211p 	busyTime 	0
scalar IntersectionExampleScenario.node[460].nic.mac1609_4 	ReceivedUnicastPackets 	0
scalar IntersectionExampleScenario.node[460].nic.mac1609_4 	ReceivedBroadcasts 	0
scalar IntersectionExampleScenario.node[460].nic.mac1609_4 	SentPackets 	0
scalar IntersectionExampleScenario.node[460].nic.mac1609_4 	SNIRLostPackets 	0
scalar IntersectionExampleScenario.node[460].nic.mac1609_4 	RXTXLostPackets 	0
scalar IntersectionExampleScenario.node[460].nic.mac1609_4 	TotalLostPackets 	0
scalar IntersectionExampleScenario.node[460].nic.mac1609_4 	DroppedPacketsInMac 	0
scalar IntersectionExampleScenario.node[460].nic.mac1609_4 	TooLittleTime 	0
scalar IntersectionExampleScenario.node[460].nic.mac1609_4 	TimesIntoBackoff 	0
scalar IntersectionExampleScenario.node[460].nic.mac1609_4 	SlotsBackoff 	0
scalar IntersectionExampleScenario.node[460].nic.mac1609_4 	NumInternalContention 	0
scalar IntersectionExampleScenario.node[460].nic.mac1609_4 	totalBusyTime 	0
scalar IntersectionExampleScenario.node[460].veinsmobility 	startTime 	1768.25
scalar IntersectionExampleScenario.node[460].veinsmobility 	totalTime 	31.75
scalar IntersectionExampleScenario.node[460].veinsmobility 	stopTime 	1800
scalar IntersectionExampleScenario.node[460].veinsmobility 	minSpeed 	1.1250709295273
scalar IntersectionExampleScenario.node[460].veinsmobility 	maxSpeed 	15.02499961853
scalar IntersectionExampleScenario.node[460].veinsmobility 	totalDistance 	289.90966607317
scalar IntersectionExampleScenario.node[460].veinsmobility 	totalCO2Emission 	76.457566969493
scalar IntersectionExampleScenario.node[461].appl 	VehicleRemoved 	0
scalar IntersectionExampleScenario.node[461].appl 	ArrivedAtDest 	0
scalar IntersectionExampleScenario.node[461].appl 	IntersectionEnterTime 	1775
scalar IntersectionExampleScenario.node[461].appl 	IntersectionExitTime 	-1
scalar IntersectionExampleScenario.node[461].appl 	NumberOfCollisions 	0
scalar IntersectionExampleScenario.node[461].nic.phy80211p 	busyTime 	0
scalar IntersectionExampleScenario.node[461].nic.mac1609_4 	ReceivedUnicastPackets 	0
scalar IntersectionExampleScenario.node[461].nic.mac1609_4 	ReceivedBroadcasts 	0
scalar IntersectionExampleScenario.node[461].nic.mac1609_4 	SentPackets 	0
scalar IntersectionExampleScenario.node[461].nic.mac1609_4 	SNIRLostPackets 	0
scalar IntersectionExampleScenario.node[461].nic.mac1609_4 	RXTXLostPackets 	0
scalar IntersectionExampleScenario.node[461].nic.mac1609_4 	TotalLostPackets 	0
scalar IntersectionExampleScenario.node[461].nic.mac1609_4 	DroppedPacketsInMac 	0
scalar IntersectionExampleScenario.node[461].nic.mac1609_4 	TooLittleTime 	0
scalar IntersectionExampleScenario.node[461].nic.mac1609_4 	TimesIntoBackoff 	0
scalar IntersectionExampleScenario.node[461].nic.mac1609_4 	SlotsBackoff 	0
scalar IntersectionExampleScenario.node[461].nic.mac1609_4 	NumInternalContention 	0
scalar IntersectionExampleScenario.node[461].nic.mac1609_4 	totalBusyTime 	0
scalar IntersectionExampleScenario.node[461].veinsmobility 	startTime 	1775
scalar IntersectionExampleScenario.node[461].veinsmobility 	totalTime 	25
scalar IntersectionExampleScenario.node[461].veinsmobility 	stopTime 	1800
scalar IntersectionExampleScenario.node[461].veinsmobility 	minSpeed 	0
scalar IntersectionExampleScenario.node[461].veinsmobility 	maxSpeed 	14.39999961853
scalar IntersectionExampleScenario.node[461].veinsmobility 	totalDistance 	287.42190551758
scalar IntersectionExampleScenario.node[461].veinsmobility 	totalCO2Emission 	64.506043307626
scalar IntersectionExampleScenario.node[462].appl 	VehicleRemoved 	0
scalar IntersectionExampleScenario.node[462].appl 	ArrivedAtDest 	0
scalar IntersectionExampleScenario.node[462].appl 	IntersectionEnterTime 	1775.25
scalar IntersectionExampleScenario.node[462].appl 	IntersectionExitTime 	-1
scalar IntersectionExampleScenario.node[462].appl 	NumberOfCollisions 	0
scalar IntersectionExampleScenario.node[462].nic.phy80211p 	busyTime 	0
scalar IntersectionExampleScenario.node[462].nic.mac1609_4 	ReceivedUnicastPackets 	0
scalar IntersectionExampleScenario.node[462].nic.mac1609_4 	ReceivedBroadcasts 	0
scalar IntersectionExampleScenario.node[462].nic.mac1609_4 	SentPackets 	0
scalar IntersectionExampleScenario.node[462].nic.mac1609_4 	SNIRLostPackets 	0
scalar IntersectionExampleScenario.node[462].nic.mac1609_4 	RXTXLostPackets 	0
scalar IntersectionExampleScenario.node[462].nic.mac1609_4 	TotalLostPackets 	0
scalar IntersectionExampleScenario.node[462].nic.mac1609_4 	DroppedPacketsInMac 	0
scalar IntersectionExampleScenario.node[462].nic.mac1609_4 	TooLittleTime 	0
scalar IntersectionExampleScenario.node[462].nic.mac1609_4 	TimesIntoBackoff 	0
scalar IntersectionExampleScenario.node[462].nic.mac1609_4 	SlotsBackoff 	0
scalar IntersectionExampleScenario.node[462].nic.mac1609_4 	NumInternalContention 	0
scalar IntersectionExampleScenario.node[462].nic.mac1609_4 	totalBusyTime 	0
scalar IntersectionExampleScenario.node[462].veinsmobility 	startTime 	1775.25
scalar IntersectionExampleScenario.node[462].veinsmobility 	totalTime 	24.75
scalar IntersectionExampleScenario.node[462].veinsmobility 	stopTime 	1800
scalar IntersectionExampleScenario.node[462].veinsmobility 	minSpeed 	5.4313688278198
scalar IntersectionExampleScenario.node[462].veinsmobility 	maxSpeed 	15.02499961853
scalar IntersectionExampleScenario.node[462].veinsmobility 	totalDistance 	272.05551147461
scalar IntersectionExampleScenario.node[462].veinsmobility 	totalCO2Emission 	70.566738844233
scalar IntersectionExampleScenario.node[463].appl 	VehicleRemoved 	0
scalar IntersectionExampleScenario.node[463].appl 	ArrivedAtDest 	0
scalar IntersectionExampleScenario.node[463].appl 	IntersectionEnterTime 	1779.25
scalar IntersectionExampleScenario.node[463].appl 	IntersectionExitTime 	-1
scalar IntersectionExampleScenario.node[463].appl 	NumberOfCollisions 	0
scalar IntersectionExampleScenario.node[463].nic.phy80211p 	busyTime 	0
scalar IntersectionExampleScenario.node[463].nic.mac1609_4 	ReceivedUnicastPackets 	0
scalar IntersectionExampleScenario.node[463].nic.mac1609_4 	ReceivedBroadcasts 	0
scalar IntersectionExampleScenario.node[463].nic.mac1609_4 	SentPackets 	0
scalar IntersectionExampleScenario.node[463].nic.mac1609_4 	SNIRLostPackets 	0
scalar IntersectionExampleScenario.node[463].nic.mac1609_4 	RXTXLostPackets 	0
scalar IntersectionExampleScenario.node[463].nic.mac1609_4 	TotalLostPackets 	0
scalar IntersectionExampleScenario.node[463].nic.mac1609_4 	DroppedPacketsInMac 	0
scalar IntersectionExampleScenario.node[463].nic.mac1609_4 	TooLittleTime 	0
scalar IntersectionExampleScenario.node[463].nic.mac1609_4 	TimesIntoBackoff 	0
scalar IntersectionExampleScenario.node[463].nic.mac1609_4 	SlotsBackoff 	0
scalar IntersectionExampleScenario.node[463].nic.mac1609_4 	NumInternalContention 	0
scalar IntersectionExampleScenario.node[463].nic.mac1609_4 	totalBusyTime 	0
scalar IntersectionExampleScenario.node[463].veinsmobility 	startTime 	1779.25
scalar IntersectionExampleScenario.node[463].veinsmobility 	totalTime 	20.75
scalar IntersectionExampleScenario.node[463].veinsmobility 	stopTime 	1800
scalar IntersectionExampleScenario.node[463].veinsmobility 	minSpeed 	5.3013386726379
scalar IntersectionExampleScenario.node[463].veinsmobility 	maxSpeed 	15.64999961853
scalar IntersectionExampleScenario.node[463].veinsmobility 	totalDistance 	257.39273834229
scalar IntersectionExampleScenario.node[463].veinsmobility 	totalCO2Emission 	60.298154950416
scalar IntersectionExampleScenario.node[464].appl 	VehicleRemoved 	0
scalar IntersectionExampleScenario.node[464].appl 	ArrivedAtDest 	0
scalar IntersectionExampleScenario.node[464].appl 	IntersectionEnterTime 	1789.25
scalar IntersectionExampleScenario.node[464].appl 	IntersectionExitTime 	-1
scalar IntersectionExampleScenario.node[464].appl 	NumberOfCollisions 	0
scalar IntersectionExampleScenario.node[464].nic.phy80211p 	busyTime 	0
scalar IntersectionExampleScenario.node[464].nic.mac1609_4 	ReceivedUnicastPackets 	0
scalar IntersectionExampleScenario.node[464].nic.mac1609_4 	ReceivedBroadcasts 	0
scalar IntersectionExampleScenario.node[464].nic.mac1609_4 	SentPackets 	0
scalar IntersectionExampleScenario.node[464].nic.mac1609_4 	SNIRLostPackets 	0
scalar IntersectionExampleScenario.node[464].nic.mac1609_4 	RXTXLostPackets 	0
scalar IntersectionExampleScenario.node[464].nic.mac1609_4 	TotalLostPackets 	0
scalar IntersectionExampleScenario.node[464].nic.mac1609_4 	DroppedPacketsInMac 	0
scalar IntersectionExampleScenario.node[464].nic.mac1609_4 	TooLittleTime 	0
scalar IntersectionExampleScenario.node[464].nic.mac1609_4 	TimesIntoBackoff 	0
scalar IntersectionExampleScenario.node[464].nic.mac1609_4 	SlotsBackoff 	0
scalar IntersectionExampleScenario.node[464].nic.mac1609_4 	NumInternalContention 	0
scalar IntersectionExampleScenario.node[464].nic.mac1609_4 	totalBusyTime 	0
scalar IntersectionExampleScenario.node[464].veinsmobility 	startTime 	1789.25
scalar IntersectionExampleScenario.node[464].veinsmobility 	totalTime 	10.75
scalar IntersectionExampleScenario.node[464].veinsmobility 	stopTime 	1800
scalar IntersectionExampleScenario.node[464].veinsmobility 	minSpeed 	5.6500000953674
scalar IntersectionExampleScenario.node[464].veinsmobility 	maxSpeed 	16.27499961853
scalar IntersectionExampleScenario.node[464].veinsmobility 	totalDistance 	149.31410980225
scalar IntersectionExampleScenario.node[464].veinsmobility 	totalCO2Emission 	50.30156892727
scalar IntersectionExampleScenario.node[465].appl 	VehicleRemoved 	0
scalar IntersectionExampleScenario.node[465].appl 	ArrivedAtDest 	0
scalar IntersectionExampleScenario.node[465].appl 	IntersectionEnterTime 	1794.25
scalar IntersectionExampleScenario.node[465].appl 	IntersectionExitTime 	-1
scalar IntersectionExampleScenario.node[465].appl 	NumberOfCollisions 	0
scalar IntersectionExampleScenario.node[465].nic.phy80211p 	busyTime 	0
scalar IntersectionExampleScenario.node[465].nic.mac1609_4 	ReceivedUnicastPackets 	0
scalar IntersectionExampleScenario.node[465].nic.mac1609_4 	ReceivedBroadcasts 	0
scalar IntersectionExampleScenario.node[465].nic.mac1609_4 	SentPackets 	0
scalar IntersectionExampleScenario.node[465].nic.mac1609_4 	SNIRLostPackets 	0
scalar IntersectionExampleScenario.node[465].nic.mac1609_4 	RXTXLostPackets 	0
scalar IntersectionExampleScenario.node[465].nic.mac1609_4 	TotalLostPackets 	0
scalar IntersectionExampleScenario.node[465].nic.mac1609_4 	DroppedPacketsInMac 	0
scalar IntersectionExampleScenario.node[465].nic.mac1609_4 	TooLittleTime 	0
scalar IntersectionExampleScenario.node[465].nic.mac1609_4 	TimesIntoBackoff 	0
scalar IntersectionExampleScenario.node[465].nic.mac1609_4 	SlotsBackoff 	0
scalar IntersectionExampleScenario.node[465].nic.mac1609_4 	NumInternalContention 	0
scalar IntersectionExampleScenario.node[465].nic.mac1609_4 	totalBusyTime 	0
scalar IntersectionExampleScenario.node[465].veinsmobility 	startTime 	1794.25
scalar IntersectionExampleScenario.node[465].veinsmobility 	totalTime 	5.75
scalar IntersectionExampleScenario.node[465].veinsmobility 	stopTime 	1800
scalar IntersectionExampleScenario.node[465].veinsmobility 	minSpeed 	5.6500000953674
scalar IntersectionExampleScenario.node[465].veinsmobility 	maxSpeed 	16.27499961853
scalar IntersectionExampleScenario.node[465].veinsmobility 	totalDistance 	68.171081542969
scalar IntersectionExampleScenario.node[465].veinsmobility 	totalCO2Emission 	38.613056146131
scalar IntersectionExampleScenario.node[466].appl 	VehicleRemoved 	0
scalar IntersectionExampleScenario.node[466].appl 	ArrivedAtDest 	0
scalar IntersectionExampleScenario.node[466].appl 	IntersectionEnterTime 	1797.25
scalar IntersectionExampleScenario.node[466].appl 	IntersectionExitTime 	-1
scalar IntersectionExampleScenario.node[466].appl 	NumberOfCollisions 	0
scalar IntersectionExampleScenario.node[466].nic.phy80211p 	busyTime 	0
scalar IntersectionExampleScenario.node[466].nic.mac1609_4 	ReceivedUnicastPackets 	0
scalar IntersectionExampleScenario.node[466].nic.mac1609_4 	ReceivedBroadcasts 	0
scalar IntersectionExampleScenario.node[466].nic.mac1609_4 	SentPackets 	0
scalar IntersectionExampleScenario.node[466].nic.mac1609_4 	SNIRLostPackets 	0
scalar IntersectionExampleScenario.node[466].nic.mac1609_4 	RXTXLostPackets 	0
scalar IntersectionExampleScenario.node[466].nic.mac1609_4 	TotalLostPackets 	0
scalar IntersectionExampleScenario.node[466].nic.mac1609_4 	DroppedPacketsInMac 	0
scalar IntersectionExampleScenario.node[466].nic.mac1609_4 	TooLittleTime 	0
scalar IntersectionExampleScenario.node[466].nic.mac1609_4 	TimesIntoBackoff 	0
scalar IntersectionExampleScenario.node[466].nic.mac1609_4 	SlotsBackoff 	0
scalar IntersectionExampleScenario.node[466].nic.mac1609_4 	NumInternalContention 	0
scalar IntersectionExampleScenario.node[466].nic.mac1609_4 	totalBusyTime 	0
scalar IntersectionExampleScenario.node[466].veinsmobility 	startTime 	1797.25
scalar IntersectionExampleScenario.node[466].veinsmobility 	totalTime 	2.75
scalar IntersectionExampleScenario.node[466].veinsmobility 	stopTime 	1800
scalar IntersectionExampleScenario.node[466].veinsmobility 	minSpeed 	5.6500000953674
scalar IntersectionExampleScenario.node[466].veinsmobility 	maxSpeed 	11.89999961853
scalar IntersectionExampleScenario.node[466].veinsmobility 	totalDistance 	23.271865844727
scalar IntersectionExampleScenario.node[466].veinsmobility 	totalCO2Emission 	17.752607434053
scalar IntersectionExampleScenario.node[467].appl 	VehicleRemoved 	0
scalar IntersectionExampleScenario.node[467].appl 	ArrivedAtDest 	0
scalar IntersectionExampleScenario.node[467].appl 	IntersectionEnterTime 	1798.75
scalar IntersectionExampleScenario.node[467].appl 	IntersectionExitTime 	-1
scalar IntersectionExampleScenario.node[467].appl 	NumberOfCollisions 	0
scalar IntersectionExampleScenario.node[467].nic.phy80211p 	busyTime 	0
scalar IntersectionExampleScenario.node[467].nic.mac1609_4 	ReceivedUnicastPackets 	0
scalar IntersectionExampleScenario.node[467].nic.mac1609_4 	ReceivedBroadcasts 	0
scalar IntersectionExampleScenario.node[467].nic.mac1609_4 	SentPackets 	0
scalar IntersectionExampleScenario.node[467].nic.mac1609_4 	SNIRLostPackets 	0
scalar IntersectionExampleScenario.node[467].nic.mac1609_4 	RXTXLostPackets 	0
scalar IntersectionExampleScenario.node[467].nic.mac1609_4 	TotalLostPackets 	0
scalar IntersectionExampleScenario.node[467].nic.mac1609_4 	DroppedPacketsInMac 	0
scalar IntersectionExampleScenario.node[467].nic.mac1609_4 	TooLittleTime 	0
scalar IntersectionExampleScenario.node[467].nic.mac1609_4 	TimesIntoBackoff 	0
scalar IntersectionExampleScenario.node[467].nic.mac1609_4 	SlotsBackoff 	0
scalar IntersectionExampleScenario.node[467].nic.mac1609_4 	NumInternalContention 	0
scalar IntersectionExampleScenario.node[467].nic.mac1609_4 	totalBusyTime 	0
scalar IntersectionExampleScenario.node[467].veinsmobility 	startTime 	1798.75
scalar IntersectionExampleScenario.node[467].veinsmobility 	totalTime 	1.25
scalar IntersectionExampleScenario.node[467].veinsmobility 	stopTime 	1800
scalar IntersectionExampleScenario.node[467].veinsmobility 	minSpeed 	5.6500000953674
scalar IntersectionExampleScenario.node[467].veinsmobility 	maxSpeed 	8.1499996185303
scalar IntersectionExampleScenario.node[467].veinsmobility 	totalDistance 	8.234375
scalar IntersectionExampleScenario.node[467].veinsmobility 	totalCO2Emission 	5.8390974258108
