version 2
run nodebug-37-20200606-18:56:31-22420
attr configname nodebug
attr datetime 20200606-18:56:31
attr experiment nodebug
attr inifile omnetpp.ini
attr iterationvars ""
attr iterationvars2 $repetition=37
attr measurement ""
attr network "\"org.car2x.veins.modules.application.ExtTraCIScenarioManagerLaunchd.IntersectionExampleScenario\""
attr processid 22420
attr repetition 37
attr replication #37
attr resultdir results
attr runnumber 37
attr seedset 37
param **.coreDebug false
param **.debug false
param *.**.nic.mac1609_4.bitrate 18Mbps
param *.**.nic.mac1609_4.txPower 20mW
param *.**.nic.mac1609_4.useServiceChannel false
param *.**.nic.phy80211p.analogueModels "xmldoc(\"config.xml\")"
param *.**.nic.phy80211p.decider "xmldoc(\"config.xml\")"
param *.**.nic.phy80211p.sensitivity -89dBm
param *.**.nic.phy80211p.thermalNoise -110dBm
param *.**.nic.phy80211p.usePropagationDelay true
param *.**.nic.phy80211p.useThermalNoise true
param *.annotations.draw false
param *.connectionManager.alpha 2.0
param *.connectionManager.carrierFrequency "5.890e9 Hz"
param *.connectionManager.pMax 20mW
param *.connectionManager.sat -89dBm
param *.connectionManager.sendDirect true
param *.manager.autoShutdown true
param *.manager.host "\"localhost\""
param *.manager.launchConfig "xmldoc(\"paramics.launchd.xml\")"
param *.manager.margin 25
param *.manager.moduleDisplayString "\"\""
param *.manager.moduleName "\"node\""
param *.manager.moduleType "\"org.car2x.veins.nodes.Car\""
param *.manager.port 9999
param *.manager.updateInterval 250ms
param *.node[*0].veinsmobility.accidentCount 0
param *.node[*0].veinsmobility.accidentDuration 30s
param *.node[*0].veinsmobility.accidentStart 75s
param *.node[*].appl.LiderSelectZoneRadio 55.0
param *.node[*].appl.ShareDataZoneRadio 110.0
param *.node[*].appl.TiempoSemaforo 30.0
param *.node[*].appl.beaconInterval 1s
param *.node[*].appl.beaconPriority 3
param *.node[*].appl.dataOnSch false
param *.node[*].appl.dataPriority 2
param *.node[*].appl.debug false
param *.node[*].appl.headerLength "256 bit"
param *.node[*].appl.maxOffset 0.005s
param *.node[*].appl.sendBeacons false
param *.node[*].appl.sendData true
param *.node[*].applType "\"Dummy\""
param *.node[*].mobilityType "\"TraCIMobility\""
param *.node[*].mobilityType.debug true
param *.node[*].veinsmobility.x 0
param *.node[*].veinsmobility.y 0
param *.node[*].veinsmobility.z 1.895
param *.node[*].veinsmobilityType "\"org.car2x.veins.modules.mobility.traci.TraCIMobility\""
param *.node[*].veinsmobilityType.debug true
param *.playgroundSizeX 8500m
param *.playgroundSizeY 8500m
param *.playgroundSizeZ 50m
param *.world.use2D false
param *.world.useTorus false

scalar IntersectionExampleScenario.node[1].appl 	VehicleRemoved 	0
scalar IntersectionExampleScenario.node[1].appl 	ArrivedAtDest 	1
scalar IntersectionExampleScenario.node[1].appl 	IntersectionEnterTime 	6.25
scalar IntersectionExampleScenario.node[1].appl 	IntersectionExitTime 	39.34318447081
scalar IntersectionExampleScenario.node[1].appl 	NumberOfCollisions 	0
scalar IntersectionExampleScenario.node[1].nic.phy80211p 	busyTime 	0
scalar IntersectionExampleScenario.node[1].nic.mac1609_4 	ReceivedUnicastPackets 	0
scalar IntersectionExampleScenario.node[1].nic.mac1609_4 	ReceivedBroadcasts 	0
scalar IntersectionExampleScenario.node[1].nic.mac1609_4 	SentPackets 	0
scalar IntersectionExampleScenario.node[1].nic.mac1609_4 	SNIRLostPackets 	0
scalar IntersectionExampleScenario.node[1].nic.mac1609_4 	RXTXLostPackets 	0
scalar IntersectionExampleScenario.node[1].nic.mac1609_4 	TotalLostPackets 	0
scalar IntersectionExampleScenario.node[1].nic.mac1609_4 	DroppedPacketsInMac 	0
scalar IntersectionExampleScenario.node[1].nic.mac1609_4 	TooLittleTime 	0
scalar IntersectionExampleScenario.node[1].nic.mac1609_4 	TimesIntoBackoff 	0
scalar IntersectionExampleScenario.node[1].nic.mac1609_4 	SlotsBackoff 	0
scalar IntersectionExampleScenario.node[1].nic.mac1609_4 	NumInternalContention 	0
scalar IntersectionExampleScenario.node[1].nic.mac1609_4 	totalBusyTime 	0
scalar IntersectionExampleScenario.node[1].veinsmobility 	startTime 	6.25
scalar IntersectionExampleScenario.node[1].veinsmobility 	totalTime 	49
scalar IntersectionExampleScenario.node[1].veinsmobility 	stopTime 	55.5
scalar IntersectionExampleScenario.node[1].veinsmobility 	minSpeed 	0
scalar IntersectionExampleScenario.node[1].veinsmobility 	maxSpeed 	15.64999961853
scalar IntersectionExampleScenario.node[1].veinsmobility 	totalDistance 	551.0603953754
scalar IntersectionExampleScenario.node[1].veinsmobility 	totalCO2Emission 	142.49812241704
scalar IntersectionExampleScenario.node[2].appl 	VehicleRemoved 	0
scalar IntersectionExampleScenario.node[2].appl 	ArrivedAtDest 	1
scalar IntersectionExampleScenario.node[2].appl 	IntersectionEnterTime 	9.5
scalar IntersectionExampleScenario.node[2].appl 	IntersectionExitTime 	41.328425074345
scalar IntersectionExampleScenario.node[2].appl 	NumberOfCollisions 	0
scalar IntersectionExampleScenario.node[2].nic.phy80211p 	busyTime 	0
scalar IntersectionExampleScenario.node[2].nic.mac1609_4 	ReceivedUnicastPackets 	0
scalar IntersectionExampleScenario.node[2].nic.mac1609_4 	ReceivedBroadcasts 	0
scalar IntersectionExampleScenario.node[2].nic.mac1609_4 	SentPackets 	0
scalar IntersectionExampleScenario.node[2].nic.mac1609_4 	SNIRLostPackets 	0
scalar IntersectionExampleScenario.node[2].nic.mac1609_4 	RXTXLostPackets 	0
scalar IntersectionExampleScenario.node[2].nic.mac1609_4 	TotalLostPackets 	0
scalar IntersectionExampleScenario.node[2].nic.mac1609_4 	DroppedPacketsInMac 	0
scalar IntersectionExampleScenario.node[2].nic.mac1609_4 	TooLittleTime 	0
scalar IntersectionExampleScenario.node[2].nic.mac1609_4 	TimesIntoBackoff 	0
scalar IntersectionExampleScenario.node[2].nic.mac1609_4 	SlotsBackoff 	0
scalar IntersectionExampleScenario.node[2].nic.mac1609_4 	NumInternalContention 	0
scalar IntersectionExampleScenario.node[2].nic.mac1609_4 	totalBusyTime 	0
scalar IntersectionExampleScenario.node[2].veinsmobility 	startTime 	9.5
scalar IntersectionExampleScenario.node[2].veinsmobility 	totalTime 	48
scalar IntersectionExampleScenario.node[2].veinsmobility 	stopTime 	57.75
scalar IntersectionExampleScenario.node[2].veinsmobility 	minSpeed 	0
scalar IntersectionExampleScenario.node[2].veinsmobility 	maxSpeed 	15.64999961853
scalar IntersectionExampleScenario.node[2].veinsmobility 	totalDistance 	560.89045017769
scalar IntersectionExampleScenario.node[2].veinsmobility 	totalCO2Emission 	139.74480091836
scalar IntersectionExampleScenario.node[3].appl 	VehicleRemoved 	0
scalar IntersectionExampleScenario.node[3].appl 	ArrivedAtDest 	1
scalar IntersectionExampleScenario.node[3].appl 	IntersectionEnterTime 	13
scalar IntersectionExampleScenario.node[3].appl 	IntersectionExitTime 	43.274600536184
scalar IntersectionExampleScenario.node[3].appl 	NumberOfCollisions 	0
scalar IntersectionExampleScenario.node[3].nic.phy80211p 	busyTime 	0
scalar IntersectionExampleScenario.node[3].nic.mac1609_4 	ReceivedUnicastPackets 	0
scalar IntersectionExampleScenario.node[3].nic.mac1609_4 	ReceivedBroadcasts 	0
scalar IntersectionExampleScenario.node[3].nic.mac1609_4 	SentPackets 	0
scalar IntersectionExampleScenario.node[3].nic.mac1609_4 	SNIRLostPackets 	0
scalar IntersectionExampleScenario.node[3].nic.mac1609_4 	RXTXLostPackets 	0
scalar IntersectionExampleScenario.node[3].nic.mac1609_4 	TotalLostPackets 	0
scalar IntersectionExampleScenario.node[3].nic.mac1609_4 	DroppedPacketsInMac 	0
scalar IntersectionExampleScenario.node[3].nic.mac1609_4 	TooLittleTime 	0
scalar IntersectionExampleScenario.node[3].nic.mac1609_4 	TimesIntoBackoff 	0
scalar IntersectionExampleScenario.node[3].nic.mac1609_4 	SlotsBackoff 	0
scalar IntersectionExampleScenario.node[3].nic.mac1609_4 	NumInternalContention 	0
scalar IntersectionExampleScenario.node[3].nic.mac1609_4 	totalBusyTime 	0
scalar IntersectionExampleScenario.node[3].veinsmobility 	startTime 	13
scalar IntersectionExampleScenario.node[3].veinsmobility 	totalTime 	46.75
scalar IntersectionExampleScenario.node[3].veinsmobility 	stopTime 	60
scalar IntersectionExampleScenario.node[3].veinsmobility 	minSpeed 	4.2450485229492
scalar IntersectionExampleScenario.node[3].veinsmobility 	maxSpeed 	15.875
scalar IntersectionExampleScenario.node[3].veinsmobility 	totalDistance 	558.15195023947
scalar IntersectionExampleScenario.node[3].veinsmobility 	totalCO2Emission 	141.63577487452
scalar IntersectionExampleScenario.node[4].appl 	VehicleRemoved 	0
scalar IntersectionExampleScenario.node[4].appl 	ArrivedAtDest 	1
scalar IntersectionExampleScenario.node[4].appl 	IntersectionEnterTime 	17.75
scalar IntersectionExampleScenario.node[4].appl 	IntersectionExitTime 	45.366157752345
scalar IntersectionExampleScenario.node[4].appl 	NumberOfCollisions 	0
scalar IntersectionExampleScenario.node[4].nic.phy80211p 	busyTime 	0
scalar IntersectionExampleScenario.node[4].nic.mac1609_4 	ReceivedUnicastPackets 	0
scalar IntersectionExampleScenario.node[4].nic.mac1609_4 	ReceivedBroadcasts 	0
scalar IntersectionExampleScenario.node[4].nic.mac1609_4 	SentPackets 	0
scalar IntersectionExampleScenario.node[4].nic.mac1609_4 	SNIRLostPackets 	0
scalar IntersectionExampleScenario.node[4].nic.mac1609_4 	RXTXLostPackets 	0
scalar IntersectionExampleScenario.node[4].nic.mac1609_4 	TotalLostPackets 	0
scalar IntersectionExampleScenario.node[4].nic.mac1609_4 	DroppedPacketsInMac 	0
scalar IntersectionExampleScenario.node[4].nic.mac1609_4 	TooLittleTime 	0
scalar IntersectionExampleScenario.node[4].nic.mac1609_4 	TimesIntoBackoff 	0
scalar IntersectionExampleScenario.node[4].nic.mac1609_4 	SlotsBackoff 	0
scalar IntersectionExampleScenario.node[4].nic.mac1609_4 	NumInternalContention 	0
scalar IntersectionExampleScenario.node[4].nic.mac1609_4 	totalBusyTime 	0
scalar IntersectionExampleScenario.node[4].veinsmobility 	startTime 	17.75
scalar IntersectionExampleScenario.node[4].veinsmobility 	totalTime 	43.5
scalar IntersectionExampleScenario.node[4].veinsmobility 	stopTime 	61.5
scalar IntersectionExampleScenario.node[4].veinsmobility 	minSpeed 	5.6467909812927
scalar IntersectionExampleScenario.node[4].veinsmobility 	maxSpeed 	15.72198009491
scalar IntersectionExampleScenario.node[4].veinsmobility 	totalDistance 	558.5898825176
scalar IntersectionExampleScenario.node[4].veinsmobility 	totalCO2Emission 	140.34065916892
scalar IntersectionExampleScenario.node[5].appl 	VehicleRemoved 	0
scalar IntersectionExampleScenario.node[5].appl 	ArrivedAtDest 	1
scalar IntersectionExampleScenario.node[5].appl 	IntersectionEnterTime 	21.75
scalar IntersectionExampleScenario.node[5].appl 	IntersectionExitTime 	47.545590594615
scalar IntersectionExampleScenario.node[5].appl 	NumberOfCollisions 	0
scalar IntersectionExampleScenario.node[5].nic.phy80211p 	busyTime 	0
scalar IntersectionExampleScenario.node[5].nic.mac1609_4 	ReceivedUnicastPackets 	0
scalar IntersectionExampleScenario.node[5].nic.mac1609_4 	ReceivedBroadcasts 	0
scalar IntersectionExampleScenario.node[5].nic.mac1609_4 	SentPackets 	0
scalar IntersectionExampleScenario.node[5].nic.mac1609_4 	SNIRLostPackets 	0
scalar IntersectionExampleScenario.node[5].nic.mac1609_4 	RXTXLostPackets 	0
scalar IntersectionExampleScenario.node[5].nic.mac1609_4 	TotalLostPackets 	0
scalar IntersectionExampleScenario.node[5].nic.mac1609_4 	DroppedPacketsInMac 	0
scalar IntersectionExampleScenario.node[5].nic.mac1609_4 	TooLittleTime 	0
scalar IntersectionExampleScenario.node[5].nic.mac1609_4 	TimesIntoBackoff 	0
scalar IntersectionExampleScenario.node[5].nic.mac1609_4 	SlotsBackoff 	0
scalar IntersectionExampleScenario.node[5].nic.mac1609_4 	NumInternalContention 	0
scalar IntersectionExampleScenario.node[5].nic.mac1609_4 	totalBusyTime 	0
scalar IntersectionExampleScenario.node[5].veinsmobility 	startTime 	21.75
scalar IntersectionExampleScenario.node[5].veinsmobility 	totalTime 	42.25
scalar IntersectionExampleScenario.node[5].veinsmobility 	stopTime 	64.25
scalar IntersectionExampleScenario.node[5].veinsmobility 	minSpeed 	5.6500000953674
scalar IntersectionExampleScenario.node[5].veinsmobility 	maxSpeed 	15.64999961853
scalar IntersectionExampleScenario.node[5].veinsmobility 	totalDistance 	562.87151067773
scalar IntersectionExampleScenario.node[5].veinsmobility 	totalCO2Emission 	124.57199062554
scalar IntersectionExampleScenario.node[0].appl 	VehicleRemoved 	0
scalar IntersectionExampleScenario.node[0].appl 	ArrivedAtDest 	1
scalar IntersectionExampleScenario.node[0].appl 	IntersectionEnterTime 	2
scalar IntersectionExampleScenario.node[0].appl 	IntersectionExitTime 	50.322736859962
scalar IntersectionExampleScenario.node[0].appl 	NumberOfCollisions 	0
scalar IntersectionExampleScenario.node[0].nic.phy80211p 	busyTime 	0
scalar IntersectionExampleScenario.node[0].nic.mac1609_4 	ReceivedUnicastPackets 	0
scalar IntersectionExampleScenario.node[0].nic.mac1609_4 	ReceivedBroadcasts 	0
scalar IntersectionExampleScenario.node[0].nic.mac1609_4 	SentPackets 	0
scalar IntersectionExampleScenario.node[0].nic.mac1609_4 	SNIRLostPackets 	0
scalar IntersectionExampleScenario.node[0].nic.mac1609_4 	RXTXLostPackets 	0
scalar IntersectionExampleScenario.node[0].nic.mac1609_4 	TotalLostPackets 	0
scalar IntersectionExampleScenario.node[0].nic.mac1609_4 	DroppedPacketsInMac 	0
scalar IntersectionExampleScenario.node[0].nic.mac1609_4 	TooLittleTime 	0
scalar IntersectionExampleScenario.node[0].nic.mac1609_4 	TimesIntoBackoff 	0
scalar IntersectionExampleScenario.node[0].nic.mac1609_4 	SlotsBackoff 	0
scalar IntersectionExampleScenario.node[0].nic.mac1609_4 	NumInternalContention 	0
scalar IntersectionExampleScenario.node[0].nic.mac1609_4 	totalBusyTime 	0
scalar IntersectionExampleScenario.node[0].veinsmobility 	startTime 	2
scalar IntersectionExampleScenario.node[0].veinsmobility 	totalTime 	64
scalar IntersectionExampleScenario.node[0].veinsmobility 	stopTime 	66.25
scalar IntersectionExampleScenario.node[0].veinsmobility 	minSpeed 	0
scalar IntersectionExampleScenario.node[0].veinsmobility 	maxSpeed 	15.64999961853
scalar IntersectionExampleScenario.node[0].veinsmobility 	totalDistance 	548.94223894229
scalar IntersectionExampleScenario.node[0].veinsmobility 	totalCO2Emission 	159.03700813421
scalar IntersectionExampleScenario.node[7].appl 	VehicleRemoved 	0
scalar IntersectionExampleScenario.node[7].appl 	ArrivedAtDest 	1
scalar IntersectionExampleScenario.node[7].appl 	IntersectionEnterTime 	32.75
scalar IntersectionExampleScenario.node[7].appl 	IntersectionExitTime 	56.024857566576
scalar IntersectionExampleScenario.node[7].appl 	NumberOfCollisions 	0
scalar IntersectionExampleScenario.node[7].nic.phy80211p 	busyTime 	0
scalar IntersectionExampleScenario.node[7].nic.mac1609_4 	ReceivedUnicastPackets 	0
scalar IntersectionExampleScenario.node[7].nic.mac1609_4 	ReceivedBroadcasts 	0
scalar IntersectionExampleScenario.node[7].nic.mac1609_4 	SentPackets 	0
scalar IntersectionExampleScenario.node[7].nic.mac1609_4 	SNIRLostPackets 	0
scalar IntersectionExampleScenario.node[7].nic.mac1609_4 	RXTXLostPackets 	0
scalar IntersectionExampleScenario.node[7].nic.mac1609_4 	TotalLostPackets 	0
scalar IntersectionExampleScenario.node[7].nic.mac1609_4 	DroppedPacketsInMac 	0
scalar IntersectionExampleScenario.node[7].nic.mac1609_4 	TooLittleTime 	0
scalar IntersectionExampleScenario.node[7].nic.mac1609_4 	TimesIntoBackoff 	0
scalar IntersectionExampleScenario.node[7].nic.mac1609_4 	SlotsBackoff 	0
scalar IntersectionExampleScenario.node[7].nic.mac1609_4 	NumInternalContention 	0
scalar IntersectionExampleScenario.node[7].nic.mac1609_4 	totalBusyTime 	0
scalar IntersectionExampleScenario.node[7].veinsmobility 	startTime 	32.75
scalar IntersectionExampleScenario.node[7].veinsmobility 	totalTime 	39.5
scalar IntersectionExampleScenario.node[7].veinsmobility 	stopTime 	72.5
scalar IntersectionExampleScenario.node[7].veinsmobility 	minSpeed 	5.6500000953674
scalar IntersectionExampleScenario.node[7].veinsmobility 	maxSpeed 	15.64999961853
scalar IntersectionExampleScenario.node[7].veinsmobility 	totalDistance 	550.74519148263
scalar IntersectionExampleScenario.node[7].veinsmobility 	totalCO2Emission 	122.88181662431
scalar IntersectionExampleScenario.node[6].appl 	VehicleRemoved 	0
scalar IntersectionExampleScenario.node[6].appl 	ArrivedAtDest 	1
scalar IntersectionExampleScenario.node[6].appl 	IntersectionEnterTime 	32.5
scalar IntersectionExampleScenario.node[6].appl 	IntersectionExitTime 	61.309802484349
scalar IntersectionExampleScenario.node[6].appl 	NumberOfCollisions 	0
scalar IntersectionExampleScenario.node[6].nic.phy80211p 	busyTime 	0
scalar IntersectionExampleScenario.node[6].nic.mac1609_4 	ReceivedUnicastPackets 	0
scalar IntersectionExampleScenario.node[6].nic.mac1609_4 	ReceivedBroadcasts 	0
scalar IntersectionExampleScenario.node[6].nic.mac1609_4 	SentPackets 	0
scalar IntersectionExampleScenario.node[6].nic.mac1609_4 	SNIRLostPackets 	0
scalar IntersectionExampleScenario.node[6].nic.mac1609_4 	RXTXLostPackets 	0
scalar IntersectionExampleScenario.node[6].nic.mac1609_4 	TotalLostPackets 	0
scalar IntersectionExampleScenario.node[6].nic.mac1609_4 	DroppedPacketsInMac 	0
scalar IntersectionExampleScenario.node[6].nic.mac1609_4 	TooLittleTime 	0
scalar IntersectionExampleScenario.node[6].nic.mac1609_4 	TimesIntoBackoff 	0
scalar IntersectionExampleScenario.node[6].nic.mac1609_4 	SlotsBackoff 	0
scalar IntersectionExampleScenario.node[6].nic.mac1609_4 	NumInternalContention 	0
scalar IntersectionExampleScenario.node[6].nic.mac1609_4 	totalBusyTime 	0
scalar IntersectionExampleScenario.node[6].veinsmobility 	startTime 	32.5
scalar IntersectionExampleScenario.node[6].veinsmobility 	totalTime 	45.5
scalar IntersectionExampleScenario.node[6].veinsmobility 	stopTime 	78.25
scalar IntersectionExampleScenario.node[6].veinsmobility 	minSpeed 	0
scalar IntersectionExampleScenario.node[6].veinsmobility 	maxSpeed 	15.02499961853
scalar IntersectionExampleScenario.node[6].veinsmobility 	totalDistance 	551.50508226504
scalar IntersectionExampleScenario.node[6].veinsmobility 	totalCO2Emission 	133.24161682839
scalar IntersectionExampleScenario.node[8].appl 	VehicleRemoved 	0
scalar IntersectionExampleScenario.node[8].appl 	ArrivedAtDest 	1
scalar IntersectionExampleScenario.node[8].appl 	IntersectionEnterTime 	44
scalar IntersectionExampleScenario.node[8].appl 	IntersectionExitTime 	67.603078498418
scalar IntersectionExampleScenario.node[8].appl 	NumberOfCollisions 	0
scalar IntersectionExampleScenario.node[8].nic.phy80211p 	busyTime 	0
scalar IntersectionExampleScenario.node[8].nic.mac1609_4 	ReceivedUnicastPackets 	0
scalar IntersectionExampleScenario.node[8].nic.mac1609_4 	ReceivedBroadcasts 	0
scalar IntersectionExampleScenario.node[8].nic.mac1609_4 	SentPackets 	0
scalar IntersectionExampleScenario.node[8].nic.mac1609_4 	SNIRLostPackets 	0
scalar IntersectionExampleScenario.node[8].nic.mac1609_4 	RXTXLostPackets 	0
scalar IntersectionExampleScenario.node[8].nic.mac1609_4 	TotalLostPackets 	0
scalar IntersectionExampleScenario.node[8].nic.mac1609_4 	DroppedPacketsInMac 	0
scalar IntersectionExampleScenario.node[8].nic.mac1609_4 	TooLittleTime 	0
scalar IntersectionExampleScenario.node[8].nic.mac1609_4 	TimesIntoBackoff 	0
scalar IntersectionExampleScenario.node[8].nic.mac1609_4 	SlotsBackoff 	0
scalar IntersectionExampleScenario.node[8].nic.mac1609_4 	NumInternalContention 	0
scalar IntersectionExampleScenario.node[8].nic.mac1609_4 	totalBusyTime 	0
scalar IntersectionExampleScenario.node[8].veinsmobility 	startTime 	44
scalar IntersectionExampleScenario.node[8].veinsmobility 	totalTime 	40
scalar IntersectionExampleScenario.node[8].veinsmobility 	stopTime 	84.25
scalar IntersectionExampleScenario.node[8].veinsmobility 	minSpeed 	5.6500000953674
scalar IntersectionExampleScenario.node[8].veinsmobility 	maxSpeed 	15.875
scalar IntersectionExampleScenario.node[8].veinsmobility 	totalDistance 	543.80742207355
scalar IntersectionExampleScenario.node[8].veinsmobility 	totalCO2Emission 	126.97611641012
scalar IntersectionExampleScenario.node[9].appl 	VehicleRemoved 	0
scalar IntersectionExampleScenario.node[9].appl 	ArrivedAtDest 	1
scalar IntersectionExampleScenario.node[9].appl 	IntersectionEnterTime 	53
scalar IntersectionExampleScenario.node[9].appl 	IntersectionExitTime 	84.55061158078
scalar IntersectionExampleScenario.node[9].appl 	NumberOfCollisions 	0
scalar IntersectionExampleScenario.node[9].nic.phy80211p 	busyTime 	0
scalar IntersectionExampleScenario.node[9].nic.mac1609_4 	ReceivedUnicastPackets 	0
scalar IntersectionExampleScenario.node[9].nic.mac1609_4 	ReceivedBroadcasts 	0
scalar IntersectionExampleScenario.node[9].nic.mac1609_4 	SentPackets 	0
scalar IntersectionExampleScenario.node[9].nic.mac1609_4 	SNIRLostPackets 	0
scalar IntersectionExampleScenario.node[9].nic.mac1609_4 	RXTXLostPackets 	0
scalar IntersectionExampleScenario.node[9].nic.mac1609_4 	TotalLostPackets 	0
scalar IntersectionExampleScenario.node[9].nic.mac1609_4 	DroppedPacketsInMac 	0
scalar IntersectionExampleScenario.node[9].nic.mac1609_4 	TooLittleTime 	0
scalar IntersectionExampleScenario.node[9].nic.mac1609_4 	TimesIntoBackoff 	0
scalar IntersectionExampleScenario.node[9].nic.mac1609_4 	SlotsBackoff 	0
scalar IntersectionExampleScenario.node[9].nic.mac1609_4 	NumInternalContention 	0
scalar IntersectionExampleScenario.node[9].nic.mac1609_4 	totalBusyTime 	0
scalar IntersectionExampleScenario.node[9].veinsmobility 	startTime 	53
scalar IntersectionExampleScenario.node[9].veinsmobility 	totalTime 	48.5
scalar IntersectionExampleScenario.node[9].veinsmobility 	stopTime 	101.75
scalar IntersectionExampleScenario.node[9].veinsmobility 	minSpeed 	0
scalar IntersectionExampleScenario.node[9].veinsmobility 	maxSpeed 	15.25
scalar IntersectionExampleScenario.node[9].veinsmobility 	totalDistance 	544.46385861785
scalar IntersectionExampleScenario.node[9].veinsmobility 	totalCO2Emission 	137.99924564102
scalar IntersectionExampleScenario.node[12].appl 	VehicleRemoved 	0
scalar IntersectionExampleScenario.node[12].appl 	ArrivedAtDest 	1
scalar IntersectionExampleScenario.node[12].appl 	IntersectionEnterTime 	71.25
scalar IntersectionExampleScenario.node[12].appl 	IntersectionExitTime 	94.010732335562
scalar IntersectionExampleScenario.node[12].appl 	NumberOfCollisions 	0
scalar IntersectionExampleScenario.node[12].nic.phy80211p 	busyTime 	0
scalar IntersectionExampleScenario.node[12].nic.mac1609_4 	ReceivedUnicastPackets 	0
scalar IntersectionExampleScenario.node[12].nic.mac1609_4 	ReceivedBroadcasts 	0
scalar IntersectionExampleScenario.node[12].nic.mac1609_4 	SentPackets 	0
scalar IntersectionExampleScenario.node[12].nic.mac1609_4 	SNIRLostPackets 	0
scalar IntersectionExampleScenario.node[12].nic.mac1609_4 	RXTXLostPackets 	0
scalar IntersectionExampleScenario.node[12].nic.mac1609_4 	TotalLostPackets 	0
scalar IntersectionExampleScenario.node[12].nic.mac1609_4 	DroppedPacketsInMac 	0
scalar IntersectionExampleScenario.node[12].nic.mac1609_4 	TooLittleTime 	0
scalar IntersectionExampleScenario.node[12].nic.mac1609_4 	TimesIntoBackoff 	0
scalar IntersectionExampleScenario.node[12].nic.mac1609_4 	SlotsBackoff 	0
scalar IntersectionExampleScenario.node[12].nic.mac1609_4 	NumInternalContention 	0
scalar IntersectionExampleScenario.node[12].nic.mac1609_4 	totalBusyTime 	0
scalar IntersectionExampleScenario.node[12].veinsmobility 	startTime 	71.25
scalar IntersectionExampleScenario.node[12].veinsmobility 	totalTime 	38.5
scalar IntersectionExampleScenario.node[12].veinsmobility 	stopTime 	110
scalar IntersectionExampleScenario.node[12].veinsmobility 	minSpeed 	5.6500000953674
scalar IntersectionExampleScenario.node[12].veinsmobility 	maxSpeed 	15.64999961853
scalar IntersectionExampleScenario.node[12].veinsmobility 	totalDistance 	551.24000549316
scalar IntersectionExampleScenario.node[12].veinsmobility 	totalCO2Emission 	117.95031274191
scalar IntersectionExampleScenario.node[13].appl 	VehicleRemoved 	0
scalar IntersectionExampleScenario.node[13].appl 	ArrivedAtDest 	1
scalar IntersectionExampleScenario.node[13].appl 	IntersectionEnterTime 	72.25
scalar IntersectionExampleScenario.node[13].appl 	IntersectionExitTime 	95.582330474514
scalar IntersectionExampleScenario.node[13].appl 	NumberOfCollisions 	0
scalar IntersectionExampleScenario.node[13].nic.phy80211p 	busyTime 	0
scalar IntersectionExampleScenario.node[13].nic.mac1609_4 	ReceivedUnicastPackets 	0
scalar IntersectionExampleScenario.node[13].nic.mac1609_4 	ReceivedBroadcasts 	0
scalar IntersectionExampleScenario.node[13].nic.mac1609_4 	SentPackets 	0
scalar IntersectionExampleScenario.node[13].nic.mac1609_4 	SNIRLostPackets 	0
scalar IntersectionExampleScenario.node[13].nic.mac1609_4 	RXTXLostPackets 	0
scalar IntersectionExampleScenario.node[13].nic.mac1609_4 	TotalLostPackets 	0
scalar IntersectionExampleScenario.node[13].nic.mac1609_4 	DroppedPacketsInMac 	0
scalar IntersectionExampleScenario.node[13].nic.mac1609_4 	TooLittleTime 	0
scalar IntersectionExampleScenario.node[13].nic.mac1609_4 	TimesIntoBackoff 	0
scalar IntersectionExampleScenario.node[13].nic.mac1609_4 	SlotsBackoff 	0
scalar IntersectionExampleScenario.node[13].nic.mac1609_4 	NumInternalContention 	0
scalar IntersectionExampleScenario.node[13].nic.mac1609_4 	totalBusyTime 	0
scalar IntersectionExampleScenario.node[13].veinsmobility 	startTime 	72.25
scalar IntersectionExampleScenario.node[13].veinsmobility 	totalTime 	39
scalar IntersectionExampleScenario.node[13].veinsmobility 	stopTime 	111.5
scalar IntersectionExampleScenario.node[13].veinsmobility 	minSpeed 	5.6500000953674
scalar IntersectionExampleScenario.node[13].veinsmobility 	maxSpeed 	16.125
scalar IntersectionExampleScenario.node[13].veinsmobility 	totalDistance 	554.41385650635
scalar IntersectionExampleScenario.node[13].veinsmobility 	totalCO2Emission 	126.91307602624
scalar IntersectionExampleScenario.node[10].appl 	VehicleRemoved 	0
scalar IntersectionExampleScenario.node[10].appl 	ArrivedAtDest 	1
scalar IntersectionExampleScenario.node[10].appl 	IntersectionEnterTime 	56
scalar IntersectionExampleScenario.node[10].appl 	IntersectionExitTime 	95.618259889743
scalar IntersectionExampleScenario.node[10].appl 	NumberOfCollisions 	0
scalar IntersectionExampleScenario.node[10].nic.phy80211p 	busyTime 	0
scalar IntersectionExampleScenario.node[10].nic.mac1609_4 	ReceivedUnicastPackets 	0
scalar IntersectionExampleScenario.node[10].nic.mac1609_4 	ReceivedBroadcasts 	0
scalar IntersectionExampleScenario.node[10].nic.mac1609_4 	SentPackets 	0
scalar IntersectionExampleScenario.node[10].nic.mac1609_4 	SNIRLostPackets 	0
scalar IntersectionExampleScenario.node[10].nic.mac1609_4 	RXTXLostPackets 	0
scalar IntersectionExampleScenario.node[10].nic.mac1609_4 	TotalLostPackets 	0
scalar IntersectionExampleScenario.node[10].nic.mac1609_4 	DroppedPacketsInMac 	0
scalar IntersectionExampleScenario.node[10].nic.mac1609_4 	TooLittleTime 	0
scalar IntersectionExampleScenario.node[10].nic.mac1609_4 	TimesIntoBackoff 	0
scalar IntersectionExampleScenario.node[10].nic.mac1609_4 	SlotsBackoff 	0
scalar IntersectionExampleScenario.node[10].nic.mac1609_4 	NumInternalContention 	0
scalar IntersectionExampleScenario.node[10].nic.mac1609_4 	totalBusyTime 	0
scalar IntersectionExampleScenario.node[10].veinsmobility 	startTime 	56
scalar IntersectionExampleScenario.node[10].veinsmobility 	totalTime 	56.5
scalar IntersectionExampleScenario.node[10].veinsmobility 	stopTime 	112.75
scalar IntersectionExampleScenario.node[10].veinsmobility 	minSpeed 	0
scalar IntersectionExampleScenario.node[10].veinsmobility 	maxSpeed 	15.25
scalar IntersectionExampleScenario.node[10].veinsmobility 	totalDistance 	543.92479611785
scalar IntersectionExampleScenario.node[10].veinsmobility 	totalCO2Emission 	145.38335192622
scalar IntersectionExampleScenario.node[14].appl 	VehicleRemoved 	0
scalar IntersectionExampleScenario.node[14].appl 	ArrivedAtDest 	1
scalar IntersectionExampleScenario.node[14].appl 	IntersectionEnterTime 	75.5
scalar IntersectionExampleScenario.node[14].appl 	IntersectionExitTime 	99.292036163359
scalar IntersectionExampleScenario.node[14].appl 	NumberOfCollisions 	0
scalar IntersectionExampleScenario.node[14].nic.phy80211p 	busyTime 	0
scalar IntersectionExampleScenario.node[14].nic.mac1609_4 	ReceivedUnicastPackets 	0
scalar IntersectionExampleScenario.node[14].nic.mac1609_4 	ReceivedBroadcasts 	0
scalar IntersectionExampleScenario.node[14].nic.mac1609_4 	SentPackets 	0
scalar IntersectionExampleScenario.node[14].nic.mac1609_4 	SNIRLostPackets 	0
scalar IntersectionExampleScenario.node[14].nic.mac1609_4 	RXTXLostPackets 	0
scalar IntersectionExampleScenario.node[14].nic.mac1609_4 	TotalLostPackets 	0
scalar IntersectionExampleScenario.node[14].nic.mac1609_4 	DroppedPacketsInMac 	0
scalar IntersectionExampleScenario.node[14].nic.mac1609_4 	TooLittleTime 	0
scalar IntersectionExampleScenario.node[14].nic.mac1609_4 	TimesIntoBackoff 	0
scalar IntersectionExampleScenario.node[14].nic.mac1609_4 	SlotsBackoff 	0
scalar IntersectionExampleScenario.node[14].nic.mac1609_4 	NumInternalContention 	0
scalar IntersectionExampleScenario.node[14].nic.mac1609_4 	totalBusyTime 	0
scalar IntersectionExampleScenario.node[14].veinsmobility 	startTime 	75.5
scalar IntersectionExampleScenario.node[14].veinsmobility 	totalTime 	40
scalar IntersectionExampleScenario.node[14].veinsmobility 	stopTime 	115.75
scalar IntersectionExampleScenario.node[14].veinsmobility 	minSpeed 	5.6500000953674
scalar IntersectionExampleScenario.node[14].veinsmobility 	maxSpeed 	15.64999961853
scalar IntersectionExampleScenario.node[14].veinsmobility 	totalDistance 	561.17729955393
scalar IntersectionExampleScenario.node[14].veinsmobility 	totalCO2Emission 	125.11419515407
scalar IntersectionExampleScenario.node[11].appl 	VehicleRemoved 	0
scalar IntersectionExampleScenario.node[11].appl 	ArrivedAtDest 	1
scalar IntersectionExampleScenario.node[11].appl 	IntersectionEnterTime 	62.75
scalar IntersectionExampleScenario.node[11].appl 	IntersectionExitTime 	109.36596211788
scalar IntersectionExampleScenario.node[11].appl 	NumberOfCollisions 	0
scalar IntersectionExampleScenario.node[11].nic.phy80211p 	busyTime 	0
scalar IntersectionExampleScenario.node[11].nic.mac1609_4 	ReceivedUnicastPackets 	0
scalar IntersectionExampleScenario.node[11].nic.mac1609_4 	ReceivedBroadcasts 	0
scalar IntersectionExampleScenario.node[11].nic.mac1609_4 	SentPackets 	0
scalar IntersectionExampleScenario.node[11].nic.mac1609_4 	SNIRLostPackets 	0
scalar IntersectionExampleScenario.node[11].nic.mac1609_4 	RXTXLostPackets 	0
scalar IntersectionExampleScenario.node[11].nic.mac1609_4 	TotalLostPackets 	0
scalar IntersectionExampleScenario.node[11].nic.mac1609_4 	DroppedPacketsInMac 	0
scalar IntersectionExampleScenario.node[11].nic.mac1609_4 	TooLittleTime 	0
scalar IntersectionExampleScenario.node[11].nic.mac1609_4 	TimesIntoBackoff 	0
scalar IntersectionExampleScenario.node[11].nic.mac1609_4 	SlotsBackoff 	0
scalar IntersectionExampleScenario.node[11].nic.mac1609_4 	NumInternalContention 	0
scalar IntersectionExampleScenario.node[11].nic.mac1609_4 	totalBusyTime 	0
scalar IntersectionExampleScenario.node[11].veinsmobility 	startTime 	62.75
scalar IntersectionExampleScenario.node[11].veinsmobility 	totalTime 	62
scalar IntersectionExampleScenario.node[11].veinsmobility 	stopTime 	125
scalar IntersectionExampleScenario.node[11].veinsmobility 	minSpeed 	0
scalar IntersectionExampleScenario.node[11].veinsmobility 	maxSpeed 	16.27499961853
scalar IntersectionExampleScenario.node[11].veinsmobility 	totalDistance 	550.68977464786
scalar IntersectionExampleScenario.node[11].veinsmobility 	totalCO2Emission 	160.86165170353
scalar IntersectionExampleScenario.node[15].appl 	VehicleRemoved 	0
scalar IntersectionExampleScenario.node[15].appl 	ArrivedAtDest 	1
scalar IntersectionExampleScenario.node[15].appl 	IntersectionEnterTime 	78.25
scalar IntersectionExampleScenario.node[15].appl 	IntersectionExitTime 	110.27401697889
scalar IntersectionExampleScenario.node[15].appl 	NumberOfCollisions 	0
scalar IntersectionExampleScenario.node[15].nic.phy80211p 	busyTime 	0
scalar IntersectionExampleScenario.node[15].nic.mac1609_4 	ReceivedUnicastPackets 	0
scalar IntersectionExampleScenario.node[15].nic.mac1609_4 	ReceivedBroadcasts 	0
scalar IntersectionExampleScenario.node[15].nic.mac1609_4 	SentPackets 	0
scalar IntersectionExampleScenario.node[15].nic.mac1609_4 	SNIRLostPackets 	0
scalar IntersectionExampleScenario.node[15].nic.mac1609_4 	RXTXLostPackets 	0
scalar IntersectionExampleScenario.node[15].nic.mac1609_4 	TotalLostPackets 	0
scalar IntersectionExampleScenario.node[15].nic.mac1609_4 	DroppedPacketsInMac 	0
scalar IntersectionExampleScenario.node[15].nic.mac1609_4 	TooLittleTime 	0
scalar IntersectionExampleScenario.node[15].nic.mac1609_4 	TimesIntoBackoff 	0
scalar IntersectionExampleScenario.node[15].nic.mac1609_4 	SlotsBackoff 	0
scalar IntersectionExampleScenario.node[15].nic.mac1609_4 	NumInternalContention 	0
scalar IntersectionExampleScenario.node[15].nic.mac1609_4 	totalBusyTime 	0
scalar IntersectionExampleScenario.node[15].veinsmobility 	startTime 	78.25
scalar IntersectionExampleScenario.node[15].veinsmobility 	totalTime 	48
scalar IntersectionExampleScenario.node[15].veinsmobility 	stopTime 	126.5
scalar IntersectionExampleScenario.node[15].veinsmobility 	minSpeed 	1.5286111831665
scalar IntersectionExampleScenario.node[15].veinsmobility 	maxSpeed 	15.64999961853
scalar IntersectionExampleScenario.node[15].veinsmobility 	totalDistance 	554.16605377197
scalar IntersectionExampleScenario.node[15].veinsmobility 	totalCO2Emission 	138.22550189202
scalar IntersectionExampleScenario.node[16].appl 	VehicleRemoved 	0
scalar IntersectionExampleScenario.node[16].appl 	ArrivedAtDest 	1
scalar IntersectionExampleScenario.node[16].appl 	IntersectionEnterTime 	78.75
scalar IntersectionExampleScenario.node[16].appl 	IntersectionExitTime 	112.56435208675
scalar IntersectionExampleScenario.node[16].appl 	NumberOfCollisions 	0
scalar IntersectionExampleScenario.node[16].nic.phy80211p 	busyTime 	0
scalar IntersectionExampleScenario.node[16].nic.mac1609_4 	ReceivedUnicastPackets 	0
scalar IntersectionExampleScenario.node[16].nic.mac1609_4 	ReceivedBroadcasts 	0
scalar IntersectionExampleScenario.node[16].nic.mac1609_4 	SentPackets 	0
scalar IntersectionExampleScenario.node[16].nic.mac1609_4 	SNIRLostPackets 	0
scalar IntersectionExampleScenario.node[16].nic.mac1609_4 	RXTXLostPackets 	0
scalar IntersectionExampleScenario.node[16].nic.mac1609_4 	TotalLostPackets 	0
scalar IntersectionExampleScenario.node[16].nic.mac1609_4 	DroppedPacketsInMac 	0
scalar IntersectionExampleScenario.node[16].nic.mac1609_4 	TooLittleTime 	0
scalar IntersectionExampleScenario.node[16].nic.mac1609_4 	TimesIntoBackoff 	0
scalar IntersectionExampleScenario.node[16].nic.mac1609_4 	SlotsBackoff 	0
scalar IntersectionExampleScenario.node[16].nic.mac1609_4 	NumInternalContention 	0
scalar IntersectionExampleScenario.node[16].nic.mac1609_4 	totalBusyTime 	0
scalar IntersectionExampleScenario.node[16].veinsmobility 	startTime 	78.75
scalar IntersectionExampleScenario.node[16].veinsmobility 	totalTime 	50
scalar IntersectionExampleScenario.node[16].veinsmobility 	stopTime 	129
scalar IntersectionExampleScenario.node[16].veinsmobility 	minSpeed 	2.3520569801331
scalar IntersectionExampleScenario.node[16].veinsmobility 	maxSpeed 	15.978478431702
scalar IntersectionExampleScenario.node[16].veinsmobility 	totalDistance 	570.03833325642
scalar IntersectionExampleScenario.node[16].veinsmobility 	totalCO2Emission 	150.99006781177
scalar IntersectionExampleScenario.node[20].appl 	VehicleRemoved 	0
scalar IntersectionExampleScenario.node[20].appl 	ArrivedAtDest 	1
scalar IntersectionExampleScenario.node[20].appl 	IntersectionEnterTime 	89
scalar IntersectionExampleScenario.node[20].appl 	IntersectionExitTime 	114.54044983682
scalar IntersectionExampleScenario.node[20].appl 	NumberOfCollisions 	0
scalar IntersectionExampleScenario.node[20].nic.phy80211p 	busyTime 	0
scalar IntersectionExampleScenario.node[20].nic.mac1609_4 	ReceivedUnicastPackets 	0
scalar IntersectionExampleScenario.node[20].nic.mac1609_4 	ReceivedBroadcasts 	0
scalar IntersectionExampleScenario.node[20].nic.mac1609_4 	SentPackets 	0
scalar IntersectionExampleScenario.node[20].nic.mac1609_4 	SNIRLostPackets 	0
scalar IntersectionExampleScenario.node[20].nic.mac1609_4 	RXTXLostPackets 	0
scalar IntersectionExampleScenario.node[20].nic.mac1609_4 	TotalLostPackets 	0
scalar IntersectionExampleScenario.node[20].nic.mac1609_4 	DroppedPacketsInMac 	0
scalar IntersectionExampleScenario.node[20].nic.mac1609_4 	TooLittleTime 	0
scalar IntersectionExampleScenario.node[20].nic.mac1609_4 	TimesIntoBackoff 	0
scalar IntersectionExampleScenario.node[20].nic.mac1609_4 	SlotsBackoff 	0
scalar IntersectionExampleScenario.node[20].nic.mac1609_4 	NumInternalContention 	0
scalar IntersectionExampleScenario.node[20].nic.mac1609_4 	totalBusyTime 	0
scalar IntersectionExampleScenario.node[20].veinsmobility 	startTime 	89
scalar IntersectionExampleScenario.node[20].veinsmobility 	totalTime 	41.75
scalar IntersectionExampleScenario.node[20].veinsmobility 	stopTime 	131
scalar IntersectionExampleScenario.node[20].veinsmobility 	minSpeed 	5.6500000953674
scalar IntersectionExampleScenario.node[20].veinsmobility 	maxSpeed 	15.64999961853
scalar IntersectionExampleScenario.node[20].veinsmobility 	totalDistance 	549.69627283684
scalar IntersectionExampleScenario.node[20].veinsmobility 	totalCO2Emission 	135.42348995323
scalar IntersectionExampleScenario.node[17].appl 	VehicleRemoved 	0
scalar IntersectionExampleScenario.node[17].appl 	ArrivedAtDest 	1
scalar IntersectionExampleScenario.node[17].appl 	IntersectionEnterTime 	80
scalar IntersectionExampleScenario.node[17].appl 	IntersectionExitTime 	120.30157507182
scalar IntersectionExampleScenario.node[17].appl 	NumberOfCollisions 	0
scalar IntersectionExampleScenario.node[17].nic.phy80211p 	busyTime 	0
scalar IntersectionExampleScenario.node[17].nic.mac1609_4 	ReceivedUnicastPackets 	0
scalar IntersectionExampleScenario.node[17].nic.mac1609_4 	ReceivedBroadcasts 	0
scalar IntersectionExampleScenario.node[17].nic.mac1609_4 	SentPackets 	0
scalar IntersectionExampleScenario.node[17].nic.mac1609_4 	SNIRLostPackets 	0
scalar IntersectionExampleScenario.node[17].nic.mac1609_4 	RXTXLostPackets 	0
scalar IntersectionExampleScenario.node[17].nic.mac1609_4 	TotalLostPackets 	0
scalar IntersectionExampleScenario.node[17].nic.mac1609_4 	DroppedPacketsInMac 	0
scalar IntersectionExampleScenario.node[17].nic.mac1609_4 	TooLittleTime 	0
scalar IntersectionExampleScenario.node[17].nic.mac1609_4 	TimesIntoBackoff 	0
scalar IntersectionExampleScenario.node[17].nic.mac1609_4 	SlotsBackoff 	0
scalar IntersectionExampleScenario.node[17].nic.mac1609_4 	NumInternalContention 	0
scalar IntersectionExampleScenario.node[17].nic.mac1609_4 	totalBusyTime 	0
scalar IntersectionExampleScenario.node[17].veinsmobility 	startTime 	80
scalar IntersectionExampleScenario.node[17].veinsmobility 	totalTime 	56
scalar IntersectionExampleScenario.node[17].veinsmobility 	stopTime 	136.25
scalar IntersectionExampleScenario.node[17].veinsmobility 	minSpeed 	0
scalar IntersectionExampleScenario.node[17].veinsmobility 	maxSpeed 	16
scalar IntersectionExampleScenario.node[17].veinsmobility 	totalDistance 	550.4374782001
scalar IntersectionExampleScenario.node[17].veinsmobility 	totalCO2Emission 	151.09656089041
scalar IntersectionExampleScenario.node[18].appl 	VehicleRemoved 	0
scalar IntersectionExampleScenario.node[18].appl 	ArrivedAtDest 	1
scalar IntersectionExampleScenario.node[18].appl 	IntersectionEnterTime 	85
scalar IntersectionExampleScenario.node[18].appl 	IntersectionExitTime 	121.28242166081
scalar IntersectionExampleScenario.node[18].appl 	NumberOfCollisions 	0
scalar IntersectionExampleScenario.node[18].nic.phy80211p 	busyTime 	0
scalar IntersectionExampleScenario.node[18].nic.mac1609_4 	ReceivedUnicastPackets 	0
scalar IntersectionExampleScenario.node[18].nic.mac1609_4 	ReceivedBroadcasts 	0
scalar IntersectionExampleScenario.node[18].nic.mac1609_4 	SentPackets 	0
scalar IntersectionExampleScenario.node[18].nic.mac1609_4 	SNIRLostPackets 	0
scalar IntersectionExampleScenario.node[18].nic.mac1609_4 	RXTXLostPackets 	0
scalar IntersectionExampleScenario.node[18].nic.mac1609_4 	TotalLostPackets 	0
scalar IntersectionExampleScenario.node[18].nic.mac1609_4 	DroppedPacketsInMac 	0
scalar IntersectionExampleScenario.node[18].nic.mac1609_4 	TooLittleTime 	0
scalar IntersectionExampleScenario.node[18].nic.mac1609_4 	TimesIntoBackoff 	0
scalar IntersectionExampleScenario.node[18].nic.mac1609_4 	SlotsBackoff 	0
scalar IntersectionExampleScenario.node[18].nic.mac1609_4 	NumInternalContention 	0
scalar IntersectionExampleScenario.node[18].nic.mac1609_4 	totalBusyTime 	0
scalar IntersectionExampleScenario.node[18].veinsmobility 	startTime 	85
scalar IntersectionExampleScenario.node[18].veinsmobility 	totalTime 	52
scalar IntersectionExampleScenario.node[18].veinsmobility 	stopTime 	137.25
scalar IntersectionExampleScenario.node[18].veinsmobility 	minSpeed 	0
scalar IntersectionExampleScenario.node[18].veinsmobility 	maxSpeed 	16.125
scalar IntersectionExampleScenario.node[18].veinsmobility 	totalDistance 	553.07690429688
scalar IntersectionExampleScenario.node[18].veinsmobility 	totalCO2Emission 	145.51491127564
scalar IntersectionExampleScenario.node[19].appl 	VehicleRemoved 	0
scalar IntersectionExampleScenario.node[19].appl 	ArrivedAtDest 	1
scalar IntersectionExampleScenario.node[19].appl 	IntersectionEnterTime 	85.25
scalar IntersectionExampleScenario.node[19].appl 	IntersectionExitTime 	123.29305443287
scalar IntersectionExampleScenario.node[19].appl 	NumberOfCollisions 	0
scalar IntersectionExampleScenario.node[19].nic.phy80211p 	busyTime 	0
scalar IntersectionExampleScenario.node[19].nic.mac1609_4 	ReceivedUnicastPackets 	0
scalar IntersectionExampleScenario.node[19].nic.mac1609_4 	ReceivedBroadcasts 	0
scalar IntersectionExampleScenario.node[19].nic.mac1609_4 	SentPackets 	0
scalar IntersectionExampleScenario.node[19].nic.mac1609_4 	SNIRLostPackets 	0
scalar IntersectionExampleScenario.node[19].nic.mac1609_4 	RXTXLostPackets 	0
scalar IntersectionExampleScenario.node[19].nic.mac1609_4 	TotalLostPackets 	0
scalar IntersectionExampleScenario.node[19].nic.mac1609_4 	DroppedPacketsInMac 	0
scalar IntersectionExampleScenario.node[19].nic.mac1609_4 	TooLittleTime 	0
scalar IntersectionExampleScenario.node[19].nic.mac1609_4 	TimesIntoBackoff 	0
scalar IntersectionExampleScenario.node[19].nic.mac1609_4 	SlotsBackoff 	0
scalar IntersectionExampleScenario.node[19].nic.mac1609_4 	NumInternalContention 	0
scalar IntersectionExampleScenario.node[19].nic.mac1609_4 	totalBusyTime 	0
scalar IntersectionExampleScenario.node[19].veinsmobility 	startTime 	85.25
scalar IntersectionExampleScenario.node[19].veinsmobility 	totalTime 	53.5
scalar IntersectionExampleScenario.node[19].veinsmobility 	stopTime 	139
scalar IntersectionExampleScenario.node[19].veinsmobility 	minSpeed 	0
scalar IntersectionExampleScenario.node[19].veinsmobility 	maxSpeed 	16.125
scalar IntersectionExampleScenario.node[19].veinsmobility 	totalDistance 	579.4447479248
scalar IntersectionExampleScenario.node[19].veinsmobility 	totalCO2Emission 	153.82556491468
scalar IntersectionExampleScenario.node[22].appl 	VehicleRemoved 	0
scalar IntersectionExampleScenario.node[22].appl 	ArrivedAtDest 	1
scalar IntersectionExampleScenario.node[22].appl 	IntersectionEnterTime 	112
scalar IntersectionExampleScenario.node[22].appl 	IntersectionExitTime 	135.33308507173
scalar IntersectionExampleScenario.node[22].appl 	NumberOfCollisions 	0
scalar IntersectionExampleScenario.node[22].nic.phy80211p 	busyTime 	0
scalar IntersectionExampleScenario.node[22].nic.mac1609_4 	ReceivedUnicastPackets 	0
scalar IntersectionExampleScenario.node[22].nic.mac1609_4 	ReceivedBroadcasts 	0
scalar IntersectionExampleScenario.node[22].nic.mac1609_4 	SentPackets 	0
scalar IntersectionExampleScenario.node[22].nic.mac1609_4 	SNIRLostPackets 	0
scalar IntersectionExampleScenario.node[22].nic.mac1609_4 	RXTXLostPackets 	0
scalar IntersectionExampleScenario.node[22].nic.mac1609_4 	TotalLostPackets 	0
scalar IntersectionExampleScenario.node[22].nic.mac1609_4 	DroppedPacketsInMac 	0
scalar IntersectionExampleScenario.node[22].nic.mac1609_4 	TooLittleTime 	0
scalar IntersectionExampleScenario.node[22].nic.mac1609_4 	TimesIntoBackoff 	0
scalar IntersectionExampleScenario.node[22].nic.mac1609_4 	SlotsBackoff 	0
scalar IntersectionExampleScenario.node[22].nic.mac1609_4 	NumInternalContention 	0
scalar IntersectionExampleScenario.node[22].nic.mac1609_4 	totalBusyTime 	0
scalar IntersectionExampleScenario.node[22].veinsmobility 	startTime 	112
scalar IntersectionExampleScenario.node[22].veinsmobility 	totalTime 	39.5
scalar IntersectionExampleScenario.node[22].veinsmobility 	stopTime 	151.75
scalar IntersectionExampleScenario.node[22].veinsmobility 	minSpeed 	5.6500000953674
scalar IntersectionExampleScenario.node[22].veinsmobility 	maxSpeed 	15.5
scalar IntersectionExampleScenario.node[22].veinsmobility 	totalDistance 	553.66056060791
scalar IntersectionExampleScenario.node[22].veinsmobility 	totalCO2Emission 	116.12893195025
scalar IntersectionExampleScenario.node[28].appl 	VehicleRemoved 	0
scalar IntersectionExampleScenario.node[28].appl 	ArrivedAtDest 	1
scalar IntersectionExampleScenario.node[28].appl 	IntersectionEnterTime 	118.75
scalar IntersectionExampleScenario.node[28].appl 	IntersectionExitTime 	141.51138378851
scalar IntersectionExampleScenario.node[28].appl 	NumberOfCollisions 	0
scalar IntersectionExampleScenario.node[28].nic.phy80211p 	busyTime 	0
scalar IntersectionExampleScenario.node[28].nic.mac1609_4 	ReceivedUnicastPackets 	0
scalar IntersectionExampleScenario.node[28].nic.mac1609_4 	ReceivedBroadcasts 	0
scalar IntersectionExampleScenario.node[28].nic.mac1609_4 	SentPackets 	0
scalar IntersectionExampleScenario.node[28].nic.mac1609_4 	SNIRLostPackets 	0
scalar IntersectionExampleScenario.node[28].nic.mac1609_4 	RXTXLostPackets 	0
scalar IntersectionExampleScenario.node[28].nic.mac1609_4 	TotalLostPackets 	0
scalar IntersectionExampleScenario.node[28].nic.mac1609_4 	DroppedPacketsInMac 	0
scalar IntersectionExampleScenario.node[28].nic.mac1609_4 	TooLittleTime 	0
scalar IntersectionExampleScenario.node[28].nic.mac1609_4 	TimesIntoBackoff 	0
scalar IntersectionExampleScenario.node[28].nic.mac1609_4 	SlotsBackoff 	0
scalar IntersectionExampleScenario.node[28].nic.mac1609_4 	NumInternalContention 	0
scalar IntersectionExampleScenario.node[28].nic.mac1609_4 	totalBusyTime 	0
scalar IntersectionExampleScenario.node[28].veinsmobility 	startTime 	118.75
scalar IntersectionExampleScenario.node[28].veinsmobility 	totalTime 	38.75
scalar IntersectionExampleScenario.node[28].veinsmobility 	stopTime 	157.75
scalar IntersectionExampleScenario.node[28].veinsmobility 	minSpeed 	5.6500000953674
scalar IntersectionExampleScenario.node[28].veinsmobility 	maxSpeed 	15.5
scalar IntersectionExampleScenario.node[28].veinsmobility 	totalDistance 	551.46213531494
scalar IntersectionExampleScenario.node[28].veinsmobility 	totalCO2Emission 	117.0728620541
scalar IntersectionExampleScenario.node[21].appl 	VehicleRemoved 	0
scalar IntersectionExampleScenario.node[21].appl 	ArrivedAtDest 	1
scalar IntersectionExampleScenario.node[21].appl 	IntersectionEnterTime 	101.75
scalar IntersectionExampleScenario.node[21].appl 	IntersectionExitTime 	144.34908123044
scalar IntersectionExampleScenario.node[21].appl 	NumberOfCollisions 	0
scalar IntersectionExampleScenario.node[21].nic.phy80211p 	busyTime 	0
scalar IntersectionExampleScenario.node[21].nic.mac1609_4 	ReceivedUnicastPackets 	0
scalar IntersectionExampleScenario.node[21].nic.mac1609_4 	ReceivedBroadcasts 	0
scalar IntersectionExampleScenario.node[21].nic.mac1609_4 	SentPackets 	0
scalar IntersectionExampleScenario.node[21].nic.mac1609_4 	SNIRLostPackets 	0
scalar IntersectionExampleScenario.node[21].nic.mac1609_4 	RXTXLostPackets 	0
scalar IntersectionExampleScenario.node[21].nic.mac1609_4 	TotalLostPackets 	0
scalar IntersectionExampleScenario.node[21].nic.mac1609_4 	DroppedPacketsInMac 	0
scalar IntersectionExampleScenario.node[21].nic.mac1609_4 	TooLittleTime 	0
scalar IntersectionExampleScenario.node[21].nic.mac1609_4 	TimesIntoBackoff 	0
scalar IntersectionExampleScenario.node[21].nic.mac1609_4 	SlotsBackoff 	0
scalar IntersectionExampleScenario.node[21].nic.mac1609_4 	NumInternalContention 	0
scalar IntersectionExampleScenario.node[21].nic.mac1609_4 	totalBusyTime 	0
scalar IntersectionExampleScenario.node[21].veinsmobility 	startTime 	101.75
scalar IntersectionExampleScenario.node[21].veinsmobility 	totalTime 	58.75
scalar IntersectionExampleScenario.node[21].veinsmobility 	stopTime 	160.75
scalar IntersectionExampleScenario.node[21].veinsmobility 	minSpeed 	0
scalar IntersectionExampleScenario.node[21].veinsmobility 	maxSpeed 	15.375
scalar IntersectionExampleScenario.node[21].veinsmobility 	totalDistance 	548.74365343204
scalar IntersectionExampleScenario.node[21].veinsmobility 	totalCO2Emission 	148.17377183564
scalar IntersectionExampleScenario.node[25].appl 	VehicleRemoved 	0
scalar IntersectionExampleScenario.node[25].appl 	ArrivedAtDest 	1
scalar IntersectionExampleScenario.node[25].appl 	IntersectionEnterTime 	113
scalar IntersectionExampleScenario.node[25].appl 	IntersectionExitTime 	146.53062421814
scalar IntersectionExampleScenario.node[25].appl 	NumberOfCollisions 	0
scalar IntersectionExampleScenario.node[25].nic.phy80211p 	busyTime 	0
scalar IntersectionExampleScenario.node[25].nic.mac1609_4 	ReceivedUnicastPackets 	0
scalar IntersectionExampleScenario.node[25].nic.mac1609_4 	ReceivedBroadcasts 	0
scalar IntersectionExampleScenario.node[25].nic.mac1609_4 	SentPackets 	0
scalar IntersectionExampleScenario.node[25].nic.mac1609_4 	SNIRLostPackets 	0
scalar IntersectionExampleScenario.node[25].nic.mac1609_4 	RXTXLostPackets 	0
scalar IntersectionExampleScenario.node[25].nic.mac1609_4 	TotalLostPackets 	0
scalar IntersectionExampleScenario.node[25].nic.mac1609_4 	DroppedPacketsInMac 	0
scalar IntersectionExampleScenario.node[25].nic.mac1609_4 	TooLittleTime 	0
scalar IntersectionExampleScenario.node[25].nic.mac1609_4 	TimesIntoBackoff 	0
scalar IntersectionExampleScenario.node[25].nic.mac1609_4 	SlotsBackoff 	0
scalar IntersectionExampleScenario.node[25].nic.mac1609_4 	NumInternalContention 	0
scalar IntersectionExampleScenario.node[25].nic.mac1609_4 	totalBusyTime 	0
scalar IntersectionExampleScenario.node[25].veinsmobility 	startTime 	113
scalar IntersectionExampleScenario.node[25].veinsmobility 	totalTime 	49.75
scalar IntersectionExampleScenario.node[25].veinsmobility 	stopTime 	163
scalar IntersectionExampleScenario.node[25].veinsmobility 	minSpeed 	1.2979431152344
scalar IntersectionExampleScenario.node[25].veinsmobility 	maxSpeed 	15.64999961853
scalar IntersectionExampleScenario.node[25].veinsmobility 	totalDistance 	552.7618862489
scalar IntersectionExampleScenario.node[25].veinsmobility 	totalCO2Emission 	141.01507033402
scalar IntersectionExampleScenario.node[30].appl 	VehicleRemoved 	0
scalar IntersectionExampleScenario.node[30].appl 	ArrivedAtDest 	1
scalar IntersectionExampleScenario.node[30].appl 	IntersectionEnterTime 	122.75
scalar IntersectionExampleScenario.node[30].appl 	IntersectionExitTime 	149.12044192146
scalar IntersectionExampleScenario.node[30].appl 	NumberOfCollisions 	0
scalar IntersectionExampleScenario.node[30].nic.phy80211p 	busyTime 	0
scalar IntersectionExampleScenario.node[30].nic.mac1609_4 	ReceivedUnicastPackets 	0
scalar IntersectionExampleScenario.node[30].nic.mac1609_4 	ReceivedBroadcasts 	0
scalar IntersectionExampleScenario.node[30].nic.mac1609_4 	SentPackets 	0
scalar IntersectionExampleScenario.node[30].nic.mac1609_4 	SNIRLostPackets 	0
scalar IntersectionExampleScenario.node[30].nic.mac1609_4 	RXTXLostPackets 	0
scalar IntersectionExampleScenario.node[30].nic.mac1609_4 	TotalLostPackets 	0
scalar IntersectionExampleScenario.node[30].nic.mac1609_4 	DroppedPacketsInMac 	0
scalar IntersectionExampleScenario.node[30].nic.mac1609_4 	TooLittleTime 	0
scalar IntersectionExampleScenario.node[30].nic.mac1609_4 	TimesIntoBackoff 	0
scalar IntersectionExampleScenario.node[30].nic.mac1609_4 	SlotsBackoff 	0
scalar IntersectionExampleScenario.node[30].nic.mac1609_4 	NumInternalContention 	0
scalar IntersectionExampleScenario.node[30].nic.mac1609_4 	totalBusyTime 	0
scalar IntersectionExampleScenario.node[30].veinsmobility 	startTime 	122.75
scalar IntersectionExampleScenario.node[30].veinsmobility 	totalTime 	44
scalar IntersectionExampleScenario.node[30].veinsmobility 	stopTime 	167
scalar IntersectionExampleScenario.node[30].veinsmobility 	minSpeed 	5.6500000953674
scalar IntersectionExampleScenario.node[30].veinsmobility 	maxSpeed 	14.625
scalar IntersectionExampleScenario.node[30].veinsmobility 	totalDistance 	545.89102070373
scalar IntersectionExampleScenario.node[30].veinsmobility 	totalCO2Emission 	135.21436059261
scalar IntersectionExampleScenario.node[31].appl 	VehicleRemoved 	0
scalar IntersectionExampleScenario.node[31].appl 	ArrivedAtDest 	1
scalar IntersectionExampleScenario.node[31].appl 	IntersectionEnterTime 	123.75
scalar IntersectionExampleScenario.node[31].appl 	IntersectionExitTime 	151.08895706158
scalar IntersectionExampleScenario.node[31].appl 	NumberOfCollisions 	0
scalar IntersectionExampleScenario.node[31].nic.phy80211p 	busyTime 	0
scalar IntersectionExampleScenario.node[31].nic.mac1609_4 	ReceivedUnicastPackets 	0
scalar IntersectionExampleScenario.node[31].nic.mac1609_4 	ReceivedBroadcasts 	0
scalar IntersectionExampleScenario.node[31].nic.mac1609_4 	SentPackets 	0
scalar IntersectionExampleScenario.node[31].nic.mac1609_4 	SNIRLostPackets 	0
scalar IntersectionExampleScenario.node[31].nic.mac1609_4 	RXTXLostPackets 	0
scalar IntersectionExampleScenario.node[31].nic.mac1609_4 	TotalLostPackets 	0
scalar IntersectionExampleScenario.node[31].nic.mac1609_4 	DroppedPacketsInMac 	0
scalar IntersectionExampleScenario.node[31].nic.mac1609_4 	TooLittleTime 	0
scalar IntersectionExampleScenario.node[31].nic.mac1609_4 	TimesIntoBackoff 	0
scalar IntersectionExampleScenario.node[31].nic.mac1609_4 	SlotsBackoff 	0
scalar IntersectionExampleScenario.node[31].nic.mac1609_4 	NumInternalContention 	0
scalar IntersectionExampleScenario.node[31].nic.mac1609_4 	totalBusyTime 	0
scalar IntersectionExampleScenario.node[31].veinsmobility 	startTime 	123.75
scalar IntersectionExampleScenario.node[31].veinsmobility 	totalTime 	44
scalar IntersectionExampleScenario.node[31].veinsmobility 	stopTime 	168
scalar IntersectionExampleScenario.node[31].veinsmobility 	minSpeed 	5.6500000953674
scalar IntersectionExampleScenario.node[31].veinsmobility 	maxSpeed 	15.983308792114
scalar IntersectionExampleScenario.node[31].veinsmobility 	totalDistance 	566.08897522272
scalar IntersectionExampleScenario.node[31].veinsmobility 	totalCO2Emission 	145.33943356293
scalar IntersectionExampleScenario.node[26].appl 	VehicleRemoved 	0
scalar IntersectionExampleScenario.node[26].appl 	ArrivedAtDest 	1
scalar IntersectionExampleScenario.node[26].appl 	IntersectionEnterTime 	113.25
scalar IntersectionExampleScenario.node[26].appl 	IntersectionExitTime 	155.35158049391
scalar IntersectionExampleScenario.node[26].appl 	NumberOfCollisions 	0
scalar IntersectionExampleScenario.node[26].nic.phy80211p 	busyTime 	0
scalar IntersectionExampleScenario.node[26].nic.mac1609_4 	ReceivedUnicastPackets 	0
scalar IntersectionExampleScenario.node[26].nic.mac1609_4 	ReceivedBroadcasts 	0
scalar IntersectionExampleScenario.node[26].nic.mac1609_4 	SentPackets 	0
scalar IntersectionExampleScenario.node[26].nic.mac1609_4 	SNIRLostPackets 	0
scalar IntersectionExampleScenario.node[26].nic.mac1609_4 	RXTXLostPackets 	0
scalar IntersectionExampleScenario.node[26].nic.mac1609_4 	TotalLostPackets 	0
scalar IntersectionExampleScenario.node[26].nic.mac1609_4 	DroppedPacketsInMac 	0
scalar IntersectionExampleScenario.node[26].nic.mac1609_4 	TooLittleTime 	0
scalar IntersectionExampleScenario.node[26].nic.mac1609_4 	TimesIntoBackoff 	0
scalar IntersectionExampleScenario.node[26].nic.mac1609_4 	SlotsBackoff 	0
scalar IntersectionExampleScenario.node[26].nic.mac1609_4 	NumInternalContention 	0
scalar IntersectionExampleScenario.node[26].nic.mac1609_4 	totalBusyTime 	0
scalar IntersectionExampleScenario.node[26].veinsmobility 	startTime 	113.25
scalar IntersectionExampleScenario.node[26].veinsmobility 	totalTime 	58.25
scalar IntersectionExampleScenario.node[26].veinsmobility 	stopTime 	171.75
scalar IntersectionExampleScenario.node[26].veinsmobility 	minSpeed 	0
scalar IntersectionExampleScenario.node[26].veinsmobility 	maxSpeed 	15.64999961853
scalar IntersectionExampleScenario.node[26].veinsmobility 	totalDistance 	525.81204223633
scalar IntersectionExampleScenario.node[26].veinsmobility 	totalCO2Emission 	147.59381332989
scalar IntersectionExampleScenario.node[23].appl 	VehicleRemoved 	0
scalar IntersectionExampleScenario.node[23].appl 	ArrivedAtDest 	1
scalar IntersectionExampleScenario.node[23].appl 	IntersectionEnterTime 	112
scalar IntersectionExampleScenario.node[23].appl 	IntersectionExitTime 	156.03779313154
scalar IntersectionExampleScenario.node[23].appl 	NumberOfCollisions 	0
scalar IntersectionExampleScenario.node[23].nic.phy80211p 	busyTime 	0
scalar IntersectionExampleScenario.node[23].nic.mac1609_4 	ReceivedUnicastPackets 	0
scalar IntersectionExampleScenario.node[23].nic.mac1609_4 	ReceivedBroadcasts 	0
scalar IntersectionExampleScenario.node[23].nic.mac1609_4 	SentPackets 	0
scalar IntersectionExampleScenario.node[23].nic.mac1609_4 	SNIRLostPackets 	0
scalar IntersectionExampleScenario.node[23].nic.mac1609_4 	RXTXLostPackets 	0
scalar IntersectionExampleScenario.node[23].nic.mac1609_4 	TotalLostPackets 	0
scalar IntersectionExampleScenario.node[23].nic.mac1609_4 	DroppedPacketsInMac 	0
scalar IntersectionExampleScenario.node[23].nic.mac1609_4 	TooLittleTime 	0
scalar IntersectionExampleScenario.node[23].nic.mac1609_4 	TimesIntoBackoff 	0
scalar IntersectionExampleScenario.node[23].nic.mac1609_4 	SlotsBackoff 	0
scalar IntersectionExampleScenario.node[23].nic.mac1609_4 	NumInternalContention 	0
scalar IntersectionExampleScenario.node[23].nic.mac1609_4 	totalBusyTime 	0
scalar IntersectionExampleScenario.node[23].veinsmobility 	startTime 	112
scalar IntersectionExampleScenario.node[23].veinsmobility 	totalTime 	60.5
scalar IntersectionExampleScenario.node[23].veinsmobility 	stopTime 	172.75
scalar IntersectionExampleScenario.node[23].veinsmobility 	minSpeed 	0
scalar IntersectionExampleScenario.node[23].veinsmobility 	maxSpeed 	15.875
scalar IntersectionExampleScenario.node[23].veinsmobility 	totalDistance 	543.43867602152
scalar IntersectionExampleScenario.node[23].veinsmobility 	totalCO2Emission 	154.45101284855
scalar IntersectionExampleScenario.node[24].appl 	VehicleRemoved 	0
scalar IntersectionExampleScenario.node[24].appl 	ArrivedAtDest 	1
scalar IntersectionExampleScenario.node[24].appl 	IntersectionEnterTime 	112.75
scalar IntersectionExampleScenario.node[24].appl 	IntersectionExitTime 	158.5508803548
scalar IntersectionExampleScenario.node[24].appl 	NumberOfCollisions 	0
scalar IntersectionExampleScenario.node[24].nic.phy80211p 	busyTime 	0
scalar IntersectionExampleScenario.node[24].nic.mac1609_4 	ReceivedUnicastPackets 	0
scalar IntersectionExampleScenario.node[24].nic.mac1609_4 	ReceivedBroadcasts 	0
scalar IntersectionExampleScenario.node[24].nic.mac1609_4 	SentPackets 	0
scalar IntersectionExampleScenario.node[24].nic.mac1609_4 	SNIRLostPackets 	0
scalar IntersectionExampleScenario.node[24].nic.mac1609_4 	RXTXLostPackets 	0
scalar IntersectionExampleScenario.node[24].nic.mac1609_4 	TotalLostPackets 	0
scalar IntersectionExampleScenario.node[24].nic.mac1609_4 	DroppedPacketsInMac 	0
scalar IntersectionExampleScenario.node[24].nic.mac1609_4 	TooLittleTime 	0
scalar IntersectionExampleScenario.node[24].nic.mac1609_4 	TimesIntoBackoff 	0
scalar IntersectionExampleScenario.node[24].nic.mac1609_4 	SlotsBackoff 	0
scalar IntersectionExampleScenario.node[24].nic.mac1609_4 	NumInternalContention 	0
scalar IntersectionExampleScenario.node[24].nic.mac1609_4 	totalBusyTime 	0
scalar IntersectionExampleScenario.node[24].veinsmobility 	startTime 	112.75
scalar IntersectionExampleScenario.node[24].veinsmobility 	totalTime 	63
scalar IntersectionExampleScenario.node[24].veinsmobility 	stopTime 	176
scalar IntersectionExampleScenario.node[24].veinsmobility 	minSpeed 	0
scalar IntersectionExampleScenario.node[24].veinsmobility 	maxSpeed 	15.25
scalar IntersectionExampleScenario.node[24].veinsmobility 	totalDistance 	568.66139038798
scalar IntersectionExampleScenario.node[24].veinsmobility 	totalCO2Emission 	151.54533299931
scalar IntersectionExampleScenario.node[27].appl 	VehicleRemoved 	0
scalar IntersectionExampleScenario.node[27].appl 	ArrivedAtDest 	1
scalar IntersectionExampleScenario.node[27].appl 	IntersectionEnterTime 	116.5
scalar IntersectionExampleScenario.node[27].appl 	IntersectionExitTime 	161.02161660828
scalar IntersectionExampleScenario.node[27].appl 	NumberOfCollisions 	0
scalar IntersectionExampleScenario.node[27].nic.phy80211p 	busyTime 	0
scalar IntersectionExampleScenario.node[27].nic.mac1609_4 	ReceivedUnicastPackets 	0
scalar IntersectionExampleScenario.node[27].nic.mac1609_4 	ReceivedBroadcasts 	0
scalar IntersectionExampleScenario.node[27].nic.mac1609_4 	SentPackets 	0
scalar IntersectionExampleScenario.node[27].nic.mac1609_4 	SNIRLostPackets 	0
scalar IntersectionExampleScenario.node[27].nic.mac1609_4 	RXTXLostPackets 	0
scalar IntersectionExampleScenario.node[27].nic.mac1609_4 	TotalLostPackets 	0
scalar IntersectionExampleScenario.node[27].nic.mac1609_4 	DroppedPacketsInMac 	0
scalar IntersectionExampleScenario.node[27].nic.mac1609_4 	TooLittleTime 	0
scalar IntersectionExampleScenario.node[27].nic.mac1609_4 	TimesIntoBackoff 	0
scalar IntersectionExampleScenario.node[27].nic.mac1609_4 	SlotsBackoff 	0
scalar IntersectionExampleScenario.node[27].nic.mac1609_4 	NumInternalContention 	0
scalar IntersectionExampleScenario.node[27].nic.mac1609_4 	totalBusyTime 	0
scalar IntersectionExampleScenario.node[27].veinsmobility 	startTime 	116.5
scalar IntersectionExampleScenario.node[27].veinsmobility 	totalTime 	61.25
scalar IntersectionExampleScenario.node[27].veinsmobility 	stopTime 	178
scalar IntersectionExampleScenario.node[27].veinsmobility 	minSpeed 	0
scalar IntersectionExampleScenario.node[27].veinsmobility 	maxSpeed 	15.30298614502
scalar IntersectionExampleScenario.node[27].veinsmobility 	totalDistance 	566.26174749512
scalar IntersectionExampleScenario.node[27].veinsmobility 	totalCO2Emission 	155.16923338401
scalar IntersectionExampleScenario.node[29].appl 	VehicleRemoved 	0
scalar IntersectionExampleScenario.node[29].appl 	ArrivedAtDest 	1
scalar IntersectionExampleScenario.node[29].appl 	IntersectionEnterTime 	122.5
scalar IntersectionExampleScenario.node[29].appl 	IntersectionExitTime 	163.5582490474
scalar IntersectionExampleScenario.node[29].appl 	NumberOfCollisions 	0
scalar IntersectionExampleScenario.node[29].nic.phy80211p 	busyTime 	0
scalar IntersectionExampleScenario.node[29].nic.mac1609_4 	ReceivedUnicastPackets 	0
scalar IntersectionExampleScenario.node[29].nic.mac1609_4 	ReceivedBroadcasts 	0
scalar IntersectionExampleScenario.node[29].nic.mac1609_4 	SentPackets 	0
scalar IntersectionExampleScenario.node[29].nic.mac1609_4 	SNIRLostPackets 	0
scalar IntersectionExampleScenario.node[29].nic.mac1609_4 	RXTXLostPackets 	0
scalar IntersectionExampleScenario.node[29].nic.mac1609_4 	TotalLostPackets 	0
scalar IntersectionExampleScenario.node[29].nic.mac1609_4 	DroppedPacketsInMac 	0
scalar IntersectionExampleScenario.node[29].nic.mac1609_4 	TooLittleTime 	0
scalar IntersectionExampleScenario.node[29].nic.mac1609_4 	TimesIntoBackoff 	0
scalar IntersectionExampleScenario.node[29].nic.mac1609_4 	SlotsBackoff 	0
scalar IntersectionExampleScenario.node[29].nic.mac1609_4 	NumInternalContention 	0
scalar IntersectionExampleScenario.node[29].nic.mac1609_4 	totalBusyTime 	0
scalar IntersectionExampleScenario.node[29].veinsmobility 	startTime 	122.5
scalar IntersectionExampleScenario.node[29].veinsmobility 	totalTime 	58.25
scalar IntersectionExampleScenario.node[29].veinsmobility 	stopTime 	181
scalar IntersectionExampleScenario.node[29].veinsmobility 	minSpeed 	0
scalar IntersectionExampleScenario.node[29].veinsmobility 	maxSpeed 	15.226003646851
scalar IntersectionExampleScenario.node[29].veinsmobility 	totalDistance 	544.8776428338
scalar IntersectionExampleScenario.node[29].veinsmobility 	totalCO2Emission 	142.68128053365
scalar IntersectionExampleScenario.node[32].appl 	VehicleRemoved 	0
scalar IntersectionExampleScenario.node[32].appl 	ArrivedAtDest 	1
scalar IntersectionExampleScenario.node[32].appl 	IntersectionEnterTime 	125.75
scalar IntersectionExampleScenario.node[32].appl 	IntersectionExitTime 	165.75235868833
scalar IntersectionExampleScenario.node[32].appl 	NumberOfCollisions 	0
scalar IntersectionExampleScenario.node[32].nic.phy80211p 	busyTime 	0
scalar IntersectionExampleScenario.node[32].nic.mac1609_4 	ReceivedUnicastPackets 	0
scalar IntersectionExampleScenario.node[32].nic.mac1609_4 	ReceivedBroadcasts 	0
scalar IntersectionExampleScenario.node[32].nic.mac1609_4 	SentPackets 	0
scalar IntersectionExampleScenario.node[32].nic.mac1609_4 	SNIRLostPackets 	0
scalar IntersectionExampleScenario.node[32].nic.mac1609_4 	RXTXLostPackets 	0
scalar IntersectionExampleScenario.node[32].nic.mac1609_4 	TotalLostPackets 	0
scalar IntersectionExampleScenario.node[32].nic.mac1609_4 	DroppedPacketsInMac 	0
scalar IntersectionExampleScenario.node[32].nic.mac1609_4 	TooLittleTime 	0
scalar IntersectionExampleScenario.node[32].nic.mac1609_4 	TimesIntoBackoff 	0
scalar IntersectionExampleScenario.node[32].nic.mac1609_4 	SlotsBackoff 	0
scalar IntersectionExampleScenario.node[32].nic.mac1609_4 	NumInternalContention 	0
scalar IntersectionExampleScenario.node[32].nic.mac1609_4 	totalBusyTime 	0
scalar IntersectionExampleScenario.node[32].veinsmobility 	startTime 	125.75
scalar IntersectionExampleScenario.node[32].veinsmobility 	totalTime 	56
scalar IntersectionExampleScenario.node[32].veinsmobility 	stopTime 	182
scalar IntersectionExampleScenario.node[32].veinsmobility 	minSpeed 	0
scalar IntersectionExampleScenario.node[32].veinsmobility 	maxSpeed 	16
scalar IntersectionExampleScenario.node[32].veinsmobility 	totalDistance 	551.38068514299
scalar IntersectionExampleScenario.node[32].veinsmobility 	totalCO2Emission 	150.78722445826
scalar IntersectionExampleScenario.node[35].appl 	VehicleRemoved 	0
scalar IntersectionExampleScenario.node[35].appl 	ArrivedAtDest 	1
scalar IntersectionExampleScenario.node[35].appl 	IntersectionEnterTime 	140.75
scalar IntersectionExampleScenario.node[35].appl 	IntersectionExitTime 	168.01795391965
scalar IntersectionExampleScenario.node[35].appl 	NumberOfCollisions 	0
scalar IntersectionExampleScenario.node[35].nic.phy80211p 	busyTime 	0
scalar IntersectionExampleScenario.node[35].nic.mac1609_4 	ReceivedUnicastPackets 	0
scalar IntersectionExampleScenario.node[35].nic.mac1609_4 	ReceivedBroadcasts 	0
scalar IntersectionExampleScenario.node[35].nic.mac1609_4 	SentPackets 	0
scalar IntersectionExampleScenario.node[35].nic.mac1609_4 	SNIRLostPackets 	0
scalar IntersectionExampleScenario.node[35].nic.mac1609_4 	RXTXLostPackets 	0
scalar IntersectionExampleScenario.node[35].nic.mac1609_4 	TotalLostPackets 	0
scalar IntersectionExampleScenario.node[35].nic.mac1609_4 	DroppedPacketsInMac 	0
scalar IntersectionExampleScenario.node[35].nic.mac1609_4 	TooLittleTime 	0
scalar IntersectionExampleScenario.node[35].nic.mac1609_4 	TimesIntoBackoff 	0
scalar IntersectionExampleScenario.node[35].nic.mac1609_4 	SlotsBackoff 	0
scalar IntersectionExampleScenario.node[35].nic.mac1609_4 	NumInternalContention 	0
scalar IntersectionExampleScenario.node[35].nic.mac1609_4 	totalBusyTime 	0
scalar IntersectionExampleScenario.node[35].veinsmobility 	startTime 	140.75
scalar IntersectionExampleScenario.node[35].veinsmobility 	totalTime 	43.5
scalar IntersectionExampleScenario.node[35].veinsmobility 	stopTime 	184.5
scalar IntersectionExampleScenario.node[35].veinsmobility 	minSpeed 	4.8565821647644
scalar IntersectionExampleScenario.node[35].veinsmobility 	maxSpeed 	15.090081214905
scalar IntersectionExampleScenario.node[35].veinsmobility 	totalDistance 	553.97261047363
scalar IntersectionExampleScenario.node[35].veinsmobility 	totalCO2Emission 	131.67405454539
scalar IntersectionExampleScenario.node[34].appl 	VehicleRemoved 	0
scalar IntersectionExampleScenario.node[34].appl 	ArrivedAtDest 	1
scalar IntersectionExampleScenario.node[34].appl 	IntersectionEnterTime 	135.25
scalar IntersectionExampleScenario.node[34].appl 	IntersectionExitTime 	168.50968218417
scalar IntersectionExampleScenario.node[34].appl 	NumberOfCollisions 	0
scalar IntersectionExampleScenario.node[34].nic.phy80211p 	busyTime 	0
scalar IntersectionExampleScenario.node[34].nic.mac1609_4 	ReceivedUnicastPackets 	0
scalar IntersectionExampleScenario.node[34].nic.mac1609_4 	ReceivedBroadcasts 	0
scalar IntersectionExampleScenario.node[34].nic.mac1609_4 	SentPackets 	0
scalar IntersectionExampleScenario.node[34].nic.mac1609_4 	SNIRLostPackets 	0
scalar IntersectionExampleScenario.node[34].nic.mac1609_4 	RXTXLostPackets 	0
scalar IntersectionExampleScenario.node[34].nic.mac1609_4 	TotalLostPackets 	0
scalar IntersectionExampleScenario.node[34].nic.mac1609_4 	DroppedPacketsInMac 	0
scalar IntersectionExampleScenario.node[34].nic.mac1609_4 	TooLittleTime 	0
scalar IntersectionExampleScenario.node[34].nic.mac1609_4 	TimesIntoBackoff 	0
scalar IntersectionExampleScenario.node[34].nic.mac1609_4 	SlotsBackoff 	0
scalar IntersectionExampleScenario.node[34].nic.mac1609_4 	NumInternalContention 	0
scalar IntersectionExampleScenario.node[34].nic.mac1609_4 	totalBusyTime 	0
scalar IntersectionExampleScenario.node[34].veinsmobility 	startTime 	135.25
scalar IntersectionExampleScenario.node[34].veinsmobility 	totalTime 	49.25
scalar IntersectionExampleScenario.node[34].veinsmobility 	stopTime 	184.75
scalar IntersectionExampleScenario.node[34].veinsmobility 	minSpeed 	0
scalar IntersectionExampleScenario.node[34].veinsmobility 	maxSpeed 	16.27499961853
scalar IntersectionExampleScenario.node[34].veinsmobility 	totalDistance 	544.14542536096
scalar IntersectionExampleScenario.node[34].veinsmobility 	totalCO2Emission 	151.8406784517
scalar IntersectionExampleScenario.node[36].appl 	VehicleRemoved 	0
scalar IntersectionExampleScenario.node[36].appl 	ArrivedAtDest 	1
scalar IntersectionExampleScenario.node[36].appl 	IntersectionEnterTime 	147.75
scalar IntersectionExampleScenario.node[36].appl 	IntersectionExitTime 	172.85721377775
scalar IntersectionExampleScenario.node[36].appl 	NumberOfCollisions 	0
scalar IntersectionExampleScenario.node[36].nic.phy80211p 	busyTime 	0
scalar IntersectionExampleScenario.node[36].nic.mac1609_4 	ReceivedUnicastPackets 	0
scalar IntersectionExampleScenario.node[36].nic.mac1609_4 	ReceivedBroadcasts 	0
scalar IntersectionExampleScenario.node[36].nic.mac1609_4 	SentPackets 	0
scalar IntersectionExampleScenario.node[36].nic.mac1609_4 	SNIRLostPackets 	0
scalar IntersectionExampleScenario.node[36].nic.mac1609_4 	RXTXLostPackets 	0
scalar IntersectionExampleScenario.node[36].nic.mac1609_4 	TotalLostPackets 	0
scalar IntersectionExampleScenario.node[36].nic.mac1609_4 	DroppedPacketsInMac 	0
scalar IntersectionExampleScenario.node[36].nic.mac1609_4 	TooLittleTime 	0
scalar IntersectionExampleScenario.node[36].nic.mac1609_4 	TimesIntoBackoff 	0
scalar IntersectionExampleScenario.node[36].nic.mac1609_4 	SlotsBackoff 	0
scalar IntersectionExampleScenario.node[36].nic.mac1609_4 	NumInternalContention 	0
scalar IntersectionExampleScenario.node[36].nic.mac1609_4 	totalBusyTime 	0
scalar IntersectionExampleScenario.node[36].veinsmobility 	startTime 	147.75
scalar IntersectionExampleScenario.node[36].veinsmobility 	totalTime 	42
scalar IntersectionExampleScenario.node[36].veinsmobility 	stopTime 	190
scalar IntersectionExampleScenario.node[36].veinsmobility 	minSpeed 	5.6500000953674
scalar IntersectionExampleScenario.node[36].veinsmobility 	maxSpeed 	15.25
scalar IntersectionExampleScenario.node[36].veinsmobility 	totalDistance 	544.32041045584
scalar IntersectionExampleScenario.node[36].veinsmobility 	totalCO2Emission 	134.99330985671
scalar IntersectionExampleScenario.node[38].appl 	VehicleRemoved 	0
scalar IntersectionExampleScenario.node[38].appl 	ArrivedAtDest 	1
scalar IntersectionExampleScenario.node[38].appl 	IntersectionEnterTime 	154.75
scalar IntersectionExampleScenario.node[38].appl 	IntersectionExitTime 	179.07274897787
scalar IntersectionExampleScenario.node[38].appl 	NumberOfCollisions 	0
scalar IntersectionExampleScenario.node[38].nic.phy80211p 	busyTime 	0
scalar IntersectionExampleScenario.node[38].nic.mac1609_4 	ReceivedUnicastPackets 	0
scalar IntersectionExampleScenario.node[38].nic.mac1609_4 	ReceivedBroadcasts 	0
scalar IntersectionExampleScenario.node[38].nic.mac1609_4 	SentPackets 	0
scalar IntersectionExampleScenario.node[38].nic.mac1609_4 	SNIRLostPackets 	0
scalar IntersectionExampleScenario.node[38].nic.mac1609_4 	RXTXLostPackets 	0
scalar IntersectionExampleScenario.node[38].nic.mac1609_4 	TotalLostPackets 	0
scalar IntersectionExampleScenario.node[38].nic.mac1609_4 	DroppedPacketsInMac 	0
scalar IntersectionExampleScenario.node[38].nic.mac1609_4 	TooLittleTime 	0
scalar IntersectionExampleScenario.node[38].nic.mac1609_4 	TimesIntoBackoff 	0
scalar IntersectionExampleScenario.node[38].nic.mac1609_4 	SlotsBackoff 	0
scalar IntersectionExampleScenario.node[38].nic.mac1609_4 	NumInternalContention 	0
scalar IntersectionExampleScenario.node[38].nic.mac1609_4 	totalBusyTime 	0
scalar IntersectionExampleScenario.node[38].veinsmobility 	startTime 	154.75
scalar IntersectionExampleScenario.node[38].veinsmobility 	totalTime 	41.5
scalar IntersectionExampleScenario.node[38].veinsmobility 	stopTime 	196.5
scalar IntersectionExampleScenario.node[38].veinsmobility 	minSpeed 	5.6500000953674
scalar IntersectionExampleScenario.node[38].veinsmobility 	maxSpeed 	15.25
scalar IntersectionExampleScenario.node[38].veinsmobility 	totalDistance 	545.77495599631
scalar IntersectionExampleScenario.node[38].veinsmobility 	totalCO2Emission 	124.11222163117
scalar IntersectionExampleScenario.node[33].appl 	VehicleRemoved 	0
scalar IntersectionExampleScenario.node[33].appl 	ArrivedAtDest 	1
scalar IntersectionExampleScenario.node[33].appl 	IntersectionEnterTime 	133
scalar IntersectionExampleScenario.node[33].appl 	IntersectionExitTime 	190.31514014784
scalar IntersectionExampleScenario.node[33].appl 	NumberOfCollisions 	0
scalar IntersectionExampleScenario.node[33].nic.phy80211p 	busyTime 	0
scalar IntersectionExampleScenario.node[33].nic.mac1609_4 	ReceivedUnicastPackets 	0
scalar IntersectionExampleScenario.node[33].nic.mac1609_4 	ReceivedBroadcasts 	0
scalar IntersectionExampleScenario.node[33].nic.mac1609_4 	SentPackets 	0
scalar IntersectionExampleScenario.node[33].nic.mac1609_4 	SNIRLostPackets 	0
scalar IntersectionExampleScenario.node[33].nic.mac1609_4 	RXTXLostPackets 	0
scalar IntersectionExampleScenario.node[33].nic.mac1609_4 	TotalLostPackets 	0
scalar IntersectionExampleScenario.node[33].nic.mac1609_4 	DroppedPacketsInMac 	0
scalar IntersectionExampleScenario.node[33].nic.mac1609_4 	TooLittleTime 	0
scalar IntersectionExampleScenario.node[33].nic.mac1609_4 	TimesIntoBackoff 	0
scalar IntersectionExampleScenario.node[33].nic.mac1609_4 	SlotsBackoff 	0
scalar IntersectionExampleScenario.node[33].nic.mac1609_4 	NumInternalContention 	0
scalar IntersectionExampleScenario.node[33].nic.mac1609_4 	totalBusyTime 	0
scalar IntersectionExampleScenario.node[33].veinsmobility 	startTime 	133
scalar IntersectionExampleScenario.node[33].veinsmobility 	totalTime 	73.5
scalar IntersectionExampleScenario.node[33].veinsmobility 	stopTime 	206.75
scalar IntersectionExampleScenario.node[33].veinsmobility 	minSpeed 	0
scalar IntersectionExampleScenario.node[33].veinsmobility 	maxSpeed 	15.375
scalar IntersectionExampleScenario.node[33].veinsmobility 	totalDistance 	552.21952819824
scalar IntersectionExampleScenario.node[33].veinsmobility 	totalCO2Emission 	171.20594288855
scalar IntersectionExampleScenario.node[37].appl 	VehicleRemoved 	0
scalar IntersectionExampleScenario.node[37].appl 	ArrivedAtDest 	1
scalar IntersectionExampleScenario.node[37].appl 	IntersectionEnterTime 	150
scalar IntersectionExampleScenario.node[37].appl 	IntersectionExitTime 	191.09537609253
scalar IntersectionExampleScenario.node[37].appl 	NumberOfCollisions 	0
scalar IntersectionExampleScenario.node[37].nic.phy80211p 	busyTime 	0
scalar IntersectionExampleScenario.node[37].nic.mac1609_4 	ReceivedUnicastPackets 	0
scalar IntersectionExampleScenario.node[37].nic.mac1609_4 	ReceivedBroadcasts 	0
scalar IntersectionExampleScenario.node[37].nic.mac1609_4 	SentPackets 	0
scalar IntersectionExampleScenario.node[37].nic.mac1609_4 	SNIRLostPackets 	0
scalar IntersectionExampleScenario.node[37].nic.mac1609_4 	RXTXLostPackets 	0
scalar IntersectionExampleScenario.node[37].nic.mac1609_4 	TotalLostPackets 	0
scalar IntersectionExampleScenario.node[37].nic.mac1609_4 	DroppedPacketsInMac 	0
scalar IntersectionExampleScenario.node[37].nic.mac1609_4 	TooLittleTime 	0
scalar IntersectionExampleScenario.node[37].nic.mac1609_4 	TimesIntoBackoff 	0
scalar IntersectionExampleScenario.node[37].nic.mac1609_4 	SlotsBackoff 	0
scalar IntersectionExampleScenario.node[37].nic.mac1609_4 	NumInternalContention 	0
scalar IntersectionExampleScenario.node[37].nic.mac1609_4 	totalBusyTime 	0
scalar IntersectionExampleScenario.node[37].veinsmobility 	startTime 	150
scalar IntersectionExampleScenario.node[37].veinsmobility 	totalTime 	57.5
scalar IntersectionExampleScenario.node[37].veinsmobility 	stopTime 	207.75
scalar IntersectionExampleScenario.node[37].veinsmobility 	minSpeed 	0
scalar IntersectionExampleScenario.node[37].veinsmobility 	maxSpeed 	15.925316810608
scalar IntersectionExampleScenario.node[37].veinsmobility 	totalDistance 	545.54351818958
scalar IntersectionExampleScenario.node[37].veinsmobility 	totalCO2Emission 	149.32394025751
scalar IntersectionExampleScenario.node[39].appl 	VehicleRemoved 	0
scalar IntersectionExampleScenario.node[39].appl 	ArrivedAtDest 	1
scalar IntersectionExampleScenario.node[39].appl 	IntersectionEnterTime 	158
scalar IntersectionExampleScenario.node[39].appl 	IntersectionExitTime 	200.82411216039
scalar IntersectionExampleScenario.node[39].appl 	NumberOfCollisions 	0
scalar IntersectionExampleScenario.node[39].nic.phy80211p 	busyTime 	0
scalar IntersectionExampleScenario.node[39].nic.mac1609_4 	ReceivedUnicastPackets 	0
scalar IntersectionExampleScenario.node[39].nic.mac1609_4 	ReceivedBroadcasts 	0
scalar IntersectionExampleScenario.node[39].nic.mac1609_4 	SentPackets 	0
scalar IntersectionExampleScenario.node[39].nic.mac1609_4 	SNIRLostPackets 	0
scalar IntersectionExampleScenario.node[39].nic.mac1609_4 	RXTXLostPackets 	0
scalar IntersectionExampleScenario.node[39].nic.mac1609_4 	TotalLostPackets 	0
scalar IntersectionExampleScenario.node[39].nic.mac1609_4 	DroppedPacketsInMac 	0
scalar IntersectionExampleScenario.node[39].nic.mac1609_4 	TooLittleTime 	0
scalar IntersectionExampleScenario.node[39].nic.mac1609_4 	TimesIntoBackoff 	0
scalar IntersectionExampleScenario.node[39].nic.mac1609_4 	SlotsBackoff 	0
[...]
scalar IntersectionExampleScenario.manager 	Direction-North-StDev 	9.2003315350476
scalar IntersectionExampleScenario.manager 	Direction-East-StDev 	8.675424666435
scalar IntersectionExampleScenario.node[511].appl 	VehicleRemoved 	0
scalar IntersectionExampleScenario.node[511].appl 	ArrivedAtDest 	0
scalar IntersectionExampleScenario.node[511].appl 	IntersectionEnterTime 	1751.5
scalar IntersectionExampleScenario.node[511].appl 	IntersectionExitTime 	-1
scalar IntersectionExampleScenario.node[511].appl 	NumberOfCollisions 	0
scalar IntersectionExampleScenario.node[511].nic.phy80211p 	busyTime 	0
scalar IntersectionExampleScenario.node[511].nic.mac1609_4 	ReceivedUnicastPackets 	0
scalar IntersectionExampleScenario.node[511].nic.mac1609_4 	ReceivedBroadcasts 	0
scalar IntersectionExampleScenario.node[511].nic.mac1609_4 	SentPackets 	0
scalar IntersectionExampleScenario.node[511].nic.mac1609_4 	SNIRLostPackets 	0
scalar IntersectionExampleScenario.node[511].nic.mac1609_4 	RXTXLostPackets 	0
scalar IntersectionExampleScenario.node[511].nic.mac1609_4 	TotalLostPackets 	0
scalar IntersectionExampleScenario.node[511].nic.mac1609_4 	DroppedPacketsInMac 	0
scalar IntersectionExampleScenario.node[511].nic.mac1609_4 	TooLittleTime 	0
scalar IntersectionExampleScenario.node[511].nic.mac1609_4 	TimesIntoBackoff 	0
scalar IntersectionExampleScenario.node[511].nic.mac1609_4 	SlotsBackoff 	0
scalar IntersectionExampleScenario.node[511].nic.mac1609_4 	NumInternalContention 	0
scalar IntersectionExampleScenario.node[511].nic.mac1609_4 	totalBusyTime 	0
scalar IntersectionExampleScenario.node[511].veinsmobility 	startTime 	1751.5
scalar IntersectionExampleScenario.node[511].veinsmobility 	totalTime 	48.5
scalar IntersectionExampleScenario.node[511].veinsmobility 	stopTime 	1800
scalar IntersectionExampleScenario.node[511].veinsmobility 	minSpeed 	0
scalar IntersectionExampleScenario.node[511].veinsmobility 	maxSpeed 	15.02499961853
scalar IntersectionExampleScenario.node[511].veinsmobility 	totalDistance 	310.00003051758
scalar IntersectionExampleScenario.node[511].veinsmobility 	totalCO2Emission 	106.83085197847
scalar IntersectionExampleScenario.node[512].appl 	VehicleRemoved 	0
scalar IntersectionExampleScenario.node[512].appl 	ArrivedAtDest 	0
scalar IntersectionExampleScenario.node[512].appl 	IntersectionEnterTime 	1757
scalar IntersectionExampleScenario.node[512].appl 	IntersectionExitTime 	-1
scalar IntersectionExampleScenario.node[512].appl 	NumberOfCollisions 	0
scalar IntersectionExampleScenario.node[512].nic.phy80211p 	busyTime 	0
scalar IntersectionExampleScenario.node[512].nic.mac1609_4 	ReceivedUnicastPackets 	0
scalar IntersectionExampleScenario.node[512].nic.mac1609_4 	ReceivedBroadcasts 	0
scalar IntersectionExampleScenario.node[512].nic.mac1609_4 	SentPackets 	0
scalar IntersectionExampleScenario.node[512].nic.mac1609_4 	SNIRLostPackets 	0
scalar IntersectionExampleScenario.node[512].nic.mac1609_4 	RXTXLostPackets 	0
scalar IntersectionExampleScenario.node[512].nic.mac1609_4 	TotalLostPackets 	0
scalar IntersectionExampleScenario.node[512].nic.mac1609_4 	DroppedPacketsInMac 	0
scalar IntersectionExampleScenario.node[512].nic.mac1609_4 	TooLittleTime 	0
scalar IntersectionExampleScenario.node[512].nic.mac1609_4 	TimesIntoBackoff 	0
scalar IntersectionExampleScenario.node[512].nic.mac1609_4 	SlotsBackoff 	0
scalar IntersectionExampleScenario.node[512].nic.mac1609_4 	NumInternalContention 	0
scalar IntersectionExampleScenario.node[512].nic.mac1609_4 	totalBusyTime 	0
scalar IntersectionExampleScenario.node[512].veinsmobility 	startTime 	1757
scalar IntersectionExampleScenario.node[512].veinsmobility 	totalTime 	43
scalar IntersectionExampleScenario.node[512].veinsmobility 	stopTime 	1800
scalar IntersectionExampleScenario.node[512].veinsmobility 	minSpeed 	0
scalar IntersectionExampleScenario.node[512].veinsmobility 	maxSpeed 	15.3161277771
scalar IntersectionExampleScenario.node[512].veinsmobility 	totalDistance 	298.91966896065
scalar IntersectionExampleScenario.node[512].veinsmobility 	totalCO2Emission 	96.801780301352
scalar IntersectionExampleScenario.node[513].appl 	VehicleRemoved 	0
scalar IntersectionExampleScenario.node[513].appl 	ArrivedAtDest 	0
scalar IntersectionExampleScenario.node[513].appl 	IntersectionEnterTime 	1769.25
scalar IntersectionExampleScenario.node[513].appl 	IntersectionExitTime 	-1
scalar IntersectionExampleScenario.node[513].appl 	NumberOfCollisions 	0
scalar IntersectionExampleScenario.node[513].nic.phy80211p 	busyTime 	0
scalar IntersectionExampleScenario.node[513].nic.mac1609_4 	ReceivedUnicastPackets 	0
scalar IntersectionExampleScenario.node[513].nic.mac1609_4 	ReceivedBroadcasts 	0
scalar IntersectionExampleScenario.node[513].nic.mac1609_4 	SentPackets 	0
scalar IntersectionExampleScenario.node[513].nic.mac1609_4 	SNIRLostPackets 	0
scalar IntersectionExampleScenario.node[513].nic.mac1609_4 	RXTXLostPackets 	0
scalar IntersectionExampleScenario.node[513].nic.mac1609_4 	TotalLostPackets 	0
scalar IntersectionExampleScenario.node[513].nic.mac1609_4 	DroppedPacketsInMac 	0
scalar IntersectionExampleScenario.node[513].nic.mac1609_4 	TooLittleTime 	0
scalar IntersectionExampleScenario.node[513].nic.mac1609_4 	TimesIntoBackoff 	0
scalar IntersectionExampleScenario.node[513].nic.mac1609_4 	SlotsBackoff 	0
scalar IntersectionExampleScenario.node[513].nic.mac1609_4 	NumInternalContention 	0
scalar IntersectionExampleScenario.node[513].nic.mac1609_4 	totalBusyTime 	0
scalar IntersectionExampleScenario.node[513].veinsmobility 	startTime 	1769.25
scalar IntersectionExampleScenario.node[513].veinsmobility 	totalTime 	30.75
scalar IntersectionExampleScenario.node[513].veinsmobility 	stopTime 	1800
scalar IntersectionExampleScenario.node[513].veinsmobility 	minSpeed 	0
scalar IntersectionExampleScenario.node[513].veinsmobility 	maxSpeed 	16.27499961853
scalar IntersectionExampleScenario.node[513].veinsmobility 	totalDistance 	287.42188262939
scalar IntersectionExampleScenario.node[513].veinsmobility 	totalCO2Emission 	76.077046367404
scalar IntersectionExampleScenario.node[514].appl 	VehicleRemoved 	0
scalar IntersectionExampleScenario.node[514].appl 	ArrivedAtDest 	0
scalar IntersectionExampleScenario.node[514].appl 	IntersectionEnterTime 	1775
scalar IntersectionExampleScenario.node[514].appl 	IntersectionExitTime 	1797.0097137699
scalar IntersectionExampleScenario.node[514].appl 	NumberOfCollisions 	0
scalar IntersectionExampleScenario.node[514].nic.phy80211p 	busyTime 	0
scalar IntersectionExampleScenario.node[514].nic.mac1609_4 	ReceivedUnicastPackets 	0
scalar IntersectionExampleScenario.node[514].nic.mac1609_4 	ReceivedBroadcasts 	0
scalar IntersectionExampleScenario.node[514].nic.mac1609_4 	SentPackets 	0
scalar IntersectionExampleScenario.node[514].nic.mac1609_4 	SNIRLostPackets 	0
scalar IntersectionExampleScenario.node[514].nic.mac1609_4 	RXTXLostPackets 	0
scalar IntersectionExampleScenario.node[514].nic.mac1609_4 	TotalLostPackets 	0
scalar IntersectionExampleScenario.node[514].nic.mac1609_4 	DroppedPacketsInMac 	0
scalar IntersectionExampleScenario.node[514].nic.mac1609_4 	TooLittleTime 	0
scalar IntersectionExampleScenario.node[514].nic.mac1609_4 	TimesIntoBackoff 	0
scalar IntersectionExampleScenario.node[514].nic.mac1609_4 	SlotsBackoff 	0
scalar IntersectionExampleScenario.node[514].nic.mac1609_4 	NumInternalContention 	0
scalar IntersectionExampleScenario.node[514].nic.mac1609_4 	totalBusyTime 	0
scalar IntersectionExampleScenario.node[514].veinsmobility 	startTime 	1775
scalar IntersectionExampleScenario.node[514].veinsmobility 	totalTime 	25
scalar IntersectionExampleScenario.node[514].veinsmobility 	stopTime 	1800
scalar IntersectionExampleScenario.node[514].veinsmobility 	minSpeed 	5.6500000953674
scalar IntersectionExampleScenario.node[514].veinsmobility 	maxSpeed 	16.75
scalar IntersectionExampleScenario.node[514].veinsmobility 	totalDistance 	356.22187042236
scalar IntersectionExampleScenario.node[514].veinsmobility 	totalCO2Emission 	97.667211631718
scalar IntersectionExampleScenario.node[515].appl 	VehicleRemoved 	0
scalar IntersectionExampleScenario.node[515].appl 	ArrivedAtDest 	0
scalar IntersectionExampleScenario.node[515].appl 	IntersectionEnterTime 	1775.5
scalar IntersectionExampleScenario.node[515].appl 	IntersectionExitTime 	-1
scalar IntersectionExampleScenario.node[515].appl 	NumberOfCollisions 	0
scalar IntersectionExampleScenario.node[515].nic.phy80211p 	busyTime 	0
scalar IntersectionExampleScenario.node[515].nic.mac1609_4 	ReceivedUnicastPackets 	0
scalar IntersectionExampleScenario.node[515].nic.mac1609_4 	ReceivedBroadcasts 	0
scalar IntersectionExampleScenario.node[515].nic.mac1609_4 	SentPackets 	0
scalar IntersectionExampleScenario.node[515].nic.mac1609_4 	SNIRLostPackets 	0
scalar IntersectionExampleScenario.node[515].nic.mac1609_4 	RXTXLostPackets 	0
scalar IntersectionExampleScenario.node[515].nic.mac1609_4 	TotalLostPackets 	0
scalar IntersectionExampleScenario.node[515].nic.mac1609_4 	DroppedPacketsInMac 	0
scalar IntersectionExampleScenario.node[515].nic.mac1609_4 	TooLittleTime 	0
scalar IntersectionExampleScenario.node[515].nic.mac1609_4 	TimesIntoBackoff 	0
scalar IntersectionExampleScenario.node[515].nic.mac1609_4 	SlotsBackoff 	0
scalar IntersectionExampleScenario.node[515].nic.mac1609_4 	NumInternalContention 	0
scalar IntersectionExampleScenario.node[515].nic.mac1609_4 	totalBusyTime 	0
scalar IntersectionExampleScenario.node[515].veinsmobility 	startTime 	1775.5
scalar IntersectionExampleScenario.node[515].veinsmobility 	totalTime 	24.5
scalar IntersectionExampleScenario.node[515].veinsmobility 	stopTime 	1800
scalar IntersectionExampleScenario.node[515].veinsmobility 	minSpeed 	1.6000179052353
scalar IntersectionExampleScenario.node[515].veinsmobility 	maxSpeed 	16.347663879395
scalar IntersectionExampleScenario.node[515].veinsmobility 	totalDistance 	277.46225738525
scalar IntersectionExampleScenario.node[515].veinsmobility 	totalCO2Emission 	67.980736621013
scalar IntersectionExampleScenario.node[516].appl 	VehicleRemoved 	0
scalar IntersectionExampleScenario.node[516].appl 	ArrivedAtDest 	0
scalar IntersectionExampleScenario.node[516].appl 	IntersectionEnterTime 	1780.75
scalar IntersectionExampleScenario.node[516].appl 	IntersectionExitTime 	-1
scalar IntersectionExampleScenario.node[516].appl 	NumberOfCollisions 	0
scalar IntersectionExampleScenario.node[516].nic.phy80211p 	busyTime 	0
scalar IntersectionExampleScenario.node[516].nic.mac1609_4 	ReceivedUnicastPackets 	0
scalar IntersectionExampleScenario.node[516].nic.mac1609_4 	ReceivedBroadcasts 	0
scalar IntersectionExampleScenario.node[516].nic.mac1609_4 	SentPackets 	0
scalar IntersectionExampleScenario.node[516].nic.mac1609_4 	SNIRLostPackets 	0
scalar IntersectionExampleScenario.node[516].nic.mac1609_4 	RXTXLostPackets 	0
scalar IntersectionExampleScenario.node[516].nic.mac1609_4 	TotalLostPackets 	0
scalar IntersectionExampleScenario.node[516].nic.mac1609_4 	DroppedPacketsInMac 	0
scalar IntersectionExampleScenario.node[516].nic.mac1609_4 	TooLittleTime 	0
scalar IntersectionExampleScenario.node[516].nic.mac1609_4 	TimesIntoBackoff 	0
scalar IntersectionExampleScenario.node[516].nic.mac1609_4 	SlotsBackoff 	0
scalar IntersectionExampleScenario.node[516].nic.mac1609_4 	NumInternalContention 	0
scalar IntersectionExampleScenario.node[516].nic.mac1609_4 	totalBusyTime 	0
scalar IntersectionExampleScenario.node[516].veinsmobility 	startTime 	1780.75
scalar IntersectionExampleScenario.node[516].veinsmobility 	totalTime 	19.25
scalar IntersectionExampleScenario.node[516].veinsmobility 	stopTime 	1800
scalar IntersectionExampleScenario.node[516].veinsmobility 	minSpeed 	5.6500000953674
scalar IntersectionExampleScenario.node[516].veinsmobility 	maxSpeed 	15.02499961853
scalar IntersectionExampleScenario.node[516].veinsmobility 	totalDistance 	258.02102661133
scalar IntersectionExampleScenario.node[516].veinsmobility 	totalCO2Emission 	69.283624986591
scalar IntersectionExampleScenario.node[517].appl 	VehicleRemoved 	0
scalar IntersectionExampleScenario.node[517].appl 	ArrivedAtDest 	0
scalar IntersectionExampleScenario.node[517].appl 	IntersectionEnterTime 	1781
scalar IntersectionExampleScenario.node[517].appl 	IntersectionExitTime 	-1
scalar IntersectionExampleScenario.node[517].appl 	NumberOfCollisions 	0
scalar IntersectionExampleScenario.node[517].nic.phy80211p 	busyTime 	0
scalar IntersectionExampleScenario.node[517].nic.mac1609_4 	ReceivedUnicastPackets 	0
scalar IntersectionExampleScenario.node[517].nic.mac1609_4 	ReceivedBroadcasts 	0
scalar IntersectionExampleScenario.node[517].nic.mac1609_4 	SentPackets 	0
scalar IntersectionExampleScenario.node[517].nic.mac1609_4 	SNIRLostPackets 	0
scalar IntersectionExampleScenario.node[517].nic.mac1609_4 	RXTXLostPackets 	0
scalar IntersectionExampleScenario.node[517].nic.mac1609_4 	TotalLostPackets 	0
scalar IntersectionExampleScenario.node[517].nic.mac1609_4 	DroppedPacketsInMac 	0
scalar IntersectionExampleScenario.node[517].nic.mac1609_4 	TooLittleTime 	0
scalar IntersectionExampleScenario.node[517].nic.mac1609_4 	TimesIntoBackoff 	0
scalar IntersectionExampleScenario.node[517].nic.mac1609_4 	SlotsBackoff 	0
scalar IntersectionExampleScenario.node[517].nic.mac1609_4 	NumInternalContention 	0
scalar IntersectionExampleScenario.node[517].nic.mac1609_4 	totalBusyTime 	0
scalar IntersectionExampleScenario.node[517].veinsmobility 	startTime 	1781
scalar IntersectionExampleScenario.node[517].veinsmobility 	totalTime 	19
scalar IntersectionExampleScenario.node[517].veinsmobility 	stopTime 	1800
scalar IntersectionExampleScenario.node[517].veinsmobility 	minSpeed 	5.6500000953674
scalar IntersectionExampleScenario.node[517].veinsmobility 	maxSpeed 	15.64999961853
scalar IntersectionExampleScenario.node[517].veinsmobility 	totalDistance 	236.09894561768
scalar IntersectionExampleScenario.node[517].veinsmobility 	totalCO2Emission 	58.128898759769
scalar IntersectionExampleScenario.node[518].appl 	VehicleRemoved 	0
scalar IntersectionExampleScenario.node[518].appl 	ArrivedAtDest 	0
scalar IntersectionExampleScenario.node[518].appl 	IntersectionEnterTime 	1784.25
scalar IntersectionExampleScenario.node[518].appl 	IntersectionExitTime 	-1
scalar IntersectionExampleScenario.node[518].appl 	NumberOfCollisions 	0
scalar IntersectionExampleScenario.node[518].nic.phy80211p 	busyTime 	0
scalar IntersectionExampleScenario.node[518].nic.mac1609_4 	ReceivedUnicastPackets 	0
scalar IntersectionExampleScenario.node[518].nic.mac1609_4 	ReceivedBroadcasts 	0
scalar IntersectionExampleScenario.node[518].nic.mac1609_4 	SentPackets 	0
scalar IntersectionExampleScenario.node[518].nic.mac1609_4 	SNIRLostPackets 	0
scalar IntersectionExampleScenario.node[518].nic.mac1609_4 	RXTXLostPackets 	0
scalar IntersectionExampleScenario.node[518].nic.mac1609_4 	TotalLostPackets 	0
scalar IntersectionExampleScenario.node[518].nic.mac1609_4 	DroppedPacketsInMac 	0
scalar IntersectionExampleScenario.node[518].nic.mac1609_4 	TooLittleTime 	0
scalar IntersectionExampleScenario.node[518].nic.mac1609_4 	TimesIntoBackoff 	0
scalar IntersectionExampleScenario.node[518].nic.mac1609_4 	SlotsBackoff 	0
scalar IntersectionExampleScenario.node[518].nic.mac1609_4 	NumInternalContention 	0
scalar IntersectionExampleScenario.node[518].nic.mac1609_4 	totalBusyTime 	0
scalar IntersectionExampleScenario.node[518].veinsmobility 	startTime 	1784.25
scalar IntersectionExampleScenario.node[518].veinsmobility 	totalTime 	15.75
scalar IntersectionExampleScenario.node[518].veinsmobility 	stopTime 	1800
scalar IntersectionExampleScenario.node[518].veinsmobility 	minSpeed 	5.6500000953674
scalar IntersectionExampleScenario.node[518].veinsmobility 	maxSpeed 	16.27499961853
scalar IntersectionExampleScenario.node[518].veinsmobility 	totalDistance 	224.71124267578
scalar IntersectionExampleScenario.node[518].veinsmobility 	totalCO2Emission 	59.604494982751
scalar IntersectionExampleScenario.node[519].appl 	VehicleRemoved 	0
scalar IntersectionExampleScenario.node[519].appl 	ArrivedAtDest 	0
scalar IntersectionExampleScenario.node[519].appl 	IntersectionEnterTime 	1793
scalar IntersectionExampleScenario.node[519].appl 	IntersectionExitTime 	-1
scalar IntersectionExampleScenario.node[519].appl 	NumberOfCollisions 	0
scalar IntersectionExampleScenario.node[519].nic.phy80211p 	busyTime 	0
scalar IntersectionExampleScenario.node[519].nic.mac1609_4 	ReceivedUnicastPackets 	0
scalar IntersectionExampleScenario.node[519].nic.mac1609_4 	ReceivedBroadcasts 	0
scalar IntersectionExampleScenario.node[519].nic.mac1609_4 	SentPackets 	0
scalar IntersectionExampleScenario.node[519].nic.mac1609_4 	SNIRLostPackets 	0
scalar IntersectionExampleScenario.node[519].nic.mac1609_4 	RXTXLostPackets 	0
scalar IntersectionExampleScenario.node[519].nic.mac1609_4 	TotalLostPackets 	0
scalar IntersectionExampleScenario.node[519].nic.mac1609_4 	DroppedPacketsInMac 	0
scalar IntersectionExampleScenario.node[519].nic.mac1609_4 	TooLittleTime 	0
scalar IntersectionExampleScenario.node[519].nic.mac1609_4 	TimesIntoBackoff 	0
scalar IntersectionExampleScenario.node[519].nic.mac1609_4 	SlotsBackoff 	0
scalar IntersectionExampleScenario.node[519].nic.mac1609_4 	NumInternalContention 	0
scalar IntersectionExampleScenario.node[519].nic.mac1609_4 	totalBusyTime 	0
scalar IntersectionExampleScenario.node[519].veinsmobility 	startTime 	1793
scalar IntersectionExampleScenario.node[519].veinsmobility 	totalTime 	7
scalar IntersectionExampleScenario.node[519].veinsmobility 	stopTime 	1800
scalar IntersectionExampleScenario.node[519].veinsmobility 	minSpeed 	5.6500000953674
scalar IntersectionExampleScenario.node[519].veinsmobility 	maxSpeed 	15.02499961853
scalar IntersectionExampleScenario.node[519].veinsmobility 	totalDistance 	84.230163574219
scalar IntersectionExampleScenario.node[519].veinsmobility 	totalCO2Emission 	35.607589180258
scalar IntersectionExampleScenario.node[520].appl 	VehicleRemoved 	0
scalar IntersectionExampleScenario.node[520].appl 	ArrivedAtDest 	0
scalar IntersectionExampleScenario.node[520].appl 	IntersectionEnterTime 	1793
scalar IntersectionExampleScenario.node[520].appl 	IntersectionExitTime 	-1
scalar IntersectionExampleScenario.node[520].appl 	NumberOfCollisions 	0
scalar IntersectionExampleScenario.node[520].nic.phy80211p 	busyTime 	0
scalar IntersectionExampleScenario.node[520].nic.mac1609_4 	ReceivedUnicastPackets 	0
scalar IntersectionExampleScenario.node[520].nic.mac1609_4 	ReceivedBroadcasts 	0
scalar IntersectionExampleScenario.node[520].nic.mac1609_4 	SentPackets 	0
scalar IntersectionExampleScenario.node[520].nic.mac1609_4 	SNIRLostPackets 	0
scalar IntersectionExampleScenario.node[520].nic.mac1609_4 	RXTXLostPackets 	0
scalar IntersectionExampleScenario.node[520].nic.mac1609_4 	TotalLostPackets 	0
scalar IntersectionExampleScenario.node[520].nic.mac1609_4 	DroppedPacketsInMac 	0
scalar IntersectionExampleScenario.node[520].nic.mac1609_4 	TooLittleTime 	0
scalar IntersectionExampleScenario.node[520].nic.mac1609_4 	TimesIntoBackoff 	0
scalar IntersectionExampleScenario.node[520].nic.mac1609_4 	SlotsBackoff 	0
scalar IntersectionExampleScenario.node[520].nic.mac1609_4 	NumInternalContention 	0
scalar IntersectionExampleScenario.node[520].nic.mac1609_4 	totalBusyTime 	0
scalar IntersectionExampleScenario.node[520].veinsmobility 	startTime 	1793
scalar IntersectionExampleScenario.node[520].veinsmobility 	totalTime 	7
scalar IntersectionExampleScenario.node[520].veinsmobility 	stopTime 	1800
scalar IntersectionExampleScenario.node[520].veinsmobility 	minSpeed 	5.6500000953674
scalar IntersectionExampleScenario.node[520].veinsmobility 	maxSpeed 	15.02499961853
scalar IntersectionExampleScenario.node[520].veinsmobility 	totalDistance 	84.983642578125
scalar IntersectionExampleScenario.node[520].veinsmobility 	totalCO2Emission 	36.770124932688
