version 2
run nodebug-48-20200606-19:12:34-22420
attr configname nodebug
attr datetime 20200606-19:12:34
attr experiment nodebug
attr inifile omnetpp.ini
attr iterationvars ""
attr iterationvars2 $repetition=48
attr measurement ""
attr network "\"org.car2x.veins.modules.application.ExtTraCIScenarioManagerLaunchd.IntersectionExampleScenario\""
attr processid 22420
attr repetition 48
attr replication #48
attr resultdir results
attr runnumber 48
attr seedset 48
param **.coreDebug false
param **.debug false
param *.**.nic.mac1609_4.bitrate 18Mbps
param *.**.nic.mac1609_4.txPower 20mW
param *.**.nic.mac1609_4.useServiceChannel false
param *.**.nic.phy80211p.analogueModels "xmldoc(\"config.xml\")"
param *.**.nic.phy80211p.decider "xmldoc(\"config.xml\")"
param *.**.nic.phy80211p.sensitivity -89dBm
param *.**.nic.phy80211p.thermalNoise -110dBm
param *.**.nic.phy80211p.usePropagationDelay true
param *.**.nic.phy80211p.useThermalNoise true
param *.annotations.draw false
param *.connectionManager.alpha 2.0
param *.connectionManager.carrierFrequency "5.890e9 Hz"
param *.connectionManager.pMax 20mW
param *.connectionManager.sat -89dBm
param *.connectionManager.sendDirect true
param *.manager.autoShutdown true
param *.manager.host "\"localhost\""
param *.manager.launchConfig "xmldoc(\"paramics.launchd.xml\")"
param *.manager.margin 25
param *.manager.moduleDisplayString "\"\""
param *.manager.moduleName "\"node\""
param *.manager.moduleType "\"org.car2x.veins.nodes.Car\""
param *.manager.port 9999
param *.manager.updateInterval 250ms
param *.node[*0].veinsmobility.accidentCount 0
param *.node[*0].veinsmobility.accidentDuration 30s
param *.node[*0].veinsmobility.accidentStart 75s
param *.node[*].appl.LiderSelectZoneRadio 55.0
param *.node[*].appl.ShareDataZoneRadio 110.0
param *.node[*].appl.TiempoSemaforo 30.0
param *.node[*].appl.beaconInterval 1s
param *.node[*].appl.beaconPriority 3
param *.node[*].appl.dataOnSch false
param *.node[*].appl.dataPriority 2
param *.node[*].appl.debug false
param *.node[*].appl.headerLength "256 bit"
param *.node[*].appl.maxOffset 0.005s
param *.node[*].appl.sendBeacons false
param *.node[*].appl.sendData true
param *.node[*].applType "\"Dummy\""
param *.node[*].mobilityType "\"TraCIMobility\""
param *.node[*].mobilityType.debug true
param *.node[*].veinsmobility.x 0
param *.node[*].veinsmobility.y 0
param *.node[*].veinsmobility.z 1.895
param *.node[*].veinsmobilityType "\"org.car2x.veins.modules.mobility.traci.TraCIMobility\""
param *.node[*].veinsmobilityType.debug true
param *.playgroundSizeX 8500m
param *.playgroundSizeY 8500m
param *.playgroundSizeZ 50m
param *.world.use2D false
param *.world.useTorus false

scalar IntersectionExampleScenario.node[0].appl 	VehicleRemoved 	0
scalar IntersectionExampleScenario.node[0].appl 	ArrivedAtDest 	1
scalar IntersectionExampleScenario.node[0].appl 	IntersectionEnterTime 	2.25
scalar IntersectionExampleScenario.node[0].appl 	IntersectionExitTime 	26.037372047082
scalar IntersectionExampleScenario.node[0].appl 	NumberOfCollisions 	0
scalar IntersectionExampleScenario.node[0].nic.phy80211p 	busyTime 	0
scalar IntersectionExampleScenario.node[0].nic.mac1609_4 	ReceivedUnicastPackets 	0
scalar IntersectionExampleScenario.node[0].nic.mac1609_4 	ReceivedBroadcasts 	0
scalar IntersectionExampleScenario.node[0].nic.mac1609_4 	SentPackets 	0
scalar IntersectionExampleScenario.node[0].nic.mac1609_4 	SNIRLostPackets 	0
scalar IntersectionExampleScenario.node[0].nic.mac1609_4 	RXTXLostPackets 	0
scalar IntersectionExampleScenario.node[0].nic.mac1609_4 	TotalLostPackets 	0
scalar IntersectionExampleScenario.node[0].nic.mac1609_4 	DroppedPacketsInMac 	0
scalar IntersectionExampleScenario.node[0].nic.mac1609_4 	TooLittleTime 	0
scalar IntersectionExampleScenario.node[0].nic.mac1609_4 	TimesIntoBackoff 	0
scalar IntersectionExampleScenario.node[0].nic.mac1609_4 	SlotsBackoff 	0
scalar IntersectionExampleScenario.node[0].nic.mac1609_4 	NumInternalContention 	0
scalar IntersectionExampleScenario.node[0].nic.mac1609_4 	totalBusyTime 	0
scalar IntersectionExampleScenario.node[0].veinsmobility 	startTime 	2.25
scalar IntersectionExampleScenario.node[0].veinsmobility 	totalTime 	40
scalar IntersectionExampleScenario.node[0].veinsmobility 	stopTime 	42.5
scalar IntersectionExampleScenario.node[0].veinsmobility 	minSpeed 	5.6500000953674
scalar IntersectionExampleScenario.node[0].veinsmobility 	maxSpeed 	15.5
scalar IntersectionExampleScenario.node[0].veinsmobility 	totalDistance 	553.49147033691
scalar IntersectionExampleScenario.node[0].veinsmobility 	totalCO2Emission 	121.18255379217
scalar IntersectionExampleScenario.node[1].appl 	VehicleRemoved 	0
scalar IntersectionExampleScenario.node[1].appl 	ArrivedAtDest 	1
scalar IntersectionExampleScenario.node[1].appl 	IntersectionEnterTime 	3.25
scalar IntersectionExampleScenario.node[1].appl 	IntersectionExitTime 	26.555939078506
scalar IntersectionExampleScenario.node[1].appl 	NumberOfCollisions 	0
scalar IntersectionExampleScenario.node[1].nic.phy80211p 	busyTime 	0
scalar IntersectionExampleScenario.node[1].nic.mac1609_4 	ReceivedUnicastPackets 	0
scalar IntersectionExampleScenario.node[1].nic.mac1609_4 	ReceivedBroadcasts 	0
scalar IntersectionExampleScenario.node[1].nic.mac1609_4 	SentPackets 	0
scalar IntersectionExampleScenario.node[1].nic.mac1609_4 	SNIRLostPackets 	0
scalar IntersectionExampleScenario.node[1].nic.mac1609_4 	RXTXLostPackets 	0
scalar IntersectionExampleScenario.node[1].nic.mac1609_4 	TotalLostPackets 	0
scalar IntersectionExampleScenario.node[1].nic.mac1609_4 	DroppedPacketsInMac 	0
scalar IntersectionExampleScenario.node[1].nic.mac1609_4 	TooLittleTime 	0
scalar IntersectionExampleScenario.node[1].nic.mac1609_4 	TimesIntoBackoff 	0
scalar IntersectionExampleScenario.node[1].nic.mac1609_4 	SlotsBackoff 	0
scalar IntersectionExampleScenario.node[1].nic.mac1609_4 	NumInternalContention 	0
scalar IntersectionExampleScenario.node[1].nic.mac1609_4 	totalBusyTime 	0
scalar IntersectionExampleScenario.node[1].veinsmobility 	startTime 	3.25
scalar IntersectionExampleScenario.node[1].veinsmobility 	totalTime 	39.75
scalar IntersectionExampleScenario.node[1].veinsmobility 	stopTime 	43.25
scalar IntersectionExampleScenario.node[1].veinsmobility 	minSpeed 	5.6500000953674
scalar IntersectionExampleScenario.node[1].veinsmobility 	maxSpeed 	15.875
scalar IntersectionExampleScenario.node[1].veinsmobility 	totalDistance 	546.13377363286
scalar IntersectionExampleScenario.node[1].veinsmobility 	totalCO2Emission 	129.59465577152
scalar IntersectionExampleScenario.node[6].appl 	VehicleRemoved 	0
scalar IntersectionExampleScenario.node[6].appl 	ArrivedAtDest 	1
scalar IntersectionExampleScenario.node[6].appl 	IntersectionEnterTime 	14.25
scalar IntersectionExampleScenario.node[6].appl 	IntersectionExitTime 	37.571872948552
scalar IntersectionExampleScenario.node[6].appl 	NumberOfCollisions 	0
scalar IntersectionExampleScenario.node[6].nic.phy80211p 	busyTime 	0
scalar IntersectionExampleScenario.node[6].nic.mac1609_4 	ReceivedUnicastPackets 	0
scalar IntersectionExampleScenario.node[6].nic.mac1609_4 	ReceivedBroadcasts 	0
scalar IntersectionExampleScenario.node[6].nic.mac1609_4 	SentPackets 	0
scalar IntersectionExampleScenario.node[6].nic.mac1609_4 	SNIRLostPackets 	0
scalar IntersectionExampleScenario.node[6].nic.mac1609_4 	RXTXLostPackets 	0
scalar IntersectionExampleScenario.node[6].nic.mac1609_4 	TotalLostPackets 	0
scalar IntersectionExampleScenario.node[6].nic.mac1609_4 	DroppedPacketsInMac 	0
scalar IntersectionExampleScenario.node[6].nic.mac1609_4 	TooLittleTime 	0
scalar IntersectionExampleScenario.node[6].nic.mac1609_4 	TimesIntoBackoff 	0
scalar IntersectionExampleScenario.node[6].nic.mac1609_4 	SlotsBackoff 	0
scalar IntersectionExampleScenario.node[6].nic.mac1609_4 	NumInternalContention 	0
scalar IntersectionExampleScenario.node[6].nic.mac1609_4 	totalBusyTime 	0
scalar IntersectionExampleScenario.node[6].veinsmobility 	startTime 	14.25
scalar IntersectionExampleScenario.node[6].veinsmobility 	totalTime 	39.5
scalar IntersectionExampleScenario.node[6].veinsmobility 	stopTime 	54
scalar IntersectionExampleScenario.node[6].veinsmobility 	minSpeed 	5.6500000953674
scalar IntersectionExampleScenario.node[6].veinsmobility 	maxSpeed 	15.64999961853
scalar IntersectionExampleScenario.node[6].veinsmobility 	totalDistance 	550.74516712925
scalar IntersectionExampleScenario.node[6].veinsmobility 	totalCO2Emission 	122.88181662431
scalar IntersectionExampleScenario.node[4].appl 	VehicleRemoved 	0
scalar IntersectionExampleScenario.node[4].appl 	ArrivedAtDest 	1
scalar IntersectionExampleScenario.node[4].appl 	IntersectionEnterTime 	10.25
scalar IntersectionExampleScenario.node[4].appl 	IntersectionExitTime 	39.301104401296
scalar IntersectionExampleScenario.node[4].appl 	NumberOfCollisions 	0
scalar IntersectionExampleScenario.node[4].nic.phy80211p 	busyTime 	0
scalar IntersectionExampleScenario.node[4].nic.mac1609_4 	ReceivedUnicastPackets 	0
scalar IntersectionExampleScenario.node[4].nic.mac1609_4 	ReceivedBroadcasts 	0
scalar IntersectionExampleScenario.node[4].nic.mac1609_4 	SentPackets 	0
scalar IntersectionExampleScenario.node[4].nic.mac1609_4 	SNIRLostPackets 	0
scalar IntersectionExampleScenario.node[4].nic.mac1609_4 	RXTXLostPackets 	0
scalar IntersectionExampleScenario.node[4].nic.mac1609_4 	TotalLostPackets 	0
scalar IntersectionExampleScenario.node[4].nic.mac1609_4 	DroppedPacketsInMac 	0
scalar IntersectionExampleScenario.node[4].nic.mac1609_4 	TooLittleTime 	0
scalar IntersectionExampleScenario.node[4].nic.mac1609_4 	TimesIntoBackoff 	0
scalar IntersectionExampleScenario.node[4].nic.mac1609_4 	SlotsBackoff 	0
scalar IntersectionExampleScenario.node[4].nic.mac1609_4 	NumInternalContention 	0
scalar IntersectionExampleScenario.node[4].nic.mac1609_4 	totalBusyTime 	0
scalar IntersectionExampleScenario.node[4].veinsmobility 	startTime 	10.25
scalar IntersectionExampleScenario.node[4].veinsmobility 	totalTime 	46
scalar IntersectionExampleScenario.node[4].veinsmobility 	stopTime 	56.5
scalar IntersectionExampleScenario.node[4].veinsmobility 	minSpeed 	0
scalar IntersectionExampleScenario.node[4].veinsmobility 	maxSpeed 	14.75
scalar IntersectionExampleScenario.node[4].veinsmobility 	totalDistance 	550.34266771426
scalar IntersectionExampleScenario.node[4].veinsmobility 	totalCO2Emission 	131.17280610606
scalar IntersectionExampleScenario.node[5].appl 	VehicleRemoved 	0
scalar IntersectionExampleScenario.node[5].appl 	ArrivedAtDest 	1
scalar IntersectionExampleScenario.node[5].appl 	IntersectionEnterTime 	14
scalar IntersectionExampleScenario.node[5].appl 	IntersectionExitTime 	40.026679994044
scalar IntersectionExampleScenario.node[5].appl 	NumberOfCollisions 	0
scalar IntersectionExampleScenario.node[5].nic.phy80211p 	busyTime 	0
scalar IntersectionExampleScenario.node[5].nic.mac1609_4 	ReceivedUnicastPackets 	0
scalar IntersectionExampleScenario.node[5].nic.mac1609_4 	ReceivedBroadcasts 	0
scalar IntersectionExampleScenario.node[5].nic.mac1609_4 	SentPackets 	0
scalar IntersectionExampleScenario.node[5].nic.mac1609_4 	SNIRLostPackets 	0
scalar IntersectionExampleScenario.node[5].nic.mac1609_4 	RXTXLostPackets 	0
scalar IntersectionExampleScenario.node[5].nic.mac1609_4 	TotalLostPackets 	0
scalar IntersectionExampleScenario.node[5].nic.mac1609_4 	DroppedPacketsInMac 	0
scalar IntersectionExampleScenario.node[5].nic.mac1609_4 	TooLittleTime 	0
scalar IntersectionExampleScenario.node[5].nic.mac1609_4 	TimesIntoBackoff 	0
scalar IntersectionExampleScenario.node[5].nic.mac1609_4 	SlotsBackoff 	0
scalar IntersectionExampleScenario.node[5].nic.mac1609_4 	NumInternalContention 	0
scalar IntersectionExampleScenario.node[5].nic.mac1609_4 	totalBusyTime 	0
scalar IntersectionExampleScenario.node[5].veinsmobility 	startTime 	14
scalar IntersectionExampleScenario.node[5].veinsmobility 	totalTime 	42.5
scalar IntersectionExampleScenario.node[5].veinsmobility 	stopTime 	56.75
scalar IntersectionExampleScenario.node[5].veinsmobility 	minSpeed 	4.1484527587891
scalar IntersectionExampleScenario.node[5].veinsmobility 	maxSpeed 	15.875
scalar IntersectionExampleScenario.node[5].veinsmobility 	totalDistance 	551.12097182517
scalar IntersectionExampleScenario.node[5].veinsmobility 	totalCO2Emission 	134.57630339228
scalar IntersectionExampleScenario.node[9].appl 	VehicleRemoved 	0
scalar IntersectionExampleScenario.node[9].appl 	ArrivedAtDest 	1
scalar IntersectionExampleScenario.node[9].appl 	IntersectionEnterTime 	20.75
scalar IntersectionExampleScenario.node[9].appl 	IntersectionExitTime 	43.846496153681
scalar IntersectionExampleScenario.node[9].appl 	NumberOfCollisions 	0
scalar IntersectionExampleScenario.node[9].nic.phy80211p 	busyTime 	0
scalar IntersectionExampleScenario.node[9].nic.mac1609_4 	ReceivedUnicastPackets 	0
scalar IntersectionExampleScenario.node[9].nic.mac1609_4 	ReceivedBroadcasts 	0
scalar IntersectionExampleScenario.node[9].nic.mac1609_4 	SentPackets 	0
scalar IntersectionExampleScenario.node[9].nic.mac1609_4 	SNIRLostPackets 	0
scalar IntersectionExampleScenario.node[9].nic.mac1609_4 	RXTXLostPackets 	0
scalar IntersectionExampleScenario.node[9].nic.mac1609_4 	TotalLostPackets 	0
scalar IntersectionExampleScenario.node[9].nic.mac1609_4 	DroppedPacketsInMac 	0
scalar IntersectionExampleScenario.node[9].nic.mac1609_4 	TooLittleTime 	0
scalar IntersectionExampleScenario.node[9].nic.mac1609_4 	TimesIntoBackoff 	0
scalar IntersectionExampleScenario.node[9].nic.mac1609_4 	SlotsBackoff 	0
scalar IntersectionExampleScenario.node[9].nic.mac1609_4 	NumInternalContention 	0
scalar IntersectionExampleScenario.node[9].nic.mac1609_4 	totalBusyTime 	0
scalar IntersectionExampleScenario.node[9].veinsmobility 	startTime 	20.75
scalar IntersectionExampleScenario.node[9].veinsmobility 	totalTime 	38.75
scalar IntersectionExampleScenario.node[9].veinsmobility 	stopTime 	59.75
scalar IntersectionExampleScenario.node[9].veinsmobility 	minSpeed 	5.6500000953674
scalar IntersectionExampleScenario.node[9].veinsmobility 	maxSpeed 	15.925097465515
scalar IntersectionExampleScenario.node[9].veinsmobility 	totalDistance 	553.47818756104
scalar IntersectionExampleScenario.node[9].veinsmobility 	totalCO2Emission 	127.74779874564
scalar IntersectionExampleScenario.node[2].appl 	VehicleRemoved 	0
scalar IntersectionExampleScenario.node[2].appl 	ArrivedAtDest 	1
scalar IntersectionExampleScenario.node[2].appl 	IntersectionEnterTime 	3.75
scalar IntersectionExampleScenario.node[2].appl 	IntersectionExitTime 	50.26773714443
scalar IntersectionExampleScenario.node[2].appl 	NumberOfCollisions 	0
scalar IntersectionExampleScenario.node[2].nic.phy80211p 	busyTime 	0
scalar IntersectionExampleScenario.node[2].nic.mac1609_4 	ReceivedUnicastPackets 	0
scalar IntersectionExampleScenario.node[2].nic.mac1609_4 	ReceivedBroadcasts 	0
scalar IntersectionExampleScenario.node[2].nic.mac1609_4 	SentPackets 	0
scalar IntersectionExampleScenario.node[2].nic.mac1609_4 	SNIRLostPackets 	0
scalar IntersectionExampleScenario.node[2].nic.mac1609_4 	RXTXLostPackets 	0
scalar IntersectionExampleScenario.node[2].nic.mac1609_4 	TotalLostPackets 	0
scalar IntersectionExampleScenario.node[2].nic.mac1609_4 	DroppedPacketsInMac 	0
scalar IntersectionExampleScenario.node[2].nic.mac1609_4 	TooLittleTime 	0
scalar IntersectionExampleScenario.node[2].nic.mac1609_4 	TimesIntoBackoff 	0
scalar IntersectionExampleScenario.node[2].nic.mac1609_4 	SlotsBackoff 	0
scalar IntersectionExampleScenario.node[2].nic.mac1609_4 	NumInternalContention 	0
scalar IntersectionExampleScenario.node[2].nic.mac1609_4 	totalBusyTime 	0
scalar IntersectionExampleScenario.node[2].veinsmobility 	startTime 	3.75
scalar IntersectionExampleScenario.node[2].veinsmobility 	totalTime 	62.75
scalar IntersectionExampleScenario.node[2].veinsmobility 	stopTime 	66.75
scalar IntersectionExampleScenario.node[2].veinsmobility 	minSpeed 	0
scalar IntersectionExampleScenario.node[2].veinsmobility 	maxSpeed 	15.375
scalar IntersectionExampleScenario.node[2].veinsmobility 	totalDistance 	549.30344499698
scalar IntersectionExampleScenario.node[2].veinsmobility 	totalCO2Emission 	152.71690135272
scalar IntersectionExampleScenario.node[3].appl 	VehicleRemoved 	0
scalar IntersectionExampleScenario.node[3].appl 	ArrivedAtDest 	1
scalar IntersectionExampleScenario.node[3].appl 	IntersectionEnterTime 	9.75
scalar IntersectionExampleScenario.node[3].appl 	IntersectionExitTime 	51.324093050614
scalar IntersectionExampleScenario.node[3].appl 	NumberOfCollisions 	0
scalar IntersectionExampleScenario.node[3].nic.phy80211p 	busyTime 	0
scalar IntersectionExampleScenario.node[3].nic.mac1609_4 	ReceivedUnicastPackets 	0
scalar IntersectionExampleScenario.node[3].nic.mac1609_4 	ReceivedBroadcasts 	0
scalar IntersectionExampleScenario.node[3].nic.mac1609_4 	SentPackets 	0
scalar IntersectionExampleScenario.node[3].nic.mac1609_4 	SNIRLostPackets 	0
scalar IntersectionExampleScenario.node[3].nic.mac1609_4 	RXTXLostPackets 	0
scalar IntersectionExampleScenario.node[3].nic.mac1609_4 	TotalLostPackets 	0
scalar IntersectionExampleScenario.node[3].nic.mac1609_4 	DroppedPacketsInMac 	0
scalar IntersectionExampleScenario.node[3].nic.mac1609_4 	TooLittleTime 	0
scalar IntersectionExampleScenario.node[3].nic.mac1609_4 	TimesIntoBackoff 	0
scalar IntersectionExampleScenario.node[3].nic.mac1609_4 	SlotsBackoff 	0
scalar IntersectionExampleScenario.node[3].nic.mac1609_4 	NumInternalContention 	0
scalar IntersectionExampleScenario.node[3].nic.mac1609_4 	totalBusyTime 	0
scalar IntersectionExampleScenario.node[3].veinsmobility 	startTime 	9.75
scalar IntersectionExampleScenario.node[3].veinsmobility 	totalTime 	58
scalar IntersectionExampleScenario.node[3].veinsmobility 	stopTime 	68
scalar IntersectionExampleScenario.node[3].veinsmobility 	minSpeed 	0
scalar IntersectionExampleScenario.node[3].veinsmobility 	maxSpeed 	15.02499961853
scalar IntersectionExampleScenario.node[3].veinsmobility 	totalDistance 	553.23411560059
scalar IntersectionExampleScenario.node[3].veinsmobility 	totalCO2Emission 	144.59167070661
scalar IntersectionExampleScenario.node[8].appl 	VehicleRemoved 	0
scalar IntersectionExampleScenario.node[8].appl 	ArrivedAtDest 	1
scalar IntersectionExampleScenario.node[8].appl 	IntersectionEnterTime 	20.5
scalar IntersectionExampleScenario.node[8].appl 	IntersectionExitTime 	53.826703798113
scalar IntersectionExampleScenario.node[8].appl 	NumberOfCollisions 	0
scalar IntersectionExampleScenario.node[8].nic.phy80211p 	busyTime 	0
scalar IntersectionExampleScenario.node[8].nic.mac1609_4 	ReceivedUnicastPackets 	0
scalar IntersectionExampleScenario.node[8].nic.mac1609_4 	ReceivedBroadcasts 	0
scalar IntersectionExampleScenario.node[8].nic.mac1609_4 	SentPackets 	0
scalar IntersectionExampleScenario.node[8].nic.mac1609_4 	SNIRLostPackets 	0
scalar IntersectionExampleScenario.node[8].nic.mac1609_4 	RXTXLostPackets 	0
scalar IntersectionExampleScenario.node[8].nic.mac1609_4 	TotalLostPackets 	0
scalar IntersectionExampleScenario.node[8].nic.mac1609_4 	DroppedPacketsInMac 	0
scalar IntersectionExampleScenario.node[8].nic.mac1609_4 	TooLittleTime 	0
scalar IntersectionExampleScenario.node[8].nic.mac1609_4 	TimesIntoBackoff 	0
scalar IntersectionExampleScenario.node[8].nic.mac1609_4 	SlotsBackoff 	0
scalar IntersectionExampleScenario.node[8].nic.mac1609_4 	NumInternalContention 	0
scalar IntersectionExampleScenario.node[8].nic.mac1609_4 	totalBusyTime 	0
scalar IntersectionExampleScenario.node[8].veinsmobility 	startTime 	20.5
scalar IntersectionExampleScenario.node[8].veinsmobility 	totalTime 	50.25
scalar IntersectionExampleScenario.node[8].veinsmobility 	stopTime 	71
scalar IntersectionExampleScenario.node[8].veinsmobility 	minSpeed 	1.9694932699203
scalar IntersectionExampleScenario.node[8].veinsmobility 	maxSpeed 	15.25
scalar IntersectionExampleScenario.node[8].veinsmobility 	totalDistance 	545.48820745449
scalar IntersectionExampleScenario.node[8].veinsmobility 	totalCO2Emission 	136.98221745068
scalar IntersectionExampleScenario.node[7].appl 	VehicleRemoved 	0
scalar IntersectionExampleScenario.node[7].appl 	ArrivedAtDest 	1
scalar IntersectionExampleScenario.node[7].appl 	IntersectionEnterTime 	16.5
scalar IntersectionExampleScenario.node[7].appl 	IntersectionExitTime 	60.58491560386
scalar IntersectionExampleScenario.node[7].appl 	NumberOfCollisions 	0
scalar IntersectionExampleScenario.node[7].nic.phy80211p 	busyTime 	0
scalar IntersectionExampleScenario.node[7].nic.mac1609_4 	ReceivedUnicastPackets 	0
scalar IntersectionExampleScenario.node[7].nic.mac1609_4 	ReceivedBroadcasts 	0
scalar IntersectionExampleScenario.node[7].nic.mac1609_4 	SentPackets 	0
scalar IntersectionExampleScenario.node[7].nic.mac1609_4 	SNIRLostPackets 	0
scalar IntersectionExampleScenario.node[7].nic.mac1609_4 	RXTXLostPackets 	0
scalar IntersectionExampleScenario.node[7].nic.mac1609_4 	TotalLostPackets 	0
scalar IntersectionExampleScenario.node[7].nic.mac1609_4 	DroppedPacketsInMac 	0
scalar IntersectionExampleScenario.node[7].nic.mac1609_4 	TooLittleTime 	0
scalar IntersectionExampleScenario.node[7].nic.mac1609_4 	TimesIntoBackoff 	0
scalar IntersectionExampleScenario.node[7].nic.mac1609_4 	SlotsBackoff 	0
scalar IntersectionExampleScenario.node[7].nic.mac1609_4 	NumInternalContention 	0
scalar IntersectionExampleScenario.node[7].nic.mac1609_4 	totalBusyTime 	0
scalar IntersectionExampleScenario.node[7].veinsmobility 	startTime 	16.5
scalar IntersectionExampleScenario.node[7].veinsmobility 	totalTime 	61.25
scalar IntersectionExampleScenario.node[7].veinsmobility 	stopTime 	78
scalar IntersectionExampleScenario.node[7].veinsmobility 	minSpeed 	0
scalar IntersectionExampleScenario.node[7].veinsmobility 	maxSpeed 	15.25
scalar IntersectionExampleScenario.node[7].veinsmobility 	totalDistance 	561.2666616574
scalar IntersectionExampleScenario.node[7].veinsmobility 	totalCO2Emission 	150.05727825749
scalar IntersectionExampleScenario.node[10].appl 	VehicleRemoved 	0
scalar IntersectionExampleScenario.node[10].appl 	ArrivedAtDest 	1
scalar IntersectionExampleScenario.node[10].appl 	IntersectionEnterTime 	31.5
scalar IntersectionExampleScenario.node[10].appl 	IntersectionExitTime 	74.272433176084
scalar IntersectionExampleScenario.node[10].appl 	NumberOfCollisions 	0
scalar IntersectionExampleScenario.node[10].nic.phy80211p 	busyTime 	0
scalar IntersectionExampleScenario.node[10].nic.mac1609_4 	ReceivedUnicastPackets 	0
scalar IntersectionExampleScenario.node[10].nic.mac1609_4 	ReceivedBroadcasts 	0
scalar IntersectionExampleScenario.node[10].nic.mac1609_4 	SentPackets 	0
scalar IntersectionExampleScenario.node[10].nic.mac1609_4 	SNIRLostPackets 	0
scalar IntersectionExampleScenario.node[10].nic.mac1609_4 	RXTXLostPackets 	0
scalar IntersectionExampleScenario.node[10].nic.mac1609_4 	TotalLostPackets 	0
scalar IntersectionExampleScenario.node[10].nic.mac1609_4 	DroppedPacketsInMac 	0
scalar IntersectionExampleScenario.node[10].nic.mac1609_4 	TooLittleTime 	0
scalar IntersectionExampleScenario.node[10].nic.mac1609_4 	TimesIntoBackoff 	0
scalar IntersectionExampleScenario.node[10].nic.mac1609_4 	SlotsBackoff 	0
scalar IntersectionExampleScenario.node[10].nic.mac1609_4 	NumInternalContention 	0
scalar IntersectionExampleScenario.node[10].nic.mac1609_4 	totalBusyTime 	0
scalar IntersectionExampleScenario.node[10].veinsmobility 	startTime 	31.5
scalar IntersectionExampleScenario.node[10].veinsmobility 	totalTime 	58.75
scalar IntersectionExampleScenario.node[10].veinsmobility 	stopTime 	90.5
scalar IntersectionExampleScenario.node[10].veinsmobility 	minSpeed 	0
scalar IntersectionExampleScenario.node[10].veinsmobility 	maxSpeed 	15.64999961853
scalar IntersectionExampleScenario.node[10].veinsmobility 	totalDistance 	553.61808013916
scalar IntersectionExampleScenario.node[10].veinsmobility 	totalCO2Emission 	151.46056828446
scalar IntersectionExampleScenario.node[11].appl 	VehicleRemoved 	0
scalar IntersectionExampleScenario.node[11].appl 	ArrivedAtDest 	1
scalar IntersectionExampleScenario.node[11].appl 	IntersectionEnterTime 	35.5
scalar IntersectionExampleScenario.node[11].appl 	IntersectionExitTime 	75.315972767828
scalar IntersectionExampleScenario.node[11].appl 	NumberOfCollisions 	0
scalar IntersectionExampleScenario.node[11].nic.phy80211p 	busyTime 	0
scalar IntersectionExampleScenario.node[11].nic.mac1609_4 	ReceivedUnicastPackets 	0
scalar IntersectionExampleScenario.node[11].nic.mac1609_4 	ReceivedBroadcasts 	0
scalar IntersectionExampleScenario.node[11].nic.mac1609_4 	SentPackets 	0
scalar IntersectionExampleScenario.node[11].nic.mac1609_4 	SNIRLostPackets 	0
scalar IntersectionExampleScenario.node[11].nic.mac1609_4 	RXTXLostPackets 	0
scalar IntersectionExampleScenario.node[11].nic.mac1609_4 	TotalLostPackets 	0
scalar IntersectionExampleScenario.node[11].nic.mac1609_4 	DroppedPacketsInMac 	0
scalar IntersectionExampleScenario.node[11].nic.mac1609_4 	TooLittleTime 	0
scalar IntersectionExampleScenario.node[11].nic.mac1609_4 	TimesIntoBackoff 	0
scalar IntersectionExampleScenario.node[11].nic.mac1609_4 	SlotsBackoff 	0
scalar IntersectionExampleScenario.node[11].nic.mac1609_4 	NumInternalContention 	0
scalar IntersectionExampleScenario.node[11].nic.mac1609_4 	totalBusyTime 	0
scalar IntersectionExampleScenario.node[11].veinsmobility 	startTime 	35.5
scalar IntersectionExampleScenario.node[11].veinsmobility 	totalTime 	55.75
scalar IntersectionExampleScenario.node[11].veinsmobility 	stopTime 	91.5
scalar IntersectionExampleScenario.node[11].veinsmobility 	minSpeed 	0
scalar IntersectionExampleScenario.node[11].veinsmobility 	maxSpeed 	16
scalar IntersectionExampleScenario.node[11].veinsmobility 	totalDistance 	557.11000532932
scalar IntersectionExampleScenario.node[11].veinsmobility 	totalCO2Emission 	151.13180656956
scalar IntersectionExampleScenario.node[12].appl 	VehicleRemoved 	0
scalar IntersectionExampleScenario.node[12].appl 	ArrivedAtDest 	1
scalar IntersectionExampleScenario.node[12].appl 	IntersectionEnterTime 	37
scalar IntersectionExampleScenario.node[12].appl 	IntersectionExitTime 	77.60468779676
scalar IntersectionExampleScenario.node[12].appl 	NumberOfCollisions 	0
scalar IntersectionExampleScenario.node[12].nic.phy80211p 	busyTime 	0
scalar IntersectionExampleScenario.node[12].nic.mac1609_4 	ReceivedUnicastPackets 	0
scalar IntersectionExampleScenario.node[12].nic.mac1609_4 	ReceivedBroadcasts 	0
scalar IntersectionExampleScenario.node[12].nic.mac1609_4 	SentPackets 	0
scalar IntersectionExampleScenario.node[12].nic.mac1609_4 	SNIRLostPackets 	0
scalar IntersectionExampleScenario.node[12].nic.mac1609_4 	RXTXLostPackets 	0
scalar IntersectionExampleScenario.node[12].nic.mac1609_4 	TotalLostPackets 	0
scalar IntersectionExampleScenario.node[12].nic.mac1609_4 	DroppedPacketsInMac 	0
scalar IntersectionExampleScenario.node[12].nic.mac1609_4 	TooLittleTime 	0
scalar IntersectionExampleScenario.node[12].nic.mac1609_4 	TimesIntoBackoff 	0
scalar IntersectionExampleScenario.node[12].nic.mac1609_4 	SlotsBackoff 	0
scalar IntersectionExampleScenario.node[12].nic.mac1609_4 	NumInternalContention 	0
scalar IntersectionExampleScenario.node[12].nic.mac1609_4 	totalBusyTime 	0
scalar IntersectionExampleScenario.node[12].veinsmobility 	startTime 	37
scalar IntersectionExampleScenario.node[12].veinsmobility 	totalTime 	57.25
scalar IntersectionExampleScenario.node[12].veinsmobility 	stopTime 	94.5
scalar IntersectionExampleScenario.node[12].veinsmobility 	minSpeed 	0
scalar IntersectionExampleScenario.node[12].veinsmobility 	maxSpeed 	15.875
scalar IntersectionExampleScenario.node[12].veinsmobility 	totalDistance 	569.35032853986
scalar IntersectionExampleScenario.node[12].veinsmobility 	totalCO2Emission 	150.26084322061
scalar IntersectionExampleScenario.node[13].appl 	VehicleRemoved 	0
scalar IntersectionExampleScenario.node[13].appl 	ArrivedAtDest 	1
scalar IntersectionExampleScenario.node[13].appl 	IntersectionEnterTime 	39.25
scalar IntersectionExampleScenario.node[13].appl 	IntersectionExitTime 	80.351257146744
scalar IntersectionExampleScenario.node[13].appl 	NumberOfCollisions 	0
scalar IntersectionExampleScenario.node[13].nic.phy80211p 	busyTime 	0
scalar IntersectionExampleScenario.node[13].nic.mac1609_4 	ReceivedUnicastPackets 	0
scalar IntersectionExampleScenario.node[13].nic.mac1609_4 	ReceivedBroadcasts 	0
scalar IntersectionExampleScenario.node[13].nic.mac1609_4 	SentPackets 	0
scalar IntersectionExampleScenario.node[13].nic.mac1609_4 	SNIRLostPackets 	0
scalar IntersectionExampleScenario.node[13].nic.mac1609_4 	RXTXLostPackets 	0
scalar IntersectionExampleScenario.node[13].nic.mac1609_4 	TotalLostPackets 	0
scalar IntersectionExampleScenario.node[13].nic.mac1609_4 	DroppedPacketsInMac 	0
scalar IntersectionExampleScenario.node[13].nic.mac1609_4 	TooLittleTime 	0
scalar IntersectionExampleScenario.node[13].nic.mac1609_4 	TimesIntoBackoff 	0
scalar IntersectionExampleScenario.node[13].nic.mac1609_4 	SlotsBackoff 	0
scalar IntersectionExampleScenario.node[13].nic.mac1609_4 	NumInternalContention 	0
scalar IntersectionExampleScenario.node[13].nic.mac1609_4 	totalBusyTime 	0
scalar IntersectionExampleScenario.node[13].veinsmobility 	startTime 	39.25
scalar IntersectionExampleScenario.node[13].veinsmobility 	totalTime 	58
scalar IntersectionExampleScenario.node[13].veinsmobility 	stopTime 	97.5
scalar IntersectionExampleScenario.node[13].veinsmobility 	minSpeed 	0
scalar IntersectionExampleScenario.node[13].veinsmobility 	maxSpeed 	15.25
scalar IntersectionExampleScenario.node[13].veinsmobility 	totalDistance 	574.38512345624
scalar IntersectionExampleScenario.node[13].veinsmobility 	totalCO2Emission 	148.0025649542
scalar IntersectionExampleScenario.node[14].appl 	VehicleRemoved 	0
scalar IntersectionExampleScenario.node[14].appl 	ArrivedAtDest 	1
scalar IntersectionExampleScenario.node[14].appl 	IntersectionEnterTime 	41.5
scalar IntersectionExampleScenario.node[14].appl 	IntersectionExitTime 	82.803000032814
scalar IntersectionExampleScenario.node[14].appl 	NumberOfCollisions 	0
scalar IntersectionExampleScenario.node[14].nic.phy80211p 	busyTime 	0
scalar IntersectionExampleScenario.node[14].nic.mac1609_4 	ReceivedUnicastPackets 	0
scalar IntersectionExampleScenario.node[14].nic.mac1609_4 	ReceivedBroadcasts 	0
scalar IntersectionExampleScenario.node[14].nic.mac1609_4 	SentPackets 	0
scalar IntersectionExampleScenario.node[14].nic.mac1609_4 	SNIRLostPackets 	0
scalar IntersectionExampleScenario.node[14].nic.mac1609_4 	RXTXLostPackets 	0
scalar IntersectionExampleScenario.node[14].nic.mac1609_4 	TotalLostPackets 	0
scalar IntersectionExampleScenario.node[14].nic.mac1609_4 	DroppedPacketsInMac 	0
scalar IntersectionExampleScenario.node[14].nic.mac1609_4 	TooLittleTime 	0
scalar IntersectionExampleScenario.node[14].nic.mac1609_4 	TimesIntoBackoff 	0
scalar IntersectionExampleScenario.node[14].nic.mac1609_4 	SlotsBackoff 	0
scalar IntersectionExampleScenario.node[14].nic.mac1609_4 	NumInternalContention 	0
scalar IntersectionExampleScenario.node[14].nic.mac1609_4 	totalBusyTime 	0
scalar IntersectionExampleScenario.node[14].veinsmobility 	startTime 	41.5
scalar IntersectionExampleScenario.node[14].veinsmobility 	totalTime 	59
scalar IntersectionExampleScenario.node[14].veinsmobility 	stopTime 	100.75
scalar IntersectionExampleScenario.node[14].veinsmobility 	minSpeed 	0
scalar IntersectionExampleScenario.node[14].veinsmobility 	maxSpeed 	14.277666091919
scalar IntersectionExampleScenario.node[14].veinsmobility 	totalDistance 	583.87531552206
scalar IntersectionExampleScenario.node[14].veinsmobility 	totalCO2Emission 	145.08713654746
scalar IntersectionExampleScenario.node[15].appl 	VehicleRemoved 	0
scalar IntersectionExampleScenario.node[15].appl 	ArrivedAtDest 	1
scalar IntersectionExampleScenario.node[15].appl 	IntersectionEnterTime 	41.75
scalar IntersectionExampleScenario.node[15].appl 	IntersectionExitTime 	84.614710442576
scalar IntersectionExampleScenario.node[15].appl 	NumberOfCollisions 	0
scalar IntersectionExampleScenario.node[15].nic.phy80211p 	busyTime 	0
scalar IntersectionExampleScenario.node[15].nic.mac1609_4 	ReceivedUnicastPackets 	0
scalar IntersectionExampleScenario.node[15].nic.mac1609_4 	ReceivedBroadcasts 	0
scalar IntersectionExampleScenario.node[15].nic.mac1609_4 	SentPackets 	0
scalar IntersectionExampleScenario.node[15].nic.mac1609_4 	SNIRLostPackets 	0
scalar IntersectionExampleScenario.node[15].nic.mac1609_4 	RXTXLostPackets 	0
scalar IntersectionExampleScenario.node[15].nic.mac1609_4 	TotalLostPackets 	0
scalar IntersectionExampleScenario.node[15].nic.mac1609_4 	DroppedPacketsInMac 	0
scalar IntersectionExampleScenario.node[15].nic.mac1609_4 	TooLittleTime 	0
scalar IntersectionExampleScenario.node[15].nic.mac1609_4 	TimesIntoBackoff 	0
scalar IntersectionExampleScenario.node[15].nic.mac1609_4 	SlotsBackoff 	0
scalar IntersectionExampleScenario.node[15].nic.mac1609_4 	NumInternalContention 	0
scalar IntersectionExampleScenario.node[15].nic.mac1609_4 	totalBusyTime 	0
scalar IntersectionExampleScenario.node[15].veinsmobility 	startTime 	41.75
scalar IntersectionExampleScenario.node[15].veinsmobility 	totalTime 	60.25
scalar IntersectionExampleScenario.node[15].veinsmobility 	stopTime 	102.25
scalar IntersectionExampleScenario.node[15].veinsmobility 	minSpeed 	0
scalar IntersectionExampleScenario.node[15].veinsmobility 	maxSpeed 	15.129356384277
scalar IntersectionExampleScenario.node[15].veinsmobility 	totalDistance 	546.74260617644
scalar IntersectionExampleScenario.node[15].veinsmobility 	totalCO2Emission 	153.09621135867
scalar IntersectionExampleScenario.node[21].appl 	VehicleRemoved 	0
scalar IntersectionExampleScenario.node[21].appl 	ArrivedAtDest 	1
scalar IntersectionExampleScenario.node[21].appl 	IntersectionEnterTime 	59.75
scalar IntersectionExampleScenario.node[21].appl 	IntersectionExitTime 	86.623020277388
scalar IntersectionExampleScenario.node[21].appl 	NumberOfCollisions 	0
scalar IntersectionExampleScenario.node[21].nic.phy80211p 	busyTime 	0
scalar IntersectionExampleScenario.node[21].nic.mac1609_4 	ReceivedUnicastPackets 	0
scalar IntersectionExampleScenario.node[21].nic.mac1609_4 	ReceivedBroadcasts 	0
scalar IntersectionExampleScenario.node[21].nic.mac1609_4 	SentPackets 	0
scalar IntersectionExampleScenario.node[21].nic.mac1609_4 	SNIRLostPackets 	0
scalar IntersectionExampleScenario.node[21].nic.mac1609_4 	RXTXLostPackets 	0
scalar IntersectionExampleScenario.node[21].nic.mac1609_4 	TotalLostPackets 	0
scalar IntersectionExampleScenario.node[21].nic.mac1609_4 	DroppedPacketsInMac 	0
scalar IntersectionExampleScenario.node[21].nic.mac1609_4 	TooLittleTime 	0
scalar IntersectionExampleScenario.node[21].nic.mac1609_4 	TimesIntoBackoff 	0
scalar IntersectionExampleScenario.node[21].nic.mac1609_4 	SlotsBackoff 	0
scalar IntersectionExampleScenario.node[21].nic.mac1609_4 	NumInternalContention 	0
scalar IntersectionExampleScenario.node[21].nic.mac1609_4 	totalBusyTime 	0
scalar IntersectionExampleScenario.node[21].veinsmobility 	startTime 	59.75
scalar IntersectionExampleScenario.node[21].veinsmobility 	totalTime 	42.75
scalar IntersectionExampleScenario.node[21].veinsmobility 	stopTime 	102.75
scalar IntersectionExampleScenario.node[21].veinsmobility 	minSpeed 	3.1421575546265
scalar IntersectionExampleScenario.node[21].veinsmobility 	maxSpeed 	15.64999961853
scalar IntersectionExampleScenario.node[21].veinsmobility 	totalDistance 	520.79350280762
scalar IntersectionExampleScenario.node[21].veinsmobility 	totalCO2Emission 	129.53208705561
scalar IntersectionExampleScenario.node[19].appl 	VehicleRemoved 	0
scalar IntersectionExampleScenario.node[19].appl 	ArrivedAtDest 	1
scalar IntersectionExampleScenario.node[19].appl 	IntersectionEnterTime 	57.5
scalar IntersectionExampleScenario.node[19].appl 	IntersectionExitTime 	88.848571279261
scalar IntersectionExampleScenario.node[19].appl 	NumberOfCollisions 	0
scalar IntersectionExampleScenario.node[19].nic.phy80211p 	busyTime 	0
scalar IntersectionExampleScenario.node[19].nic.mac1609_4 	ReceivedUnicastPackets 	0
scalar IntersectionExampleScenario.node[19].nic.mac1609_4 	ReceivedBroadcasts 	0
scalar IntersectionExampleScenario.node[19].nic.mac1609_4 	SentPackets 	0
scalar IntersectionExampleScenario.node[19].nic.mac1609_4 	SNIRLostPackets 	0
scalar IntersectionExampleScenario.node[19].nic.mac1609_4 	RXTXLostPackets 	0
scalar IntersectionExampleScenario.node[19].nic.mac1609_4 	TotalLostPackets 	0
scalar IntersectionExampleScenario.node[19].nic.mac1609_4 	DroppedPacketsInMac 	0
scalar IntersectionExampleScenario.node[19].nic.mac1609_4 	TooLittleTime 	0
scalar IntersectionExampleScenario.node[19].nic.mac1609_4 	TimesIntoBackoff 	0
scalar IntersectionExampleScenario.node[19].nic.mac1609_4 	SlotsBackoff 	0
scalar IntersectionExampleScenario.node[19].nic.mac1609_4 	NumInternalContention 	0
scalar IntersectionExampleScenario.node[19].nic.mac1609_4 	totalBusyTime 	0
scalar IntersectionExampleScenario.node[19].veinsmobility 	startTime 	57.5
scalar IntersectionExampleScenario.node[19].veinsmobility 	totalTime 	47.25
scalar IntersectionExampleScenario.node[19].veinsmobility 	stopTime 	105
scalar IntersectionExampleScenario.node[19].veinsmobility 	minSpeed 	3.0480704307556
scalar IntersectionExampleScenario.node[19].veinsmobility 	maxSpeed 	15.493715286255
scalar IntersectionExampleScenario.node[19].veinsmobility 	totalDistance 	554.44691467285
scalar IntersectionExampleScenario.node[19].veinsmobility 	totalCO2Emission 	144.79746574497
scalar IntersectionExampleScenario.node[20].appl 	VehicleRemoved 	0
scalar IntersectionExampleScenario.node[20].appl 	ArrivedAtDest 	1
scalar IntersectionExampleScenario.node[20].appl 	IntersectionEnterTime 	59.5
scalar IntersectionExampleScenario.node[20].appl 	IntersectionExitTime 	91.060585000901
scalar IntersectionExampleScenario.node[20].appl 	NumberOfCollisions 	0
scalar IntersectionExampleScenario.node[20].nic.phy80211p 	busyTime 	0
scalar IntersectionExampleScenario.node[20].nic.mac1609_4 	ReceivedUnicastPackets 	0
scalar IntersectionExampleScenario.node[20].nic.mac1609_4 	ReceivedBroadcasts 	0
scalar IntersectionExampleScenario.node[20].nic.mac1609_4 	SentPackets 	0
scalar IntersectionExampleScenario.node[20].nic.mac1609_4 	SNIRLostPackets 	0
scalar IntersectionExampleScenario.node[20].nic.mac1609_4 	RXTXLostPackets 	0
scalar IntersectionExampleScenario.node[20].nic.mac1609_4 	TotalLostPackets 	0
scalar IntersectionExampleScenario.node[20].nic.mac1609_4 	DroppedPacketsInMac 	0
scalar IntersectionExampleScenario.node[20].nic.mac1609_4 	TooLittleTime 	0
scalar IntersectionExampleScenario.node[20].nic.mac1609_4 	TimesIntoBackoff 	0
scalar IntersectionExampleScenario.node[20].nic.mac1609_4 	SlotsBackoff 	0
scalar IntersectionExampleScenario.node[20].nic.mac1609_4 	NumInternalContention 	0
scalar IntersectionExampleScenario.node[20].nic.mac1609_4 	totalBusyTime 	0
scalar IntersectionExampleScenario.node[20].veinsmobility 	startTime 	59.5
scalar IntersectionExampleScenario.node[20].veinsmobility 	totalTime 	47.5
scalar IntersectionExampleScenario.node[20].veinsmobility 	stopTime 	107.25
scalar IntersectionExampleScenario.node[20].veinsmobility 	minSpeed 	2.5371282100677
scalar IntersectionExampleScenario.node[20].veinsmobility 	maxSpeed 	16
scalar IntersectionExampleScenario.node[20].veinsmobility 	totalDistance 	570.67770470488
scalar IntersectionExampleScenario.node[20].veinsmobility 	totalCO2Emission 	149.09221863658
scalar IntersectionExampleScenario.node[23].appl 	VehicleRemoved 	0
scalar IntersectionExampleScenario.node[23].appl 	ArrivedAtDest 	1
scalar IntersectionExampleScenario.node[23].appl 	IntersectionEnterTime 	73
scalar IntersectionExampleScenario.node[23].appl 	IntersectionExitTime 	96.033592986176
scalar IntersectionExampleScenario.node[23].appl 	NumberOfCollisions 	0
scalar IntersectionExampleScenario.node[23].nic.phy80211p 	busyTime 	0
scalar IntersectionExampleScenario.node[23].nic.mac1609_4 	ReceivedUnicastPackets 	0
scalar IntersectionExampleScenario.node[23].nic.mac1609_4 	ReceivedBroadcasts 	0
scalar IntersectionExampleScenario.node[23].nic.mac1609_4 	SentPackets 	0
scalar IntersectionExampleScenario.node[23].nic.mac1609_4 	SNIRLostPackets 	0
scalar IntersectionExampleScenario.node[23].nic.mac1609_4 	RXTXLostPackets 	0
scalar IntersectionExampleScenario.node[23].nic.mac1609_4 	TotalLostPackets 	0
scalar IntersectionExampleScenario.node[23].nic.mac1609_4 	DroppedPacketsInMac 	0
scalar IntersectionExampleScenario.node[23].nic.mac1609_4 	TooLittleTime 	0
scalar IntersectionExampleScenario.node[23].nic.mac1609_4 	TimesIntoBackoff 	0
scalar IntersectionExampleScenario.node[23].nic.mac1609_4 	SlotsBackoff 	0
scalar IntersectionExampleScenario.node[23].nic.mac1609_4 	NumInternalContention 	0
scalar IntersectionExampleScenario.node[23].nic.mac1609_4 	totalBusyTime 	0
scalar IntersectionExampleScenario.node[23].veinsmobility 	startTime 	73
scalar IntersectionExampleScenario.node[23].veinsmobility 	totalTime 	38.5
scalar IntersectionExampleScenario.node[23].veinsmobility 	stopTime 	111.75
scalar IntersectionExampleScenario.node[23].veinsmobility 	minSpeed 	5.6500000953674
scalar IntersectionExampleScenario.node[23].veinsmobility 	maxSpeed 	16.625
scalar IntersectionExampleScenario.node[23].veinsmobility 	totalDistance 	551.22320198357
scalar IntersectionExampleScenario.node[23].veinsmobility 	totalCO2Emission 	132.65841721728
scalar IntersectionExampleScenario.node[16].appl 	VehicleRemoved 	0
scalar IntersectionExampleScenario.node[16].appl 	ArrivedAtDest 	1
scalar IntersectionExampleScenario.node[16].appl 	IntersectionEnterTime 	49
scalar IntersectionExampleScenario.node[16].appl 	IntersectionExitTime 	109.29206795135
scalar IntersectionExampleScenario.node[16].appl 	NumberOfCollisions 	0
scalar IntersectionExampleScenario.node[16].nic.phy80211p 	busyTime 	0
scalar IntersectionExampleScenario.node[16].nic.mac1609_4 	ReceivedUnicastPackets 	0
scalar IntersectionExampleScenario.node[16].nic.mac1609_4 	ReceivedBroadcasts 	0
scalar IntersectionExampleScenario.node[16].nic.mac1609_4 	SentPackets 	0
scalar IntersectionExampleScenario.node[16].nic.mac1609_4 	SNIRLostPackets 	0
scalar IntersectionExampleScenario.node[16].nic.mac1609_4 	RXTXLostPackets 	0
scalar IntersectionExampleScenario.node[16].nic.mac1609_4 	TotalLostPackets 	0
scalar IntersectionExampleScenario.node[16].nic.mac1609_4 	DroppedPacketsInMac 	0
scalar IntersectionExampleScenario.node[16].nic.mac1609_4 	TooLittleTime 	0
scalar IntersectionExampleScenario.node[16].nic.mac1609_4 	TimesIntoBackoff 	0
scalar IntersectionExampleScenario.node[16].nic.mac1609_4 	SlotsBackoff 	0
scalar IntersectionExampleScenario.node[16].nic.mac1609_4 	NumInternalContention 	0
scalar IntersectionExampleScenario.node[16].nic.mac1609_4 	totalBusyTime 	0
scalar IntersectionExampleScenario.node[16].veinsmobility 	startTime 	49
scalar IntersectionExampleScenario.node[16].veinsmobility 	totalTime 	76
scalar IntersectionExampleScenario.node[16].veinsmobility 	stopTime 	125.25
scalar IntersectionExampleScenario.node[16].veinsmobility 	minSpeed 	0
scalar IntersectionExampleScenario.node[16].veinsmobility 	maxSpeed 	16
scalar IntersectionExampleScenario.node[16].veinsmobility 	totalDistance 	550.43739427676
scalar IntersectionExampleScenario.node[16].veinsmobility 	totalCO2Emission 	181.57836973233
scalar IntersectionExampleScenario.node[17].appl 	VehicleRemoved 	0
scalar IntersectionExampleScenario.node[17].appl 	ArrivedAtDest 	1
scalar IntersectionExampleScenario.node[17].appl 	IntersectionEnterTime 	54
scalar IntersectionExampleScenario.node[17].appl 	IntersectionExitTime 	111.58839496909
scalar IntersectionExampleScenario.node[17].appl 	NumberOfCollisions 	0
scalar IntersectionExampleScenario.node[17].nic.phy80211p 	busyTime 	0
scalar IntersectionExampleScenario.node[17].nic.mac1609_4 	ReceivedUnicastPackets 	0
scalar IntersectionExampleScenario.node[17].nic.mac1609_4 	ReceivedBroadcasts 	0
scalar IntersectionExampleScenario.node[17].nic.mac1609_4 	SentPackets 	0
scalar IntersectionExampleScenario.node[17].nic.mac1609_4 	SNIRLostPackets 	0
scalar IntersectionExampleScenario.node[17].nic.mac1609_4 	RXTXLostPackets 	0
scalar IntersectionExampleScenario.node[17].nic.mac1609_4 	TotalLostPackets 	0
scalar IntersectionExampleScenario.node[17].nic.mac1609_4 	DroppedPacketsInMac 	0
scalar IntersectionExampleScenario.node[17].nic.mac1609_4 	TooLittleTime 	0
scalar IntersectionExampleScenario.node[17].nic.mac1609_4 	TimesIntoBackoff 	0
scalar IntersectionExampleScenario.node[17].nic.mac1609_4 	SlotsBackoff 	0
scalar IntersectionExampleScenario.node[17].nic.mac1609_4 	NumInternalContention 	0
scalar IntersectionExampleScenario.node[17].nic.mac1609_4 	totalBusyTime 	0
scalar IntersectionExampleScenario.node[17].veinsmobility 	startTime 	54
scalar IntersectionExampleScenario.node[17].veinsmobility 	totalTime 	73.75
scalar IntersectionExampleScenario.node[17].veinsmobility 	stopTime 	128
scalar IntersectionExampleScenario.node[17].veinsmobility 	minSpeed 	0
scalar IntersectionExampleScenario.node[17].veinsmobility 	maxSpeed 	15.64999961853
scalar IntersectionExampleScenario.node[17].veinsmobility 	totalDistance 	549.28795655085
scalar IntersectionExampleScenario.node[17].veinsmobility 	totalCO2Emission 	172.26203638248
scalar IntersectionExampleScenario.node[18].appl 	VehicleRemoved 	0
scalar IntersectionExampleScenario.node[18].appl 	ArrivedAtDest 	1
scalar IntersectionExampleScenario.node[18].appl 	IntersectionEnterTime 	56.25
scalar IntersectionExampleScenario.node[18].appl 	IntersectionExitTime 	114.00938345509
scalar IntersectionExampleScenario.node[18].appl 	NumberOfCollisions 	0
scalar IntersectionExampleScenario.node[18].nic.phy80211p 	busyTime 	0
scalar IntersectionExampleScenario.node[18].nic.mac1609_4 	ReceivedUnicastPackets 	0
scalar IntersectionExampleScenario.node[18].nic.mac1609_4 	ReceivedBroadcasts 	0
scalar IntersectionExampleScenario.node[18].nic.mac1609_4 	SentPackets 	0
scalar IntersectionExampleScenario.node[18].nic.mac1609_4 	SNIRLostPackets 	0
scalar IntersectionExampleScenario.node[18].nic.mac1609_4 	RXTXLostPackets 	0
scalar IntersectionExampleScenario.node[18].nic.mac1609_4 	TotalLostPackets 	0
scalar IntersectionExampleScenario.node[18].nic.mac1609_4 	DroppedPacketsInMac 	0
scalar IntersectionExampleScenario.node[18].nic.mac1609_4 	TooLittleTime 	0
scalar IntersectionExampleScenario.node[18].nic.mac1609_4 	TimesIntoBackoff 	0
scalar IntersectionExampleScenario.node[18].nic.mac1609_4 	SlotsBackoff 	0
scalar IntersectionExampleScenario.node[18].nic.mac1609_4 	NumInternalContention 	0
scalar IntersectionExampleScenario.node[18].nic.mac1609_4 	totalBusyTime 	0
scalar IntersectionExampleScenario.node[18].veinsmobility 	startTime 	56.25
scalar IntersectionExampleScenario.node[18].veinsmobility 	totalTime 	74.75
scalar IntersectionExampleScenario.node[18].veinsmobility 	stopTime 	131.25
scalar IntersectionExampleScenario.node[18].veinsmobility 	minSpeed 	0
scalar IntersectionExampleScenario.node[18].veinsmobility 	maxSpeed 	15.02499961853
scalar IntersectionExampleScenario.node[18].veinsmobility 	totalDistance 	568.08375266531
scalar IntersectionExampleScenario.node[18].veinsmobility 	totalCO2Emission 	166.08290602402
scalar IntersectionExampleScenario.node[22].appl 	VehicleRemoved 	0
scalar IntersectionExampleScenario.node[22].appl 	ArrivedAtDest 	1
scalar IntersectionExampleScenario.node[22].appl 	IntersectionEnterTime 	62.25
scalar IntersectionExampleScenario.node[22].appl 	IntersectionExitTime 	116.25498071208
scalar IntersectionExampleScenario.node[22].appl 	NumberOfCollisions 	0
scalar IntersectionExampleScenario.node[22].nic.phy80211p 	busyTime 	0
scalar IntersectionExampleScenario.node[22].nic.mac1609_4 	ReceivedUnicastPackets 	0
scalar IntersectionExampleScenario.node[22].nic.mac1609_4 	ReceivedBroadcasts 	0
scalar IntersectionExampleScenario.node[22].nic.mac1609_4 	SentPackets 	0
scalar IntersectionExampleScenario.node[22].nic.mac1609_4 	SNIRLostPackets 	0
scalar IntersectionExampleScenario.node[22].nic.mac1609_4 	RXTXLostPackets 	0
scalar IntersectionExampleScenario.node[22].nic.mac1609_4 	TotalLostPackets 	0
scalar IntersectionExampleScenario.node[22].nic.mac1609_4 	DroppedPacketsInMac 	0
scalar IntersectionExampleScenario.node[22].nic.mac1609_4 	TooLittleTime 	0
scalar IntersectionExampleScenario.node[22].nic.mac1609_4 	TimesIntoBackoff 	0
scalar IntersectionExampleScenario.node[22].nic.mac1609_4 	SlotsBackoff 	0
scalar IntersectionExampleScenario.node[22].nic.mac1609_4 	NumInternalContention 	0
scalar IntersectionExampleScenario.node[22].nic.mac1609_4 	totalBusyTime 	0
scalar IntersectionExampleScenario.node[22].veinsmobility 	startTime 	62.25
scalar IntersectionExampleScenario.node[22].veinsmobility 	totalTime 	70
scalar IntersectionExampleScenario.node[22].veinsmobility 	stopTime 	132.5
scalar IntersectionExampleScenario.node[22].veinsmobility 	minSpeed 	0
scalar IntersectionExampleScenario.node[22].veinsmobility 	maxSpeed 	16.5
scalar IntersectionExampleScenario.node[22].veinsmobility 	totalDistance 	543.01872192458
scalar IntersectionExampleScenario.node[22].veinsmobility 	totalCO2Emission 	172.63053957498
scalar IntersectionExampleScenario.node[24].appl 	VehicleRemoved 	0
scalar IntersectionExampleScenario.node[24].appl 	ArrivedAtDest 	1
scalar IntersectionExampleScenario.node[24].appl 	IntersectionEnterTime 	80
scalar IntersectionExampleScenario.node[24].appl 	IntersectionExitTime 	118.33932660858
scalar IntersectionExampleScenario.node[24].appl 	NumberOfCollisions 	0
scalar IntersectionExampleScenario.node[24].nic.phy80211p 	busyTime 	0
scalar IntersectionExampleScenario.node[24].nic.mac1609_4 	ReceivedUnicastPackets 	0
scalar IntersectionExampleScenario.node[24].nic.mac1609_4 	ReceivedBroadcasts 	0
scalar IntersectionExampleScenario.node[24].nic.mac1609_4 	SentPackets 	0
scalar IntersectionExampleScenario.node[24].nic.mac1609_4 	SNIRLostPackets 	0
scalar IntersectionExampleScenario.node[24].nic.mac1609_4 	RXTXLostPackets 	0
scalar IntersectionExampleScenario.node[24].nic.mac1609_4 	TotalLostPackets 	0
scalar IntersectionExampleScenario.node[24].nic.mac1609_4 	DroppedPacketsInMac 	0
scalar IntersectionExampleScenario.node[24].nic.mac1609_4 	TooLittleTime 	0
scalar IntersectionExampleScenario.node[24].nic.mac1609_4 	TimesIntoBackoff 	0
scalar IntersectionExampleScenario.node[24].nic.mac1609_4 	SlotsBackoff 	0
scalar IntersectionExampleScenario.node[24].nic.mac1609_4 	NumInternalContention 	0
scalar IntersectionExampleScenario.node[24].nic.mac1609_4 	totalBusyTime 	0
scalar IntersectionExampleScenario.node[24].veinsmobility 	startTime 	80
scalar IntersectionExampleScenario.node[24].veinsmobility 	totalTime 	54
scalar IntersectionExampleScenario.node[24].veinsmobility 	stopTime 	134.25
scalar IntersectionExampleScenario.node[24].veinsmobility 	minSpeed 	0
scalar IntersectionExampleScenario.node[24].veinsmobility 	maxSpeed 	16.27499961853
scalar IntersectionExampleScenario.node[24].veinsmobility 	totalDistance 	549.90585698719
scalar IntersectionExampleScenario.node[24].veinsmobility 	totalCO2Emission 	151.15069712507
scalar IntersectionExampleScenario.node[26].appl 	VehicleRemoved 	0
scalar IntersectionExampleScenario.node[26].appl 	ArrivedAtDest 	1
scalar IntersectionExampleScenario.node[26].appl 	IntersectionEnterTime 	91.5
scalar IntersectionExampleScenario.node[26].appl 	IntersectionExitTime 	120.25359591591
scalar IntersectionExampleScenario.node[26].appl 	NumberOfCollisions 	0
scalar IntersectionExampleScenario.node[26].nic.phy80211p 	busyTime 	0
scalar IntersectionExampleScenario.node[26].nic.mac1609_4 	ReceivedUnicastPackets 	0
scalar IntersectionExampleScenario.node[26].nic.mac1609_4 	ReceivedBroadcasts 	0
scalar IntersectionExampleScenario.node[26].nic.mac1609_4 	SentPackets 	0
scalar IntersectionExampleScenario.node[26].nic.mac1609_4 	SNIRLostPackets 	0
scalar IntersectionExampleScenario.node[26].nic.mac1609_4 	RXTXLostPackets 	0
scalar IntersectionExampleScenario.node[26].nic.mac1609_4 	TotalLostPackets 	0
scalar IntersectionExampleScenario.node[26].nic.mac1609_4 	DroppedPacketsInMac 	0
scalar IntersectionExampleScenario.node[26].nic.mac1609_4 	TooLittleTime 	0
scalar IntersectionExampleScenario.node[26].nic.mac1609_4 	TimesIntoBackoff 	0
scalar IntersectionExampleScenario.node[26].nic.mac1609_4 	SlotsBackoff 	0
scalar IntersectionExampleScenario.node[26].nic.mac1609_4 	NumInternalContention 	0
scalar IntersectionExampleScenario.node[26].nic.mac1609_4 	totalBusyTime 	0
scalar IntersectionExampleScenario.node[26].veinsmobility 	startTime 	91.5
scalar IntersectionExampleScenario.node[26].veinsmobility 	totalTime 	44.75
scalar IntersectionExampleScenario.node[26].veinsmobility 	stopTime 	136.5
scalar IntersectionExampleScenario.node[26].veinsmobility 	minSpeed 	0
scalar IntersectionExampleScenario.node[26].veinsmobility 	maxSpeed 	15.64999961853
scalar IntersectionExampleScenario.node[26].veinsmobility 	totalDistance 	552.47970581055
scalar IntersectionExampleScenario.node[26].veinsmobility 	totalCO2Emission 	137.3597345165
scalar IntersectionExampleScenario.node[29].appl 	VehicleRemoved 	0
scalar IntersectionExampleScenario.node[29].appl 	ArrivedAtDest 	1
scalar IntersectionExampleScenario.node[29].appl 	IntersectionEnterTime 	98.25
scalar IntersectionExampleScenario.node[29].appl 	IntersectionExitTime 	122.76948476769
scalar IntersectionExampleScenario.node[29].appl 	NumberOfCollisions 	0
scalar IntersectionExampleScenario.node[29].nic.phy80211p 	busyTime 	0
scalar IntersectionExampleScenario.node[29].nic.mac1609_4 	ReceivedUnicastPackets 	0
scalar IntersectionExampleScenario.node[29].nic.mac1609_4 	ReceivedBroadcasts 	0
scalar IntersectionExampleScenario.node[29].nic.mac1609_4 	SentPackets 	0
scalar IntersectionExampleScenario.node[29].nic.mac1609_4 	SNIRLostPackets 	0
scalar IntersectionExampleScenario.node[29].nic.mac1609_4 	RXTXLostPackets 	0
scalar IntersectionExampleScenario.node[29].nic.mac1609_4 	TotalLostPackets 	0
scalar IntersectionExampleScenario.node[29].nic.mac1609_4 	DroppedPacketsInMac 	0
scalar IntersectionExampleScenario.node[29].nic.mac1609_4 	TooLittleTime 	0
scalar IntersectionExampleScenario.node[29].nic.mac1609_4 	TimesIntoBackoff 	0
scalar IntersectionExampleScenario.node[29].nic.mac1609_4 	SlotsBackoff 	0
scalar IntersectionExampleScenario.node[29].nic.mac1609_4 	NumInternalContention 	0
scalar IntersectionExampleScenario.node[29].nic.mac1609_4 	totalBusyTime 	0
scalar IntersectionExampleScenario.node[29].veinsmobility 	startTime 	98.25
scalar IntersectionExampleScenario.node[29].veinsmobility 	totalTime 	40.5
scalar IntersectionExampleScenario.node[29].veinsmobility 	stopTime 	139
scalar IntersectionExampleScenario.node[29].veinsmobility 	minSpeed 	5.6500000953674
scalar IntersectionExampleScenario.node[29].veinsmobility 	maxSpeed 	15.64999961853
scalar IntersectionExampleScenario.node[29].veinsmobility 	totalDistance 	554.83937072754
scalar IntersectionExampleScenario.node[29].veinsmobility 	totalCO2Emission 	126.27340973136
scalar IntersectionExampleScenario.node[28].appl 	VehicleRemoved 	0
scalar IntersectionExampleScenario.node[28].appl 	ArrivedAtDest 	1
scalar IntersectionExampleScenario.node[28].appl 	IntersectionEnterTime 	96.75
scalar IntersectionExampleScenario.node[28].appl 	IntersectionExitTime 	130.53491435951
scalar IntersectionExampleScenario.node[28].appl 	NumberOfCollisions 	0
scalar IntersectionExampleScenario.node[28].nic.phy80211p 	busyTime 	0
scalar IntersectionExampleScenario.node[28].nic.mac1609_4 	ReceivedUnicastPackets 	0
scalar IntersectionExampleScenario.node[28].nic.mac1609_4 	ReceivedBroadcasts 	0
scalar IntersectionExampleScenario.node[28].nic.mac1609_4 	SentPackets 	0
scalar IntersectionExampleScenario.node[28].nic.mac1609_4 	SNIRLostPackets 	0
scalar IntersectionExampleScenario.node[28].nic.mac1609_4 	RXTXLostPackets 	0
scalar IntersectionExampleScenario.node[28].nic.mac1609_4 	TotalLostPackets 	0
scalar IntersectionExampleScenario.node[28].nic.mac1609_4 	DroppedPacketsInMac 	0
scalar IntersectionExampleScenario.node[28].nic.mac1609_4 	TooLittleTime 	0
scalar IntersectionExampleScenario.node[28].nic.mac1609_4 	TimesIntoBackoff 	0
scalar IntersectionExampleScenario.node[28].nic.mac1609_4 	SlotsBackoff 	0
scalar IntersectionExampleScenario.node[28].nic.mac1609_4 	NumInternalContention 	0
scalar IntersectionExampleScenario.node[28].nic.mac1609_4 	totalBusyTime 	0
scalar IntersectionExampleScenario.node[28].veinsmobility 	startTime 	96.75
scalar IntersectionExampleScenario.node[28].veinsmobility 	totalTime 	49.75
scalar IntersectionExampleScenario.node[28].veinsmobility 	stopTime 	146.75
scalar IntersectionExampleScenario.node[28].veinsmobility 	minSpeed 	0
scalar IntersectionExampleScenario.node[28].veinsmobility 	maxSpeed 	16.5
scalar IntersectionExampleScenario.node[28].veinsmobility 	totalDistance 	545.42072965056
scalar IntersectionExampleScenario.node[28].veinsmobility 	totalCO2Emission 	149.70664338877
scalar IntersectionExampleScenario.node[25].appl 	VehicleRemoved 	0
scalar IntersectionExampleScenario.node[25].appl 	ArrivedAtDest 	1
scalar IntersectionExampleScenario.node[25].appl 	IntersectionEnterTime 	87.5
scalar IntersectionExampleScenario.node[25].appl 	IntersectionExitTime 	143.52434594734
scalar IntersectionExampleScenario.node[25].appl 	NumberOfCollisions 	0
scalar IntersectionExampleScenario.node[25].nic.phy80211p 	busyTime 	0
scalar IntersectionExampleScenario.node[25].nic.mac1609_4 	ReceivedUnicastPackets 	0
scalar IntersectionExampleScenario.node[25].nic.mac1609_4 	ReceivedBroadcasts 	0
scalar IntersectionExampleScenario.node[25].nic.mac1609_4 	SentPackets 	0
scalar IntersectionExampleScenario.node[25].nic.mac1609_4 	SNIRLostPackets 	0
scalar IntersectionExampleScenario.node[25].nic.mac1609_4 	RXTXLostPackets 	0
scalar IntersectionExampleScenario.node[25].nic.mac1609_4 	TotalLostPackets 	0
scalar IntersectionExampleScenario.node[25].nic.mac1609_4 	DroppedPacketsInMac 	0
scalar IntersectionExampleScenario.node[25].nic.mac1609_4 	TooLittleTime 	0
scalar IntersectionExampleScenario.node[25].nic.mac1609_4 	TimesIntoBackoff 	0
scalar IntersectionExampleScenario.node[25].nic.mac1609_4 	SlotsBackoff 	0
scalar IntersectionExampleScenario.node[25].nic.mac1609_4 	NumInternalContention 	0
scalar IntersectionExampleScenario.node[25].nic.mac1609_4 	totalBusyTime 	0
scalar IntersectionExampleScenario.node[25].veinsmobility 	startTime 	87.5
scalar IntersectionExampleScenario.node[25].veinsmobility 	totalTime 	73
scalar IntersectionExampleScenario.node[25].veinsmobility 	stopTime 	160.75
scalar IntersectionExampleScenario.node[25].veinsmobility 	minSpeed 	0
scalar IntersectionExampleScenario.node[25].veinsmobility 	maxSpeed 	15.25
scalar IntersectionExampleScenario.node[25].veinsmobility 	totalDistance 	545.54165555388
scalar IntersectionExampleScenario.node[25].veinsmobility 	totalCO2Emission 	165.25069103647
scalar IntersectionExampleScenario.node[27].appl 	VehicleRemoved 	0
scalar IntersectionExampleScenario.node[27].appl 	ArrivedAtDest 	1
scalar IntersectionExampleScenario.node[27].appl 	IntersectionEnterTime 	94.5
scalar IntersectionExampleScenario.node[27].appl 	IntersectionExitTime 	146.55463683297
scalar IntersectionExampleScenario.node[27].appl 	NumberOfCollisions 	0
scalar IntersectionExampleScenario.node[27].nic.phy80211p 	busyTime 	0
scalar IntersectionExampleScenario.node[27].nic.mac1609_4 	ReceivedUnicastPackets 	0
scalar IntersectionExampleScenario.node[27].nic.mac1609_4 	ReceivedBroadcasts 	0
scalar IntersectionExampleScenario.node[27].nic.mac1609_4 	SentPackets 	0
scalar IntersectionExampleScenario.node[27].nic.mac1609_4 	SNIRLostPackets 	0
scalar IntersectionExampleScenario.node[27].nic.mac1609_4 	RXTXLostPackets 	0
scalar IntersectionExampleScenario.node[27].nic.mac1609_4 	TotalLostPackets 	0
scalar IntersectionExampleScenario.node[27].nic.mac1609_4 	DroppedPacketsInMac 	0
scalar IntersectionExampleScenario.node[27].nic.mac1609_4 	TooLittleTime 	0
scalar IntersectionExampleScenario.node[27].nic.mac1609_4 	TimesIntoBackoff 	0
scalar IntersectionExampleScenario.node[27].nic.mac1609_4 	SlotsBackoff 	0
scalar IntersectionExampleScenario.node[27].nic.mac1609_4 	NumInternalContention 	0
scalar IntersectionExampleScenario.node[27].nic.mac1609_4 	totalBusyTime 	0
scalar IntersectionExampleScenario.node[27].veinsmobility 	startTime 	94.5
scalar IntersectionExampleScenario.node[27].veinsmobility 	totalTime 	68.75
scalar IntersectionExampleScenario.node[27].veinsmobility 	stopTime 	163.5
scalar IntersectionExampleScenario.node[27].veinsmobility 	minSpeed 	0
scalar IntersectionExampleScenario.node[27].veinsmobility 	maxSpeed 	15.25
scalar IntersectionExampleScenario.node[27].veinsmobility 	totalDistance 	545.33689746254
scalar IntersectionExampleScenario.node[27].veinsmobility 	totalCO2Emission 	156.22832893419
scalar IntersectionExampleScenario.node[30].appl 	VehicleRemoved 	0
scalar IntersectionExampleScenario.node[30].appl 	ArrivedAtDest 	1
scalar IntersectionExampleScenario.node[30].appl 	IntersectionEnterTime 	125
scalar IntersectionExampleScenario.node[30].appl 	IntersectionExitTime 	166.27747455801
scalar IntersectionExampleScenario.node[30].appl 	NumberOfCollisions 	0
scalar IntersectionExampleScenario.node[30].nic.phy80211p 	busyTime 	0
scalar IntersectionExampleScenario.node[30].nic.mac1609_4 	ReceivedUnicastPackets 	0
scalar IntersectionExampleScenario.node[30].nic.mac1609_4 	ReceivedBroadcasts 	0
scalar IntersectionExampleScenario.node[30].nic.mac1609_4 	SentPackets 	0
scalar IntersectionExampleScenario.node[30].nic.mac1609_4 	SNIRLostPackets 	0
scalar IntersectionExampleScenario.node[30].nic.mac1609_4 	RXTXLostPackets 	0
scalar IntersectionExampleScenario.node[30].nic.mac1609_4 	TotalLostPackets 	0
scalar IntersectionExampleScenario.node[30].nic.mac1609_4 	DroppedPacketsInMac 	0
scalar IntersectionExampleScenario.node[30].nic.mac1609_4 	TooLittleTime 	0
scalar IntersectionExampleScenario.node[30].nic.mac1609_4 	TimesIntoBackoff 	0
scalar IntersectionExampleScenario.node[30].nic.mac1609_4 	SlotsBackoff 	0
scalar IntersectionExampleScenario.node[30].nic.mac1609_4 	NumInternalContention 	0
scalar IntersectionExampleScenario.node[30].nic.mac1609_4 	totalBusyTime 	0
scalar IntersectionExampleScenario.node[30].veinsmobility 	startTime 	125
scalar IntersectionExampleScenario.node[30].veinsmobility 	totalTime 	57
scalar IntersectionExampleScenario.node[30].veinsmobility 	stopTime 	182.25
scalar IntersectionExampleScenario.node[30].veinsmobility 	minSpeed 	0
scalar IntersectionExampleScenario.node[30].veinsmobility 	maxSpeed 	16
scalar IntersectionExampleScenario.node[30].veinsmobility 	totalDistance 	548.34687914004
scalar IntersectionExampleScenario.node[30].veinsmobility 	totalCO2Emission 	150.85419208639
scalar IntersectionExampleScenario.node[31].appl 	VehicleRemoved 	0
scalar IntersectionExampleScenario.node[31].appl 	ArrivedAtDest 	1
scalar IntersectionExampleScenario.node[31].appl 	IntersectionEnterTime 	126.25
scalar IntersectionExampleScenario.node[31].appl 	IntersectionExitTime 	165.77265291821
scalar IntersectionExampleScenario.node[31].appl 	NumberOfCollisions 	0
scalar IntersectionExampleScenario.node[31].nic.phy80211p 	busyTime 	0
scalar IntersectionExampleScenario.node[31].nic.mac1609_4 	ReceivedUnicastPackets 	0
scalar IntersectionExampleScenario.node[31].nic.mac1609_4 	ReceivedBroadcasts 	0
scalar IntersectionExampleScenario.node[31].nic.mac1609_4 	SentPackets 	0
scalar IntersectionExampleScenario.node[31].nic.mac1609_4 	SNIRLostPackets 	0
scalar IntersectionExampleScenario.node[31].nic.mac1609_4 	RXTXLostPackets 	0
scalar IntersectionExampleScenario.node[31].nic.mac1609_4 	TotalLostPackets 	0
scalar IntersectionExampleScenario.node[31].nic.mac1609_4 	DroppedPacketsInMac 	0
scalar IntersectionExampleScenario.node[31].nic.mac1609_4 	TooLittleTime 	0
scalar IntersectionExampleScenario.node[31].nic.mac1609_4 	TimesIntoBackoff 	0
scalar IntersectionExampleScenario.node[31].nic.mac1609_4 	SlotsBackoff 	0
scalar IntersectionExampleScenario.node[31].nic.mac1609_4 	NumInternalContention 	0
scalar IntersectionExampleScenario.node[31].nic.mac1609_4 	totalBusyTime 	0
scalar IntersectionExampleScenario.node[31].veinsmobility 	startTime 	126.25
scalar IntersectionExampleScenario.node[31].veinsmobility 	totalTime 	56.5
scalar IntersectionExampleScenario.node[31].veinsmobility 	stopTime 	183
scalar IntersectionExampleScenario.node[31].veinsmobility 	minSpeed 	0
scalar IntersectionExampleScenario.node[31].veinsmobility 	maxSpeed 	15.02499961853
scalar IntersectionExampleScenario.node[31].veinsmobility 	totalDistance 	550.86341219377
scalar IntersectionExampleScenario.node[31].veinsmobility 	totalCO2Emission 	142.84269287722
scalar IntersectionExampleScenario.node[33].appl 	VehicleRemoved 	0
scalar IntersectionExampleScenario.node[33].appl 	ArrivedAtDest 	1
scalar IntersectionExampleScenario.node[33].appl 	IntersectionEnterTime 	136.5
scalar IntersectionExampleScenario.node[33].appl 	IntersectionExitTime 	167.54144745591
scalar IntersectionExampleScenario.node[33].appl 	NumberOfCollisions 	0
scalar IntersectionExampleScenario.node[33].nic.phy80211p 	busyTime 	0
scalar IntersectionExampleScenario.node[33].nic.mac1609_4 	ReceivedUnicastPackets 	0
scalar IntersectionExampleScenario.node[33].nic.mac1609_4 	ReceivedBroadcasts 	0
scalar IntersectionExampleScenario.node[33].nic.mac1609_4 	SentPackets 	0
scalar IntersectionExampleScenario.node[33].nic.mac1609_4 	SNIRLostPackets 	0
scalar IntersectionExampleScenario.node[33].nic.mac1609_4 	RXTXLostPackets 	0
scalar IntersectionExampleScenario.node[33].nic.mac1609_4 	TotalLostPackets 	0
scalar IntersectionExampleScenario.node[33].nic.mac1609_4 	DroppedPacketsInMac 	0
scalar IntersectionExampleScenario.node[33].nic.mac1609_4 	TooLittleTime 	0
scalar IntersectionExampleScenario.node[33].nic.mac1609_4 	TimesIntoBackoff 	0
scalar IntersectionExampleScenario.node[33].nic.mac1609_4 	SlotsBackoff 	0
scalar IntersectionExampleScenario.node[33].nic.mac1609_4 	NumInternalContention 	0
scalar IntersectionExampleScenario.node[33].nic.mac1609_4 	totalBusyTime 	0
scalar IntersectionExampleScenario.node[33].veinsmobility 	startTime 	136.5
scalar IntersectionExampleScenario.node[33].veinsmobility 	totalTime 	46.5
scalar IntersectionExampleScenario.node[33].veinsmobility 	stopTime 	183.25
scalar IntersectionExampleScenario.node[33].veinsmobility 	minSpeed 	2.0260019302368
scalar IntersectionExampleScenario.node[33].veinsmobility 	maxSpeed 	16.125
scalar IntersectionExampleScenario.node[33].veinsmobility 	totalDistance 	551.5774307251
scalar IntersectionExampleScenario.node[33].veinsmobility 	totalCO2Emission 	138.0164018413
scalar IntersectionExampleScenario.node[32].appl 	VehicleRemoved 	0
scalar IntersectionExampleScenario.node[32].appl 	ArrivedAtDest 	1
scalar IntersectionExampleScenario.node[32].appl 	IntersectionEnterTime 	129
scalar IntersectionExampleScenario.node[32].appl 	IntersectionExitTime 	167.25449928211
scalar IntersectionExampleScenario.node[32].appl 	NumberOfCollisions 	0
scalar IntersectionExampleScenario.node[32].nic.phy80211p 	busyTime 	0
scalar IntersectionExampleScenario.node[32].nic.mac1609_4 	ReceivedUnicastPackets 	0
scalar IntersectionExampleScenario.node[32].nic.mac1609_4 	ReceivedBroadcasts 	0
scalar IntersectionExampleScenario.node[32].nic.mac1609_4 	SentPackets 	0
scalar IntersectionExampleScenario.node[32].nic.mac1609_4 	SNIRLostPackets 	0
scalar IntersectionExampleScenario.node[32].nic.mac1609_4 	RXTXLostPackets 	0
scalar IntersectionExampleScenario.node[32].nic.mac1609_4 	TotalLostPackets 	0
scalar IntersectionExampleScenario.node[32].nic.mac1609_4 	DroppedPacketsInMac 	0
scalar IntersectionExampleScenario.node[32].nic.mac1609_4 	TooLittleTime 	0
scalar IntersectionExampleScenario.node[32].nic.mac1609_4 	TimesIntoBackoff 	0
scalar IntersectionExampleScenario.node[32].nic.mac1609_4 	SlotsBackoff 	0
scalar IntersectionExampleScenario.node[32].nic.mac1609_4 	NumInternalContention 	0
scalar IntersectionExampleScenario.node[32].nic.mac1609_4 	totalBusyTime 	0
scalar IntersectionExampleScenario.node[32].veinsmobility 	startTime 	129
scalar IntersectionExampleScenario.node[32].veinsmobility 	totalTime 	54.25
scalar IntersectionExampleScenario.node[32].veinsmobility 	stopTime 	183.5
scalar IntersectionExampleScenario.node[32].veinsmobility 	minSpeed 	0
scalar IntersectionExampleScenario.node[32].veinsmobility 	maxSpeed 	15.5
scalar IntersectionExampleScenario.node[32].veinsmobility 	totalDistance 	565.70933532715
scalar IntersectionExampleScenario.node[32].veinsmobility 	totalCO2Emission 	147.57679064324
scalar IntersectionExampleScenario.node[36].appl 	VehicleRemoved 	0
scalar IntersectionExampleScenario.node[36].appl 	ArrivedAtDest 	1
scalar IntersectionExampleScenario.node[36].appl 	IntersectionEnterTime 	150.5
scalar IntersectionExampleScenario.node[36].appl 	IntersectionExitTime 	174.06128810055
scalar IntersectionExampleScenario.node[36].appl 	NumberOfCollisions 	0
scalar IntersectionExampleScenario.node[36].nic.phy80211p 	busyTime 	0
scalar IntersectionExampleScenario.node[36].nic.mac1609_4 	ReceivedUnicastPackets 	0
scalar IntersectionExampleScenario.node[36].nic.mac1609_4 	ReceivedBroadcasts 	0
scalar IntersectionExampleScenario.node[36].nic.mac1609_4 	SentPackets 	0
scalar IntersectionExampleScenario.node[36].nic.mac1609_4 	SNIRLostPackets 	0
scalar IntersectionExampleScenario.node[36].nic.mac1609_4 	RXTXLostPackets 	0
scalar IntersectionExampleScenario.node[36].nic.mac1609_4 	TotalLostPackets 	0
scalar IntersectionExampleScenario.node[36].nic.mac1609_4 	DroppedPacketsInMac 	0
scalar IntersectionExampleScenario.node[36].nic.mac1609_4 	TooLittleTime 	0
scalar IntersectionExampleScenario.node[36].nic.mac1609_4 	TimesIntoBackoff 	0
scalar IntersectionExampleScenario.node[36].nic.mac1609_4 	SlotsBackoff 	0
scalar IntersectionExampleScenario.node[36].nic.mac1609_4 	NumInternalContention 	0
scalar IntersectionExampleScenario.node[36].nic.mac1609_4 	totalBusyTime 	0
scalar IntersectionExampleScenario.node[36].veinsmobility 	startTime 	150.5
scalar IntersectionExampleScenario.node[36].veinsmobility 	totalTime 	40.25
scalar IntersectionExampleScenario.node[36].veinsmobility 	stopTime 	191
scalar IntersectionExampleScenario.node[36].veinsmobility 	minSpeed 	5.6500000953674
scalar IntersectionExampleScenario.node[36].veinsmobility 	maxSpeed 	15.375
scalar IntersectionExampleScenario.node[36].veinsmobility 	totalDistance 	551.98651175217
scalar IntersectionExampleScenario.node[36].veinsmobility 	totalCO2Emission 	120.88968681036
scalar IntersectionExampleScenario.node[34].appl 	VehicleRemoved 	0
scalar IntersectionExampleScenario.node[34].appl 	ArrivedAtDest 	1
scalar IntersectionExampleScenario.node[34].appl 	IntersectionEnterTime 	140.75
scalar IntersectionExampleScenario.node[34].appl 	IntersectionExitTime 	178.525666767
scalar IntersectionExampleScenario.node[34].appl 	NumberOfCollisions 	0
scalar IntersectionExampleScenario.node[34].nic.phy80211p 	busyTime 	0
scalar IntersectionExampleScenario.node[34].nic.mac1609_4 	ReceivedUnicastPackets 	0
scalar IntersectionExampleScenario.node[34].nic.mac1609_4 	ReceivedBroadcasts 	0
scalar IntersectionExampleScenario.node[34].nic.mac1609_4 	SentPackets 	0
scalar IntersectionExampleScenario.node[34].nic.mac1609_4 	SNIRLostPackets 	0
scalar IntersectionExampleScenario.node[34].nic.mac1609_4 	RXTXLostPackets 	0
scalar IntersectionExampleScenario.node[34].nic.mac1609_4 	TotalLostPackets 	0
scalar IntersectionExampleScenario.node[34].nic.mac1609_4 	DroppedPacketsInMac 	0
scalar IntersectionExampleScenario.node[34].nic.mac1609_4 	TooLittleTime 	0
scalar IntersectionExampleScenario.node[34].nic.mac1609_4 	TimesIntoBackoff 	0
scalar IntersectionExampleScenario.node[34].nic.mac1609_4 	SlotsBackoff 	0
scalar IntersectionExampleScenario.node[34].nic.mac1609_4 	NumInternalContention 	0
scalar IntersectionExampleScenario.node[34].nic.mac1609_4 	totalBusyTime 	0
scalar IntersectionExampleScenario.node[34].veinsmobility 	startTime 	140.75
scalar IntersectionExampleScenario.node[34].veinsmobility 	totalTime 	54
scalar IntersectionExampleScenario.node[34].veinsmobility 	stopTime 	195
scalar IntersectionExampleScenario.node[34].veinsmobility 	minSpeed 	0
scalar IntersectionExampleScenario.node[34].veinsmobility 	maxSpeed 	16.27499961853
scalar IntersectionExampleScenario.node[34].veinsmobility 	totalDistance 	542.43856717498
scalar IntersectionExampleScenario.node[34].veinsmobility 	totalCO2Emission 	149.60237839958
scalar IntersectionExampleScenario.node[35].appl 	VehicleRemoved 	0
scalar IntersectionExampleScenario.node[35].appl 	ArrivedAtDest 	1
scalar IntersectionExampleScenario.node[35].appl 	IntersectionEnterTime 	146.75
scalar IntersectionExampleScenario.node[35].appl 	IntersectionExitTime 	180.34767632934
scalar IntersectionExampleScenario.node[35].appl 	NumberOfCollisions 	0
scalar IntersectionExampleScenario.node[35].nic.phy80211p 	busyTime 	0
scalar IntersectionExampleScenario.node[35].nic.mac1609_4 	ReceivedUnicastPackets 	0
scalar IntersectionExampleScenario.node[35].nic.mac1609_4 	ReceivedBroadcasts 	0
scalar IntersectionExampleScenario.node[35].nic.mac1609_4 	SentPackets 	0
scalar IntersectionExampleScenario.node[35].nic.mac1609_4 	SNIRLostPackets 	0
scalar IntersectionExampleScenario.node[35].nic.mac1609_4 	RXTXLostPackets 	0
scalar IntersectionExampleScenario.node[35].nic.mac1609_4 	TotalLostPackets 	0
scalar IntersectionExampleScenario.node[35].nic.mac1609_4 	DroppedPacketsInMac 	0
scalar IntersectionExampleScenario.node[35].nic.mac1609_4 	TooLittleTime 	0
scalar IntersectionExampleScenario.node[35].nic.mac1609_4 	TimesIntoBackoff 	0
scalar IntersectionExampleScenario.node[35].nic.mac1609_4 	SlotsBackoff 	0
scalar IntersectionExampleScenario.node[35].nic.mac1609_4 	NumInternalContention 	0
scalar IntersectionExampleScenario.node[35].nic.mac1609_4 	totalBusyTime 	0
scalar IntersectionExampleScenario.node[35].veinsmobility 	startTime 	146.75
scalar IntersectionExampleScenario.node[35].veinsmobility 	totalTime 	49.25
scalar IntersectionExampleScenario.node[35].veinsmobility 	stopTime 	196.25
scalar IntersectionExampleScenario.node[35].veinsmobility 	minSpeed 	0
scalar IntersectionExampleScenario.node[35].veinsmobility 	maxSpeed 	16.27499961853
scalar IntersectionExampleScenario.node[35].veinsmobility 	totalDistance 	550.5322875743
scalar IntersectionExampleScenario.node[35].veinsmobility 	totalCO2Emission 	144.43742727223
scalar IntersectionExampleScenario.node[42].appl 	VehicleRemoved 	0
scalar IntersectionExampleScenario.node[42].appl 	ArrivedAtDest 	1
scalar IntersectionExampleScenario.node[42].appl 	IntersectionEnterTime 	163.5
scalar IntersectionExampleScenario.node[42].appl 	IntersectionExitTime 	189.50605216651
scalar IntersectionExampleScenario.node[42].appl 	NumberOfCollisions 	0
scalar IntersectionExampleScenario.node[42].nic.phy80211p 	busyTime 	0
scalar IntersectionExampleScenario.node[42].nic.mac1609_4 	ReceivedUnicastPackets 	0
scalar IntersectionExampleScenario.node[42].nic.mac1609_4 	ReceivedBroadcasts 	0
scalar IntersectionExampleScenario.node[42].nic.mac1609_4 	SentPackets 	0
scalar IntersectionExampleScenario.node[42].nic.mac1609_4 	SNIRLostPackets 	0
scalar IntersectionExampleScenario.node[42].nic.mac1609_4 	RXTXLostPackets 	0
scalar IntersectionExampleScenario.node[42].nic.mac1609_4 	TotalLostPackets 	0
scalar IntersectionExampleScenario.node[42].nic.mac1609_4 	DroppedPacketsInMac 	0
scalar IntersectionExampleScenario.node[42].nic.mac1609_4 	TooLittleTime 	0
scalar IntersectionExampleScenario.node[42].nic.mac1609_4 	TimesIntoBackoff 	0
scalar IntersectionExampleScenario.node[42].nic.mac1609_4 	SlotsBackoff 	0
scalar IntersectionExampleScenario.node[42].nic.mac1609_4 	NumInternalContention 	0
scalar IntersectionExampleScenario.node[42].nic.mac1609_4 	totalBusyTime 	0
scalar IntersectionExampleScenario.node[42].veinsmobility 	startTime 	163.5
scalar IntersectionExampleScenario.node[42].veinsmobility 	totalTime 	42.75
scalar IntersectionExampleScenario.node[42].veinsmobility 	stopTime 	206.5
scalar IntersectionExampleScenario.node[42].veinsmobility 	minSpeed 	0
scalar IntersectionExampleScenario.node[42].veinsmobility 	maxSpeed 	15.64999961853
scalar IntersectionExampleScenario.node[42].veinsmobility 	totalDistance 	544.42740537078
scalar IntersectionExampleScenario.node[42].veinsmobility 	totalCO2Emission 	135.01824088446
scalar IntersectionExampleScenario.node[46].appl 	VehicleRemoved 	0
scalar IntersectionExampleScenario.node[46].appl 	ArrivedAtDest 	1
scalar IntersectionExampleScenario.node[46].appl 	IntersectionEnterTime 	172.25
scalar IntersectionExampleScenario.node[46].appl 	IntersectionExitTime 	195.54825335645
scalar IntersectionExampleScenario.node[46].appl 	NumberOfCollisions 	0
scalar IntersectionExampleScenario.node[46].nic.phy80211p 	busyTime 	0
scalar IntersectionExampleScenario.node[46].nic.mac1609_4 	ReceivedUnicastPackets 	0
scalar IntersectionExampleScenario.node[46].nic.mac1609_4 	ReceivedBroadcasts 	0
scalar IntersectionExampleScenario.node[46].nic.mac1609_4 	SentPackets 	0
scalar IntersectionExampleScenario.node[46].nic.mac1609_4 	SNIRLostPackets 	0
scalar IntersectionExampleScenario.node[46].nic.mac1609_4 	RXTXLostPackets 	0
scalar IntersectionExampleScenario.node[46].nic.mac1609_4 	TotalLostPackets 	0
scalar IntersectionExampleScenario.node[46].nic.mac1609_4 	DroppedPacketsInMac 	0
scalar IntersectionExampleScenario.node[46].nic.mac1609_4 	TooLittleTime 	0
scalar IntersectionExampleScenario.node[46].nic.mac1609_4 	TimesIntoBackoff 	0
scalar IntersectionExampleScenario.node[46].nic.mac1609_4 	SlotsBackoff 	0
scalar IntersectionExampleScenario.node[46].nic.mac1609_4 	NumInternalContention 	0
scalar IntersectionExampleScenario.node[46].nic.mac1609_4 	totalBusyTime 	0
scalar IntersectionExampleScenario.node[46].veinsmobility 	startTime 	172.25
scalar IntersectionExampleScenario.node[46].veinsmobility 	totalTime 	39.75
scalar IntersectionExampleScenario.node[46].veinsmobility 	stopTime 	212.25
scalar IntersectionExampleScenario.node[46].veinsmobility 	minSpeed 	5.6500000953674
scalar IntersectionExampleScenario.node[46].veinsmobility 	maxSpeed 	15.02499961853
scalar IntersectionExampleScenario.node[46].veinsmobility 	totalDistance 	551.45179748535
scalar IntersectionExampleScenario.node[46].veinsmobility 	totalCO2Emission 	114.13526844764
scalar IntersectionExampleScenario.node[41].appl 	VehicleRemoved 	0
scalar IntersectionExampleScenario.node[41].appl 	ArrivedAtDest 	1
scalar IntersectionExampleScenario.node[41].appl 	IntersectionEnterTime 	163
scalar IntersectionExampleScenario.node[41].appl 	IntersectionExitTime 	200.82912059838
scalar IntersectionExampleScenario.node[41].appl 	NumberOfCollisions 	0
scalar IntersectionExampleScenario.node[41].nic.phy80211p 	busyTime 	0
scalar IntersectionExampleScenario.node[41].nic.mac1609_4 	ReceivedUnicastPackets 	0
scalar IntersectionExampleScenario.node[41].nic.mac1609_4 	ReceivedBroadcasts 	0
scalar IntersectionExampleScenario.node[41].nic.mac1609_4 	SentPackets 	0
scalar IntersectionExampleScenario.node[41].nic.mac1609_4 	SNIRLostPackets 	0
scalar IntersectionExampleScenario.node[41].nic.mac1609_4 	RXTXLostPackets 	0
scalar IntersectionExampleScenario.node[41].nic.mac1609_4 	TotalLostPackets 	0
scalar IntersectionExampleScenario.node[41].nic.mac1609_4 	DroppedPacketsInMac 	0
scalar IntersectionExampleScenario.node[41].nic.mac1609_4 	TooLittleTime 	0
scalar IntersectionExampleScenario.node[41].nic.mac1609_4 	TimesIntoBackoff 	0
scalar IntersectionExampleScenario.node[41].nic.mac1609_4 	SlotsBackoff 	0
scalar IntersectionExampleScenario.node[41].nic.mac1609_4 	NumInternalContention 	0
[...]
scalar IntersectionExampleScenario.node[465].nic.mac1609_4 	NumInternalContention 	0
scalar IntersectionExampleScenario.node[465].nic.mac1609_4 	totalBusyTime 	0
scalar IntersectionExampleScenario.node[465].veinsmobility 	startTime 	1754
scalar IntersectionExampleScenario.node[465].veinsmobility 	totalTime 	40
scalar IntersectionExampleScenario.node[465].veinsmobility 	stopTime 	1794.25
scalar IntersectionExampleScenario.node[465].veinsmobility 	minSpeed 	5.6500000953674
scalar IntersectionExampleScenario.node[465].veinsmobility 	maxSpeed 	16
scalar IntersectionExampleScenario.node[465].veinsmobility 	totalDistance 	549.58400294013
scalar IntersectionExampleScenario.node[465].veinsmobility 	totalCO2Emission 	138.82859601365
scalar IntersectionExampleScenario.manager 	EndTime 	1591485304
scalar IntersectionExampleScenario.manager 	StartTime 	1591485154
scalar IntersectionExampleScenario.manager 	TotalDuration 	150
scalar IntersectionExampleScenario.manager 	TotalFlux 	15.566666666667
scalar IntersectionExampleScenario.manager 	Direction-South-Flux 	3.6
scalar IntersectionExampleScenario.manager 	Direction-West-Flux 	4.2333333333333
scalar IntersectionExampleScenario.manager 	Direction-North-Flux 	3.9
scalar IntersectionExampleScenario.manager 	Direction-East-Flux 	3.8333333333333
scalar IntersectionExampleScenario.manager 	TotalMeanTime 	33.547932119037
scalar IntersectionExampleScenario.manager 	Direction-South-MeanTime 	32.704550820541
scalar IntersectionExampleScenario.manager 	Direction-West-MeanTime 	32.226511580981
scalar IntersectionExampleScenario.manager 	Direction-North-MeanTime 	35.703802944876
scalar IntersectionExampleScenario.manager 	Direction-East-MeanTime 	33.605920831623
scalar IntersectionExampleScenario.manager 	TotalStandardDeviation 	8.5540904731936
scalar IntersectionExampleScenario.manager 	Direction-South-StDev 	8.0713836846021
scalar IntersectionExampleScenario.manager 	Direction-West-StDev 	7.4615944712761
scalar IntersectionExampleScenario.manager 	Direction-North-StDev 	9.9754715452317
scalar IntersectionExampleScenario.manager 	Direction-East-StDev 	8.1183811542297
scalar IntersectionExampleScenario.node[463].appl 	VehicleRemoved 	0
scalar IntersectionExampleScenario.node[463].appl 	ArrivedAtDest 	0
scalar IntersectionExampleScenario.node[463].appl 	IntersectionEnterTime 	1743
scalar IntersectionExampleScenario.node[463].appl 	IntersectionExitTime 	1789.3363289559
scalar IntersectionExampleScenario.node[463].appl 	NumberOfCollisions 	0
scalar IntersectionExampleScenario.node[463].nic.phy80211p 	busyTime 	0
scalar IntersectionExampleScenario.node[463].nic.mac1609_4 	ReceivedUnicastPackets 	0
scalar IntersectionExampleScenario.node[463].nic.mac1609_4 	ReceivedBroadcasts 	0
scalar IntersectionExampleScenario.node[463].nic.mac1609_4 	SentPackets 	0
scalar IntersectionExampleScenario.node[463].nic.mac1609_4 	SNIRLostPackets 	0
scalar IntersectionExampleScenario.node[463].nic.mac1609_4 	RXTXLostPackets 	0
scalar IntersectionExampleScenario.node[463].nic.mac1609_4 	TotalLostPackets 	0
scalar IntersectionExampleScenario.node[463].nic.mac1609_4 	DroppedPacketsInMac 	0
scalar IntersectionExampleScenario.node[463].nic.mac1609_4 	TooLittleTime 	0
scalar IntersectionExampleScenario.node[463].nic.mac1609_4 	TimesIntoBackoff 	0
scalar IntersectionExampleScenario.node[463].nic.mac1609_4 	SlotsBackoff 	0
scalar IntersectionExampleScenario.node[463].nic.mac1609_4 	NumInternalContention 	0
scalar IntersectionExampleScenario.node[463].nic.mac1609_4 	totalBusyTime 	0
scalar IntersectionExampleScenario.node[463].veinsmobility 	startTime 	1743
scalar IntersectionExampleScenario.node[463].veinsmobility 	totalTime 	57
scalar IntersectionExampleScenario.node[463].veinsmobility 	stopTime 	1800
scalar IntersectionExampleScenario.node[463].veinsmobility 	minSpeed 	0
scalar IntersectionExampleScenario.node[463].veinsmobility 	maxSpeed 	15.02499961853
scalar IntersectionExampleScenario.node[463].veinsmobility 	totalDistance 	467.58585357666
scalar IntersectionExampleScenario.node[463].veinsmobility 	totalCO2Emission 	138.29282643716
scalar IntersectionExampleScenario.node[466].appl 	VehicleRemoved 	0
scalar IntersectionExampleScenario.node[466].appl 	ArrivedAtDest 	0
scalar IntersectionExampleScenario.node[466].appl 	IntersectionEnterTime 	1768.75
scalar IntersectionExampleScenario.node[466].appl 	IntersectionExitTime 	1792.5105954515
scalar IntersectionExampleScenario.node[466].appl 	NumberOfCollisions 	0
scalar IntersectionExampleScenario.node[466].nic.phy80211p 	busyTime 	0
scalar IntersectionExampleScenario.node[466].nic.mac1609_4 	ReceivedUnicastPackets 	0
scalar IntersectionExampleScenario.node[466].nic.mac1609_4 	ReceivedBroadcasts 	0
scalar IntersectionExampleScenario.node[466].nic.mac1609_4 	SentPackets 	0
scalar IntersectionExampleScenario.node[466].nic.mac1609_4 	SNIRLostPackets 	0
scalar IntersectionExampleScenario.node[466].nic.mac1609_4 	RXTXLostPackets 	0
scalar IntersectionExampleScenario.node[466].nic.mac1609_4 	TotalLostPackets 	0
scalar IntersectionExampleScenario.node[466].nic.mac1609_4 	DroppedPacketsInMac 	0
scalar IntersectionExampleScenario.node[466].nic.mac1609_4 	TooLittleTime 	0
scalar IntersectionExampleScenario.node[466].nic.mac1609_4 	TimesIntoBackoff 	0
scalar IntersectionExampleScenario.node[466].nic.mac1609_4 	SlotsBackoff 	0
scalar IntersectionExampleScenario.node[466].nic.mac1609_4 	NumInternalContention 	0
scalar IntersectionExampleScenario.node[466].nic.mac1609_4 	totalBusyTime 	0
scalar IntersectionExampleScenario.node[466].veinsmobility 	startTime 	1768.75
scalar IntersectionExampleScenario.node[466].veinsmobility 	totalTime 	31.25
scalar IntersectionExampleScenario.node[466].veinsmobility 	stopTime 	1800
scalar IntersectionExampleScenario.node[466].veinsmobility 	minSpeed 	5.6500000953674
scalar IntersectionExampleScenario.node[466].veinsmobility 	maxSpeed 	16.27499961853
scalar IntersectionExampleScenario.node[466].veinsmobility 	totalDistance 	418.67583213401
scalar IntersectionExampleScenario.node[466].veinsmobility 	totalCO2Emission 	124.96997960926
scalar IntersectionExampleScenario.node[467].appl 	VehicleRemoved 	0
scalar IntersectionExampleScenario.node[467].appl 	ArrivedAtDest 	0
scalar IntersectionExampleScenario.node[467].appl 	IntersectionEnterTime 	1772.25
scalar IntersectionExampleScenario.node[467].appl 	IntersectionExitTime 	-1
scalar IntersectionExampleScenario.node[467].appl 	NumberOfCollisions 	0
scalar IntersectionExampleScenario.node[467].nic.phy80211p 	busyTime 	0
scalar IntersectionExampleScenario.node[467].nic.mac1609_4 	ReceivedUnicastPackets 	0
scalar IntersectionExampleScenario.node[467].nic.mac1609_4 	ReceivedBroadcasts 	0
scalar IntersectionExampleScenario.node[467].nic.mac1609_4 	SentPackets 	0
scalar IntersectionExampleScenario.node[467].nic.mac1609_4 	SNIRLostPackets 	0
scalar IntersectionExampleScenario.node[467].nic.mac1609_4 	RXTXLostPackets 	0
scalar IntersectionExampleScenario.node[467].nic.mac1609_4 	TotalLostPackets 	0
scalar IntersectionExampleScenario.node[467].nic.mac1609_4 	DroppedPacketsInMac 	0
scalar IntersectionExampleScenario.node[467].nic.mac1609_4 	TooLittleTime 	0
scalar IntersectionExampleScenario.node[467].nic.mac1609_4 	TimesIntoBackoff 	0
scalar IntersectionExampleScenario.node[467].nic.mac1609_4 	SlotsBackoff 	0
scalar IntersectionExampleScenario.node[467].nic.mac1609_4 	NumInternalContention 	0
scalar IntersectionExampleScenario.node[467].nic.mac1609_4 	totalBusyTime 	0
scalar IntersectionExampleScenario.node[467].veinsmobility 	startTime 	1772.25
scalar IntersectionExampleScenario.node[467].veinsmobility 	totalTime 	27.75
scalar IntersectionExampleScenario.node[467].veinsmobility 	stopTime 	1800
scalar IntersectionExampleScenario.node[467].veinsmobility 	minSpeed 	0
scalar IntersectionExampleScenario.node[467].veinsmobility 	maxSpeed 	15.64999961853
scalar IntersectionExampleScenario.node[467].veinsmobility 	totalDistance 	287.42188262939
scalar IntersectionExampleScenario.node[467].veinsmobility 	totalCO2Emission 	70.87617876188
scalar IntersectionExampleScenario.node[468].appl 	VehicleRemoved 	0
scalar IntersectionExampleScenario.node[468].appl 	ArrivedAtDest 	0
scalar IntersectionExampleScenario.node[468].appl 	IntersectionEnterTime 	1772.75
scalar IntersectionExampleScenario.node[468].appl 	IntersectionExitTime 	-1
scalar IntersectionExampleScenario.node[468].appl 	NumberOfCollisions 	0
scalar IntersectionExampleScenario.node[468].nic.phy80211p 	busyTime 	0
scalar IntersectionExampleScenario.node[468].nic.mac1609_4 	ReceivedUnicastPackets 	0
scalar IntersectionExampleScenario.node[468].nic.mac1609_4 	ReceivedBroadcasts 	0
scalar IntersectionExampleScenario.node[468].nic.mac1609_4 	SentPackets 	0
scalar IntersectionExampleScenario.node[468].nic.mac1609_4 	SNIRLostPackets 	0
scalar IntersectionExampleScenario.node[468].nic.mac1609_4 	RXTXLostPackets 	0
scalar IntersectionExampleScenario.node[468].nic.mac1609_4 	TotalLostPackets 	0
scalar IntersectionExampleScenario.node[468].nic.mac1609_4 	DroppedPacketsInMac 	0
scalar IntersectionExampleScenario.node[468].nic.mac1609_4 	TooLittleTime 	0
scalar IntersectionExampleScenario.node[468].nic.mac1609_4 	TimesIntoBackoff 	0
scalar IntersectionExampleScenario.node[468].nic.mac1609_4 	SlotsBackoff 	0
scalar IntersectionExampleScenario.node[468].nic.mac1609_4 	NumInternalContention 	0
scalar IntersectionExampleScenario.node[468].nic.mac1609_4 	totalBusyTime 	0
scalar IntersectionExampleScenario.node[468].veinsmobility 	startTime 	1772.75
scalar IntersectionExampleScenario.node[468].veinsmobility 	totalTime 	27.25
scalar IntersectionExampleScenario.node[468].veinsmobility 	stopTime 	1800
scalar IntersectionExampleScenario.node[468].veinsmobility 	minSpeed 	0
scalar IntersectionExampleScenario.node[468].veinsmobility 	maxSpeed 	15.64999961853
scalar IntersectionExampleScenario.node[468].veinsmobility 	totalDistance 	287.42190551758
scalar IntersectionExampleScenario.node[468].veinsmobility 	totalCO2Emission 	70.573687029976
scalar IntersectionExampleScenario.node[469].appl 	VehicleRemoved 	0
scalar IntersectionExampleScenario.node[469].appl 	ArrivedAtDest 	0
scalar IntersectionExampleScenario.node[469].appl 	IntersectionEnterTime 	1778.75
scalar IntersectionExampleScenario.node[469].appl 	IntersectionExitTime 	-1
scalar IntersectionExampleScenario.node[469].appl 	NumberOfCollisions 	0
scalar IntersectionExampleScenario.node[469].nic.phy80211p 	busyTime 	0
scalar IntersectionExampleScenario.node[469].nic.mac1609_4 	ReceivedUnicastPackets 	0
scalar IntersectionExampleScenario.node[469].nic.mac1609_4 	ReceivedBroadcasts 	0
scalar IntersectionExampleScenario.node[469].nic.mac1609_4 	SentPackets 	0
scalar IntersectionExampleScenario.node[469].nic.mac1609_4 	SNIRLostPackets 	0
scalar IntersectionExampleScenario.node[469].nic.mac1609_4 	RXTXLostPackets 	0
scalar IntersectionExampleScenario.node[469].nic.mac1609_4 	TotalLostPackets 	0
scalar IntersectionExampleScenario.node[469].nic.mac1609_4 	DroppedPacketsInMac 	0
scalar IntersectionExampleScenario.node[469].nic.mac1609_4 	TooLittleTime 	0
scalar IntersectionExampleScenario.node[469].nic.mac1609_4 	TimesIntoBackoff 	0
scalar IntersectionExampleScenario.node[469].nic.mac1609_4 	SlotsBackoff 	0
scalar IntersectionExampleScenario.node[469].nic.mac1609_4 	NumInternalContention 	0
scalar IntersectionExampleScenario.node[469].nic.mac1609_4 	totalBusyTime 	0
scalar IntersectionExampleScenario.node[469].veinsmobility 	startTime 	1778.75
scalar IntersectionExampleScenario.node[469].veinsmobility 	totalTime 	21.25
scalar IntersectionExampleScenario.node[469].veinsmobility 	stopTime 	1800
scalar IntersectionExampleScenario.node[469].veinsmobility 	minSpeed 	4.740291595459
scalar IntersectionExampleScenario.node[469].veinsmobility 	maxSpeed 	15.02499961853
scalar IntersectionExampleScenario.node[469].veinsmobility 	totalDistance 	263.13464355469
scalar IntersectionExampleScenario.node[469].veinsmobility 	totalCO2Emission 	59.488618381336
scalar IntersectionExampleScenario.node[470].appl 	VehicleRemoved 	0
scalar IntersectionExampleScenario.node[470].appl 	ArrivedAtDest 	0
scalar IntersectionExampleScenario.node[470].appl 	IntersectionEnterTime 	1779
scalar IntersectionExampleScenario.node[470].appl 	IntersectionExitTime 	-1
scalar IntersectionExampleScenario.node[470].appl 	NumberOfCollisions 	0
scalar IntersectionExampleScenario.node[470].nic.phy80211p 	busyTime 	0
scalar IntersectionExampleScenario.node[470].nic.mac1609_4 	ReceivedUnicastPackets 	0
scalar IntersectionExampleScenario.node[470].nic.mac1609_4 	ReceivedBroadcasts 	0
scalar IntersectionExampleScenario.node[470].nic.mac1609_4 	SentPackets 	0
scalar IntersectionExampleScenario.node[470].nic.mac1609_4 	SNIRLostPackets 	0
scalar IntersectionExampleScenario.node[470].nic.mac1609_4 	RXTXLostPackets 	0
scalar IntersectionExampleScenario.node[470].nic.mac1609_4 	TotalLostPackets 	0
scalar IntersectionExampleScenario.node[470].nic.mac1609_4 	DroppedPacketsInMac 	0
scalar IntersectionExampleScenario.node[470].nic.mac1609_4 	TooLittleTime 	0
scalar IntersectionExampleScenario.node[470].nic.mac1609_4 	TimesIntoBackoff 	0
scalar IntersectionExampleScenario.node[470].nic.mac1609_4 	SlotsBackoff 	0
scalar IntersectionExampleScenario.node[470].nic.mac1609_4 	NumInternalContention 	0
scalar IntersectionExampleScenario.node[470].nic.mac1609_4 	totalBusyTime 	0
scalar IntersectionExampleScenario.node[470].veinsmobility 	startTime 	1779
scalar IntersectionExampleScenario.node[470].veinsmobility 	totalTime 	21
scalar IntersectionExampleScenario.node[470].veinsmobility 	stopTime 	1800
scalar IntersectionExampleScenario.node[470].veinsmobility 	minSpeed 	4.7664403915405
scalar IntersectionExampleScenario.node[470].veinsmobility 	maxSpeed 	15.168504714966
scalar IntersectionExampleScenario.node[470].veinsmobility 	totalDistance 	255.98864746094
scalar IntersectionExampleScenario.node[470].veinsmobility 	totalCO2Emission 	62.791816244064
scalar IntersectionExampleScenario.node[471].appl 	VehicleRemoved 	0
scalar IntersectionExampleScenario.node[471].appl 	ArrivedAtDest 	0
scalar IntersectionExampleScenario.node[471].appl 	IntersectionEnterTime 	1788.75
scalar IntersectionExampleScenario.node[471].appl 	IntersectionExitTime 	-1
scalar IntersectionExampleScenario.node[471].appl 	NumberOfCollisions 	0
scalar IntersectionExampleScenario.node[471].nic.phy80211p 	busyTime 	0
scalar IntersectionExampleScenario.node[471].nic.mac1609_4 	ReceivedUnicastPackets 	0
scalar IntersectionExampleScenario.node[471].nic.mac1609_4 	ReceivedBroadcasts 	0
scalar IntersectionExampleScenario.node[471].nic.mac1609_4 	SentPackets 	0
scalar IntersectionExampleScenario.node[471].nic.mac1609_4 	SNIRLostPackets 	0
scalar IntersectionExampleScenario.node[471].nic.mac1609_4 	RXTXLostPackets 	0
scalar IntersectionExampleScenario.node[471].nic.mac1609_4 	TotalLostPackets 	0
scalar IntersectionExampleScenario.node[471].nic.mac1609_4 	DroppedPacketsInMac 	0
scalar IntersectionExampleScenario.node[471].nic.mac1609_4 	TooLittleTime 	0
scalar IntersectionExampleScenario.node[471].nic.mac1609_4 	TimesIntoBackoff 	0
scalar IntersectionExampleScenario.node[471].nic.mac1609_4 	SlotsBackoff 	0
scalar IntersectionExampleScenario.node[471].nic.mac1609_4 	NumInternalContention 	0
scalar IntersectionExampleScenario.node[471].nic.mac1609_4 	totalBusyTime 	0
scalar IntersectionExampleScenario.node[471].veinsmobility 	startTime 	1788.75
scalar IntersectionExampleScenario.node[471].veinsmobility 	totalTime 	11.25
scalar IntersectionExampleScenario.node[471].veinsmobility 	stopTime 	1800
scalar IntersectionExampleScenario.node[471].veinsmobility 	minSpeed 	5.6500000953674
scalar IntersectionExampleScenario.node[471].veinsmobility 	maxSpeed 	15.64999961853
scalar IntersectionExampleScenario.node[471].veinsmobility 	totalDistance 	151.17749023438
scalar IntersectionExampleScenario.node[471].veinsmobility 	totalCO2Emission 	47.484992106194
scalar IntersectionExampleScenario.node[472].appl 	VehicleRemoved 	0
scalar IntersectionExampleScenario.node[472].appl 	ArrivedAtDest 	0
scalar IntersectionExampleScenario.node[472].appl 	IntersectionEnterTime 	1792.25
scalar IntersectionExampleScenario.node[472].appl 	IntersectionExitTime 	-1
scalar IntersectionExampleScenario.node[472].appl 	NumberOfCollisions 	0
scalar IntersectionExampleScenario.node[472].nic.phy80211p 	busyTime 	0
scalar IntersectionExampleScenario.node[472].nic.mac1609_4 	ReceivedUnicastPackets 	0
scalar IntersectionExampleScenario.node[472].nic.mac1609_4 	ReceivedBroadcasts 	0
scalar IntersectionExampleScenario.node[472].nic.mac1609_4 	SentPackets 	0
scalar IntersectionExampleScenario.node[472].nic.mac1609_4 	SNIRLostPackets 	0
scalar IntersectionExampleScenario.node[472].nic.mac1609_4 	RXTXLostPackets 	0
scalar IntersectionExampleScenario.node[472].nic.mac1609_4 	TotalLostPackets 	0
scalar IntersectionExampleScenario.node[472].nic.mac1609_4 	DroppedPacketsInMac 	0
scalar IntersectionExampleScenario.node[472].nic.mac1609_4 	TooLittleTime 	0
scalar IntersectionExampleScenario.node[472].nic.mac1609_4 	TimesIntoBackoff 	0
scalar IntersectionExampleScenario.node[472].nic.mac1609_4 	SlotsBackoff 	0
scalar IntersectionExampleScenario.node[472].nic.mac1609_4 	NumInternalContention 	0
scalar IntersectionExampleScenario.node[472].nic.mac1609_4 	totalBusyTime 	0
scalar IntersectionExampleScenario.node[472].veinsmobility 	startTime 	1792.25
scalar IntersectionExampleScenario.node[472].veinsmobility 	totalTime 	7.75
scalar IntersectionExampleScenario.node[472].veinsmobility 	stopTime 	1800
scalar IntersectionExampleScenario.node[472].veinsmobility 	minSpeed 	5.6500000953674
scalar IntersectionExampleScenario.node[472].veinsmobility 	maxSpeed 	15.02499961853
scalar IntersectionExampleScenario.node[472].veinsmobility 	totalDistance 	95.065391540527
scalar IntersectionExampleScenario.node[472].veinsmobility 	totalCO2Emission 	37.063439035549
scalar IntersectionExampleScenario.node[473].appl 	VehicleRemoved 	0
scalar IntersectionExampleScenario.node[473].appl 	ArrivedAtDest 	0
scalar IntersectionExampleScenario.node[473].appl 	IntersectionEnterTime 	1798.5
scalar IntersectionExampleScenario.node[473].appl 	IntersectionExitTime 	-1
scalar IntersectionExampleScenario.node[473].appl 	NumberOfCollisions 	0
scalar IntersectionExampleScenario.node[473].nic.phy80211p 	busyTime 	0
scalar IntersectionExampleScenario.node[473].nic.mac1609_4 	ReceivedUnicastPackets 	0
scalar IntersectionExampleScenario.node[473].nic.mac1609_4 	ReceivedBroadcasts 	0
scalar IntersectionExampleScenario.node[473].nic.mac1609_4 	SentPackets 	0
scalar IntersectionExampleScenario.node[473].nic.mac1609_4 	SNIRLostPackets 	0
scalar IntersectionExampleScenario.node[473].nic.mac1609_4 	RXTXLostPackets 	0
scalar IntersectionExampleScenario.node[473].nic.mac1609_4 	TotalLostPackets 	0
scalar IntersectionExampleScenario.node[473].nic.mac1609_4 	DroppedPacketsInMac 	0
scalar IntersectionExampleScenario.node[473].nic.mac1609_4 	TooLittleTime 	0
scalar IntersectionExampleScenario.node[473].nic.mac1609_4 	TimesIntoBackoff 	0
scalar IntersectionExampleScenario.node[473].nic.mac1609_4 	SlotsBackoff 	0
scalar IntersectionExampleScenario.node[473].nic.mac1609_4 	NumInternalContention 	0
scalar IntersectionExampleScenario.node[473].nic.mac1609_4 	totalBusyTime 	0
scalar IntersectionExampleScenario.node[473].veinsmobility 	startTime 	1798.5
scalar IntersectionExampleScenario.node[473].veinsmobility 	totalTime 	1.5
scalar IntersectionExampleScenario.node[473].veinsmobility 	stopTime 	1800
scalar IntersectionExampleScenario.node[473].veinsmobility 	minSpeed 	5.6500000953674
scalar IntersectionExampleScenario.node[473].veinsmobility 	maxSpeed 	8.7749996185303
scalar IntersectionExampleScenario.node[473].veinsmobility 	totalDistance 	10.350036621094
scalar IntersectionExampleScenario.node[473].veinsmobility 	totalCO2Emission 	7.5597628883124
