version 2
run nodebug-43-20200606-19:06:07-22420
attr configname nodebug
attr datetime 20200606-19:06:07
attr experiment nodebug
attr inifile omnetpp.ini
attr iterationvars ""
attr iterationvars2 $repetition=43
attr measurement ""
attr network "\"org.car2x.veins.modules.application.ExtTraCIScenarioManagerLaunchd.IntersectionExampleScenario\""
attr processid 22420
attr repetition 43
attr replication #43
attr resultdir results
attr runnumber 43
attr seedset 43
param **.coreDebug false
param **.debug false
param *.**.nic.mac1609_4.bitrate 18Mbps
param *.**.nic.mac1609_4.txPower 20mW
param *.**.nic.mac1609_4.useServiceChannel false
param *.**.nic.phy80211p.analogueModels "xmldoc(\"config.xml\")"
param *.**.nic.phy80211p.decider "xmldoc(\"config.xml\")"
param *.**.nic.phy80211p.sensitivity -89dBm
param *.**.nic.phy80211p.thermalNoise -110dBm
param *.**.nic.phy80211p.usePropagationDelay true
param *.**.nic.phy80211p.useThermalNoise true
param *.annotations.draw false
param *.connectionManager.alpha 2.0
param *.connectionManager.carrierFrequency "5.890e9 Hz"
param *.connectionManager.pMax 20mW
param *.connectionManager.sat -89dBm
param *.connectionManager.sendDirect true
param *.manager.autoShutdown true
param *.manager.host "\"localhost\""
param *.manager.launchConfig "xmldoc(\"paramics.launchd.xml\")"
param *.manager.margin 25
param *.manager.moduleDisplayString "\"\""
param *.manager.moduleName "\"node\""
param *.manager.moduleType "\"org.car2x.veins.nodes.Car\""
param *.manager.port 9999
param *.manager.updateInterval 250ms
param *.node[*0].veinsmobility.accidentCount 0
param *.node[*0].veinsmobility.accidentDuration 30s
param *.node[*0].veinsmobility.accidentStart 75s
param *.node[*].appl.LiderSelectZoneRadio 55.0
param *.node[*].appl.ShareDataZoneRadio 110.0
param *.node[*].appl.TiempoSemaforo 30.0
param *.node[*].appl.beaconInterval 1s
param *.node[*].appl.beaconPriority 3
param *.node[*].appl.dataOnSch false
param *.node[*].appl.dataPriority 2
param *.node[*].appl.debug false
param *.node[*].appl.headerLength "256 bit"
param *.node[*].appl.maxOffset 0.005s
param *.node[*].appl.sendBeacons false
param *.node[*].appl.sendData true
param *.node[*].applType "\"Dummy\""
param *.node[*].mobilityType "\"TraCIMobility\""
param *.node[*].mobilityType.debug true
param *.node[*].veinsmobility.x 0
param *.node[*].veinsmobility.y 0
param *.node[*].veinsmobility.z 1.895
param *.node[*].veinsmobilityType "\"org.car2x.veins.modules.mobility.traci.TraCIMobility\""
param *.node[*].veinsmobilityType.debug true
param *.playgroundSizeX 8500m
param *.playgroundSizeY 8500m
param *.playgroundSizeZ 50m
param *.world.use2D false
param *.world.useTorus false

scalar IntersectionExampleScenario.node[0].appl 	VehicleRemoved 	0
scalar IntersectionExampleScenario.node[0].appl 	ArrivedAtDest 	1
scalar IntersectionExampleScenario.node[0].appl 	IntersectionEnterTime 	2.5
scalar IntersectionExampleScenario.node[0].appl 	IntersectionExitTime 	25.780073702801
scalar IntersectionExampleScenario.node[0].appl 	NumberOfCollisions 	0
scalar IntersectionExampleScenario.node[0].nic.phy80211p 	busyTime 	0
scalar IntersectionExampleScenario.node[0].nic.mac1609_4 	ReceivedUnicastPackets 	0
scalar IntersectionExampleScenario.node[0].nic.mac1609_4 	ReceivedBroadcasts 	0
scalar IntersectionExampleScenario.node[0].nic.mac1609_4 	SentPackets 	0
scalar IntersectionExampleScenario.node[0].nic.mac1609_4 	SNIRLostPackets 	0
scalar IntersectionExampleScenario.node[0].nic.mac1609_4 	RXTXLostPackets 	0
scalar IntersectionExampleScenario.node[0].nic.mac1609_4 	TotalLostPackets 	0
scalar IntersectionExampleScenario.node[0].nic.mac1609_4 	DroppedPacketsInMac 	0
scalar IntersectionExampleScenario.node[0].nic.mac1609_4 	TooLittleTime 	0
scalar IntersectionExampleScenario.node[0].nic.mac1609_4 	TimesIntoBackoff 	0
scalar IntersectionExampleScenario.node[0].nic.mac1609_4 	SlotsBackoff 	0
scalar IntersectionExampleScenario.node[0].nic.mac1609_4 	NumInternalContention 	0
scalar IntersectionExampleScenario.node[0].nic.mac1609_4 	totalBusyTime 	0
scalar IntersectionExampleScenario.node[0].veinsmobility 	startTime 	2.5
scalar IntersectionExampleScenario.node[0].veinsmobility 	totalTime 	39.5
scalar IntersectionExampleScenario.node[0].veinsmobility 	stopTime 	42.25
scalar IntersectionExampleScenario.node[0].veinsmobility 	minSpeed 	5.6500000953674
scalar IntersectionExampleScenario.node[0].veinsmobility 	maxSpeed 	16.27499961853
scalar IntersectionExampleScenario.node[0].veinsmobility 	totalDistance 	545.314319166
scalar IntersectionExampleScenario.node[0].veinsmobility 	totalCO2Emission 	131.38682548195
scalar IntersectionExampleScenario.node[1].appl 	VehicleRemoved 	0
scalar IntersectionExampleScenario.node[1].appl 	ArrivedAtDest 	1
scalar IntersectionExampleScenario.node[1].appl 	IntersectionEnterTime 	2.75
scalar IntersectionExampleScenario.node[1].appl 	IntersectionExitTime 	26.317645276635
scalar IntersectionExampleScenario.node[1].appl 	NumberOfCollisions 	0
scalar IntersectionExampleScenario.node[1].nic.phy80211p 	busyTime 	0
scalar IntersectionExampleScenario.node[1].nic.mac1609_4 	ReceivedUnicastPackets 	0
scalar IntersectionExampleScenario.node[1].nic.mac1609_4 	ReceivedBroadcasts 	0
scalar IntersectionExampleScenario.node[1].nic.mac1609_4 	SentPackets 	0
scalar IntersectionExampleScenario.node[1].nic.mac1609_4 	SNIRLostPackets 	0
scalar IntersectionExampleScenario.node[1].nic.mac1609_4 	RXTXLostPackets 	0
scalar IntersectionExampleScenario.node[1].nic.mac1609_4 	TotalLostPackets 	0
scalar IntersectionExampleScenario.node[1].nic.mac1609_4 	DroppedPacketsInMac 	0
scalar IntersectionExampleScenario.node[1].nic.mac1609_4 	TooLittleTime 	0
scalar IntersectionExampleScenario.node[1].nic.mac1609_4 	TimesIntoBackoff 	0
scalar IntersectionExampleScenario.node[1].nic.mac1609_4 	SlotsBackoff 	0
scalar IntersectionExampleScenario.node[1].nic.mac1609_4 	NumInternalContention 	0
scalar IntersectionExampleScenario.node[1].nic.mac1609_4 	totalBusyTime 	0
scalar IntersectionExampleScenario.node[1].veinsmobility 	startTime 	2.75
scalar IntersectionExampleScenario.node[1].veinsmobility 	totalTime 	39.75
scalar IntersectionExampleScenario.node[1].veinsmobility 	stopTime 	42.75
scalar IntersectionExampleScenario.node[1].veinsmobility 	minSpeed 	5.6500000953674
scalar IntersectionExampleScenario.node[1].veinsmobility 	maxSpeed 	15.5
scalar IntersectionExampleScenario.node[1].veinsmobility 	totalDistance 	553.96006011963
scalar IntersectionExampleScenario.node[1].veinsmobility 	totalCO2Emission 	122.29852027881
scalar IntersectionExampleScenario.node[2].appl 	VehicleRemoved 	0
scalar IntersectionExampleScenario.node[2].appl 	ArrivedAtDest 	1
scalar IntersectionExampleScenario.node[2].appl 	IntersectionEnterTime 	5.75
scalar IntersectionExampleScenario.node[2].appl 	IntersectionExitTime 	30.100255889847
scalar IntersectionExampleScenario.node[2].appl 	NumberOfCollisions 	0
scalar IntersectionExampleScenario.node[2].nic.phy80211p 	busyTime 	0
scalar IntersectionExampleScenario.node[2].nic.mac1609_4 	ReceivedUnicastPackets 	0
scalar IntersectionExampleScenario.node[2].nic.mac1609_4 	ReceivedBroadcasts 	0
scalar IntersectionExampleScenario.node[2].nic.mac1609_4 	SentPackets 	0
scalar IntersectionExampleScenario.node[2].nic.mac1609_4 	SNIRLostPackets 	0
scalar IntersectionExampleScenario.node[2].nic.mac1609_4 	RXTXLostPackets 	0
scalar IntersectionExampleScenario.node[2].nic.mac1609_4 	TotalLostPackets 	0
scalar IntersectionExampleScenario.node[2].nic.mac1609_4 	DroppedPacketsInMac 	0
scalar IntersectionExampleScenario.node[2].nic.mac1609_4 	TooLittleTime 	0
scalar IntersectionExampleScenario.node[2].nic.mac1609_4 	TimesIntoBackoff 	0
scalar IntersectionExampleScenario.node[2].nic.mac1609_4 	SlotsBackoff 	0
scalar IntersectionExampleScenario.node[2].nic.mac1609_4 	NumInternalContention 	0
scalar IntersectionExampleScenario.node[2].nic.mac1609_4 	totalBusyTime 	0
scalar IntersectionExampleScenario.node[2].veinsmobility 	startTime 	5.75
scalar IntersectionExampleScenario.node[2].veinsmobility 	totalTime 	40.75
scalar IntersectionExampleScenario.node[2].veinsmobility 	stopTime 	46.75
scalar IntersectionExampleScenario.node[2].veinsmobility 	minSpeed 	5.6500000953674
scalar IntersectionExampleScenario.node[2].veinsmobility 	maxSpeed 	15.375
scalar IntersectionExampleScenario.node[2].veinsmobility 	totalDistance 	562.25980681607
scalar IntersectionExampleScenario.node[2].veinsmobility 	totalCO2Emission 	123.26328057436
scalar IntersectionExampleScenario.node[4].appl 	VehicleRemoved 	0
scalar IntersectionExampleScenario.node[4].appl 	ArrivedAtDest 	1
scalar IntersectionExampleScenario.node[4].appl 	IntersectionEnterTime 	16.5
scalar IntersectionExampleScenario.node[4].appl 	IntersectionExitTime 	39.855403086462
scalar IntersectionExampleScenario.node[4].appl 	NumberOfCollisions 	0
scalar IntersectionExampleScenario.node[4].nic.phy80211p 	busyTime 	0
scalar IntersectionExampleScenario.node[4].nic.mac1609_4 	ReceivedUnicastPackets 	0
scalar IntersectionExampleScenario.node[4].nic.mac1609_4 	ReceivedBroadcasts 	0
scalar IntersectionExampleScenario.node[4].nic.mac1609_4 	SentPackets 	0
scalar IntersectionExampleScenario.node[4].nic.mac1609_4 	SNIRLostPackets 	0
scalar IntersectionExampleScenario.node[4].nic.mac1609_4 	RXTXLostPackets 	0
scalar IntersectionExampleScenario.node[4].nic.mac1609_4 	TotalLostPackets 	0
scalar IntersectionExampleScenario.node[4].nic.mac1609_4 	DroppedPacketsInMac 	0
scalar IntersectionExampleScenario.node[4].nic.mac1609_4 	TooLittleTime 	0
scalar IntersectionExampleScenario.node[4].nic.mac1609_4 	TimesIntoBackoff 	0
scalar IntersectionExampleScenario.node[4].nic.mac1609_4 	SlotsBackoff 	0
scalar IntersectionExampleScenario.node[4].nic.mac1609_4 	NumInternalContention 	0
scalar IntersectionExampleScenario.node[4].nic.mac1609_4 	totalBusyTime 	0
scalar IntersectionExampleScenario.node[4].veinsmobility 	startTime 	16.5
scalar IntersectionExampleScenario.node[4].veinsmobility 	totalTime 	39.5
scalar IntersectionExampleScenario.node[4].veinsmobility 	stopTime 	56.25
scalar IntersectionExampleScenario.node[4].veinsmobility 	minSpeed 	5.6500000953674
scalar IntersectionExampleScenario.node[4].veinsmobility 	maxSpeed 	15.64999961853
scalar IntersectionExampleScenario.node[4].veinsmobility 	totalDistance 	550.75992360291
scalar IntersectionExampleScenario.node[4].veinsmobility 	totalCO2Emission 	125.61020897181
scalar IntersectionExampleScenario.node[7].appl 	VehicleRemoved 	0
scalar IntersectionExampleScenario.node[7].appl 	ArrivedAtDest 	1
scalar IntersectionExampleScenario.node[7].appl 	IntersectionEnterTime 	23
scalar IntersectionExampleScenario.node[7].appl 	IntersectionExitTime 	46.567900314461
scalar IntersectionExampleScenario.node[7].appl 	NumberOfCollisions 	0
scalar IntersectionExampleScenario.node[7].nic.phy80211p 	busyTime 	0
scalar IntersectionExampleScenario.node[7].nic.mac1609_4 	ReceivedUnicastPackets 	0
scalar IntersectionExampleScenario.node[7].nic.mac1609_4 	ReceivedBroadcasts 	0
scalar IntersectionExampleScenario.node[7].nic.mac1609_4 	SentPackets 	0
scalar IntersectionExampleScenario.node[7].nic.mac1609_4 	SNIRLostPackets 	0
scalar IntersectionExampleScenario.node[7].nic.mac1609_4 	RXTXLostPackets 	0
scalar IntersectionExampleScenario.node[7].nic.mac1609_4 	TotalLostPackets 	0
scalar IntersectionExampleScenario.node[7].nic.mac1609_4 	DroppedPacketsInMac 	0
scalar IntersectionExampleScenario.node[7].nic.mac1609_4 	TooLittleTime 	0
scalar IntersectionExampleScenario.node[7].nic.mac1609_4 	TimesIntoBackoff 	0
scalar IntersectionExampleScenario.node[7].nic.mac1609_4 	SlotsBackoff 	0
scalar IntersectionExampleScenario.node[7].nic.mac1609_4 	NumInternalContention 	0
scalar IntersectionExampleScenario.node[7].nic.mac1609_4 	totalBusyTime 	0
scalar IntersectionExampleScenario.node[7].veinsmobility 	startTime 	23
scalar IntersectionExampleScenario.node[7].veinsmobility 	totalTime 	40.25
scalar IntersectionExampleScenario.node[7].veinsmobility 	stopTime 	63.5
scalar IntersectionExampleScenario.node[7].veinsmobility 	minSpeed 	5.6500000953674
scalar IntersectionExampleScenario.node[7].veinsmobility 	maxSpeed 	15.64999961853
scalar IntersectionExampleScenario.node[7].veinsmobility 	totalDistance 	545.75283398471
scalar IntersectionExampleScenario.node[7].veinsmobility 	totalCO2Emission 	126.65543267184
scalar IntersectionExampleScenario.node[6].appl 	VehicleRemoved 	0
scalar IntersectionExampleScenario.node[6].appl 	ArrivedAtDest 	1
scalar IntersectionExampleScenario.node[6].appl 	IntersectionEnterTime 	22.25
scalar IntersectionExampleScenario.node[6].appl 	IntersectionExitTime 	49.612137322925
scalar IntersectionExampleScenario.node[6].appl 	NumberOfCollisions 	0
scalar IntersectionExampleScenario.node[6].nic.phy80211p 	busyTime 	0
scalar IntersectionExampleScenario.node[6].nic.mac1609_4 	ReceivedUnicastPackets 	0
scalar IntersectionExampleScenario.node[6].nic.mac1609_4 	ReceivedBroadcasts 	0
scalar IntersectionExampleScenario.node[6].nic.mac1609_4 	SentPackets 	0
scalar IntersectionExampleScenario.node[6].nic.mac1609_4 	SNIRLostPackets 	0
scalar IntersectionExampleScenario.node[6].nic.mac1609_4 	RXTXLostPackets 	0
scalar IntersectionExampleScenario.node[6].nic.mac1609_4 	TotalLostPackets 	0
scalar IntersectionExampleScenario.node[6].nic.mac1609_4 	DroppedPacketsInMac 	0
scalar IntersectionExampleScenario.node[6].nic.mac1609_4 	TooLittleTime 	0
scalar IntersectionExampleScenario.node[6].nic.mac1609_4 	TimesIntoBackoff 	0
scalar IntersectionExampleScenario.node[6].nic.mac1609_4 	SlotsBackoff 	0
scalar IntersectionExampleScenario.node[6].nic.mac1609_4 	NumInternalContention 	0
scalar IntersectionExampleScenario.node[6].nic.mac1609_4 	totalBusyTime 	0
scalar IntersectionExampleScenario.node[6].veinsmobility 	startTime 	22.25
scalar IntersectionExampleScenario.node[6].veinsmobility 	totalTime 	44
scalar IntersectionExampleScenario.node[6].veinsmobility 	stopTime 	66.5
scalar IntersectionExampleScenario.node[6].veinsmobility 	minSpeed 	0
scalar IntersectionExampleScenario.node[6].veinsmobility 	maxSpeed 	15.875
scalar IntersectionExampleScenario.node[6].veinsmobility 	totalDistance 	546.65286923796
scalar IntersectionExampleScenario.node[6].veinsmobility 	totalCO2Emission 	137.55634292096
scalar IntersectionExampleScenario.node[9].appl 	VehicleRemoved 	0
scalar IntersectionExampleScenario.node[9].appl 	ArrivedAtDest 	1
scalar IntersectionExampleScenario.node[9].appl 	IntersectionEnterTime 	27
scalar IntersectionExampleScenario.node[9].appl 	IntersectionExitTime 	52.022614324087
scalar IntersectionExampleScenario.node[9].appl 	NumberOfCollisions 	0
scalar IntersectionExampleScenario.node[9].nic.phy80211p 	busyTime 	0
scalar IntersectionExampleScenario.node[9].nic.mac1609_4 	ReceivedUnicastPackets 	0
scalar IntersectionExampleScenario.node[9].nic.mac1609_4 	ReceivedBroadcasts 	0
scalar IntersectionExampleScenario.node[9].nic.mac1609_4 	SentPackets 	0
scalar IntersectionExampleScenario.node[9].nic.mac1609_4 	SNIRLostPackets 	0
scalar IntersectionExampleScenario.node[9].nic.mac1609_4 	RXTXLostPackets 	0
scalar IntersectionExampleScenario.node[9].nic.mac1609_4 	TotalLostPackets 	0
scalar IntersectionExampleScenario.node[9].nic.mac1609_4 	DroppedPacketsInMac 	0
scalar IntersectionExampleScenario.node[9].nic.mac1609_4 	TooLittleTime 	0
scalar IntersectionExampleScenario.node[9].nic.mac1609_4 	TimesIntoBackoff 	0
scalar IntersectionExampleScenario.node[9].nic.mac1609_4 	SlotsBackoff 	0
scalar IntersectionExampleScenario.node[9].nic.mac1609_4 	NumInternalContention 	0
scalar IntersectionExampleScenario.node[9].nic.mac1609_4 	totalBusyTime 	0
scalar IntersectionExampleScenario.node[9].veinsmobility 	startTime 	27
scalar IntersectionExampleScenario.node[9].veinsmobility 	totalTime 	41.5
scalar IntersectionExampleScenario.node[9].veinsmobility 	stopTime 	68.75
scalar IntersectionExampleScenario.node[9].veinsmobility 	minSpeed 	5.6500000953674
scalar IntersectionExampleScenario.node[9].veinsmobility 	maxSpeed 	15.375
scalar IntersectionExampleScenario.node[9].veinsmobility 	totalDistance 	550.2615846979
scalar IntersectionExampleScenario.node[9].veinsmobility 	totalCO2Emission 	130.50101658806
scalar IntersectionExampleScenario.node[11].appl 	VehicleRemoved 	0
scalar IntersectionExampleScenario.node[11].appl 	ArrivedAtDest 	1
scalar IntersectionExampleScenario.node[11].appl 	IntersectionEnterTime 	35.5
scalar IntersectionExampleScenario.node[11].appl 	IntersectionExitTime 	58.266852716653
scalar IntersectionExampleScenario.node[11].appl 	NumberOfCollisions 	0
scalar IntersectionExampleScenario.node[11].nic.phy80211p 	busyTime 	0
scalar IntersectionExampleScenario.node[11].nic.mac1609_4 	ReceivedUnicastPackets 	0
scalar IntersectionExampleScenario.node[11].nic.mac1609_4 	ReceivedBroadcasts 	0
scalar IntersectionExampleScenario.node[11].nic.mac1609_4 	SentPackets 	0
scalar IntersectionExampleScenario.node[11].nic.mac1609_4 	SNIRLostPackets 	0
scalar IntersectionExampleScenario.node[11].nic.mac1609_4 	RXTXLostPackets 	0
scalar IntersectionExampleScenario.node[11].nic.mac1609_4 	TotalLostPackets 	0
scalar IntersectionExampleScenario.node[11].nic.mac1609_4 	DroppedPacketsInMac 	0
scalar IntersectionExampleScenario.node[11].nic.mac1609_4 	TooLittleTime 	0
scalar IntersectionExampleScenario.node[11].nic.mac1609_4 	TimesIntoBackoff 	0
scalar IntersectionExampleScenario.node[11].nic.mac1609_4 	SlotsBackoff 	0
scalar IntersectionExampleScenario.node[11].nic.mac1609_4 	NumInternalContention 	0
scalar IntersectionExampleScenario.node[11].nic.mac1609_4 	totalBusyTime 	0
scalar IntersectionExampleScenario.node[11].veinsmobility 	startTime 	35.5
scalar IntersectionExampleScenario.node[11].veinsmobility 	totalTime 	38.5
scalar IntersectionExampleScenario.node[11].veinsmobility 	stopTime 	74.25
scalar IntersectionExampleScenario.node[11].veinsmobility 	minSpeed 	5.6500000953674
scalar IntersectionExampleScenario.node[11].veinsmobility 	maxSpeed 	16.27499961853
scalar IntersectionExampleScenario.node[11].veinsmobility 	totalDistance 	549.0714956885
scalar IntersectionExampleScenario.node[11].veinsmobility 	totalCO2Emission 	125.94995989436
scalar IntersectionExampleScenario.node[3].appl 	VehicleRemoved 	0
scalar IntersectionExampleScenario.node[3].appl 	ArrivedAtDest 	1
scalar IntersectionExampleScenario.node[3].appl 	IntersectionEnterTime 	15
scalar IntersectionExampleScenario.node[3].appl 	IntersectionExitTime 	61.277628623997
scalar IntersectionExampleScenario.node[3].appl 	NumberOfCollisions 	0
scalar IntersectionExampleScenario.node[3].nic.phy80211p 	busyTime 	0
scalar IntersectionExampleScenario.node[3].nic.mac1609_4 	ReceivedUnicastPackets 	0
scalar IntersectionExampleScenario.node[3].nic.mac1609_4 	ReceivedBroadcasts 	0
scalar IntersectionExampleScenario.node[3].nic.mac1609_4 	SentPackets 	0
scalar IntersectionExampleScenario.node[3].nic.mac1609_4 	SNIRLostPackets 	0
scalar IntersectionExampleScenario.node[3].nic.mac1609_4 	RXTXLostPackets 	0
scalar IntersectionExampleScenario.node[3].nic.mac1609_4 	TotalLostPackets 	0
scalar IntersectionExampleScenario.node[3].nic.mac1609_4 	DroppedPacketsInMac 	0
scalar IntersectionExampleScenario.node[3].nic.mac1609_4 	TooLittleTime 	0
scalar IntersectionExampleScenario.node[3].nic.mac1609_4 	TimesIntoBackoff 	0
scalar IntersectionExampleScenario.node[3].nic.mac1609_4 	SlotsBackoff 	0
scalar IntersectionExampleScenario.node[3].nic.mac1609_4 	NumInternalContention 	0
scalar IntersectionExampleScenario.node[3].nic.mac1609_4 	totalBusyTime 	0
scalar IntersectionExampleScenario.node[3].veinsmobility 	startTime 	15
scalar IntersectionExampleScenario.node[3].veinsmobility 	totalTime 	62.25
scalar IntersectionExampleScenario.node[3].veinsmobility 	stopTime 	77.5
scalar IntersectionExampleScenario.node[3].veinsmobility 	minSpeed 	0
scalar IntersectionExampleScenario.node[3].veinsmobility 	maxSpeed 	15.64999961853
scalar IntersectionExampleScenario.node[3].veinsmobility 	totalDistance 	553.61808013916
scalar IntersectionExampleScenario.node[3].veinsmobility 	totalCO2Emission 	156.67120250114
scalar IntersectionExampleScenario.node[10].appl 	VehicleRemoved 	0
scalar IntersectionExampleScenario.node[10].appl 	ArrivedAtDest 	1
scalar IntersectionExampleScenario.node[10].appl 	IntersectionEnterTime 	27.25
scalar IntersectionExampleScenario.node[10].appl 	IntersectionExitTime 	60.826124738989
scalar IntersectionExampleScenario.node[10].appl 	NumberOfCollisions 	0
scalar IntersectionExampleScenario.node[10].nic.phy80211p 	busyTime 	0
scalar IntersectionExampleScenario.node[10].nic.mac1609_4 	ReceivedUnicastPackets 	0
scalar IntersectionExampleScenario.node[10].nic.mac1609_4 	ReceivedBroadcasts 	0
scalar IntersectionExampleScenario.node[10].nic.mac1609_4 	SentPackets 	0
scalar IntersectionExampleScenario.node[10].nic.mac1609_4 	SNIRLostPackets 	0
scalar IntersectionExampleScenario.node[10].nic.mac1609_4 	RXTXLostPackets 	0
scalar IntersectionExampleScenario.node[10].nic.mac1609_4 	TotalLostPackets 	0
scalar IntersectionExampleScenario.node[10].nic.mac1609_4 	DroppedPacketsInMac 	0
scalar IntersectionExampleScenario.node[10].nic.mac1609_4 	TooLittleTime 	0
scalar IntersectionExampleScenario.node[10].nic.mac1609_4 	TimesIntoBackoff 	0
scalar IntersectionExampleScenario.node[10].nic.mac1609_4 	SlotsBackoff 	0
scalar IntersectionExampleScenario.node[10].nic.mac1609_4 	NumInternalContention 	0
scalar IntersectionExampleScenario.node[10].nic.mac1609_4 	totalBusyTime 	0
scalar IntersectionExampleScenario.node[10].veinsmobility 	startTime 	27.25
scalar IntersectionExampleScenario.node[10].veinsmobility 	totalTime 	50.75
scalar IntersectionExampleScenario.node[10].veinsmobility 	stopTime 	78.25
scalar IntersectionExampleScenario.node[10].veinsmobility 	minSpeed 	0
scalar IntersectionExampleScenario.node[10].veinsmobility 	maxSpeed 	14.75
scalar IntersectionExampleScenario.node[10].veinsmobility 	totalDistance 	550.35758333635
scalar IntersectionExampleScenario.node[10].veinsmobility 	totalCO2Emission 	134.7877502796
scalar IntersectionExampleScenario.node[5].appl 	VehicleRemoved 	0
scalar IntersectionExampleScenario.node[5].appl 	ArrivedAtDest 	1
scalar IntersectionExampleScenario.node[5].appl 	IntersectionEnterTime 	19.25
scalar IntersectionExampleScenario.node[5].appl 	IntersectionExitTime 	62.36931101582
scalar IntersectionExampleScenario.node[5].appl 	NumberOfCollisions 	0
scalar IntersectionExampleScenario.node[5].nic.phy80211p 	busyTime 	0
scalar IntersectionExampleScenario.node[5].nic.mac1609_4 	ReceivedUnicastPackets 	0
scalar IntersectionExampleScenario.node[5].nic.mac1609_4 	ReceivedBroadcasts 	0
scalar IntersectionExampleScenario.node[5].nic.mac1609_4 	SentPackets 	0
scalar IntersectionExampleScenario.node[5].nic.mac1609_4 	SNIRLostPackets 	0
scalar IntersectionExampleScenario.node[5].nic.mac1609_4 	RXTXLostPackets 	0
scalar IntersectionExampleScenario.node[5].nic.mac1609_4 	TotalLostPackets 	0
scalar IntersectionExampleScenario.node[5].nic.mac1609_4 	DroppedPacketsInMac 	0
scalar IntersectionExampleScenario.node[5].nic.mac1609_4 	TooLittleTime 	0
scalar IntersectionExampleScenario.node[5].nic.mac1609_4 	TimesIntoBackoff 	0
scalar IntersectionExampleScenario.node[5].nic.mac1609_4 	SlotsBackoff 	0
scalar IntersectionExampleScenario.node[5].nic.mac1609_4 	NumInternalContention 	0
scalar IntersectionExampleScenario.node[5].nic.mac1609_4 	totalBusyTime 	0
scalar IntersectionExampleScenario.node[5].veinsmobility 	startTime 	19.25
scalar IntersectionExampleScenario.node[5].veinsmobility 	totalTime 	59.75
scalar IntersectionExampleScenario.node[5].veinsmobility 	stopTime 	79.25
scalar IntersectionExampleScenario.node[5].veinsmobility 	minSpeed 	0
scalar IntersectionExampleScenario.node[5].veinsmobility 	maxSpeed 	16.008041381836
scalar IntersectionExampleScenario.node[5].veinsmobility 	totalDistance 	547.7374016676
scalar IntersectionExampleScenario.node[5].veinsmobility 	totalCO2Emission 	160.06619753864
scalar IntersectionExampleScenario.node[8].appl 	VehicleRemoved 	0
scalar IntersectionExampleScenario.node[8].appl 	ArrivedAtDest 	1
scalar IntersectionExampleScenario.node[8].appl 	IntersectionEnterTime 	24
scalar IntersectionExampleScenario.node[8].appl 	IntersectionExitTime 	65.113582844206
scalar IntersectionExampleScenario.node[8].appl 	NumberOfCollisions 	0
scalar IntersectionExampleScenario.node[8].nic.phy80211p 	busyTime 	0
scalar IntersectionExampleScenario.node[8].nic.mac1609_4 	ReceivedUnicastPackets 	0
scalar IntersectionExampleScenario.node[8].nic.mac1609_4 	ReceivedBroadcasts 	0
scalar IntersectionExampleScenario.node[8].nic.mac1609_4 	SentPackets 	0
scalar IntersectionExampleScenario.node[8].nic.mac1609_4 	SNIRLostPackets 	0
scalar IntersectionExampleScenario.node[8].nic.mac1609_4 	RXTXLostPackets 	0
scalar IntersectionExampleScenario.node[8].nic.mac1609_4 	TotalLostPackets 	0
scalar IntersectionExampleScenario.node[8].nic.mac1609_4 	DroppedPacketsInMac 	0
scalar IntersectionExampleScenario.node[8].nic.mac1609_4 	TooLittleTime 	0
scalar IntersectionExampleScenario.node[8].nic.mac1609_4 	TimesIntoBackoff 	0
scalar IntersectionExampleScenario.node[8].nic.mac1609_4 	SlotsBackoff 	0
scalar IntersectionExampleScenario.node[8].nic.mac1609_4 	NumInternalContention 	0
scalar IntersectionExampleScenario.node[8].nic.mac1609_4 	totalBusyTime 	0
scalar IntersectionExampleScenario.node[8].veinsmobility 	startTime 	24
scalar IntersectionExampleScenario.node[8].veinsmobility 	totalTime 	57.5
scalar IntersectionExampleScenario.node[8].veinsmobility 	stopTime 	81.75
scalar IntersectionExampleScenario.node[8].veinsmobility 	minSpeed 	0
scalar IntersectionExampleScenario.node[8].veinsmobility 	maxSpeed 	15.64999961853
scalar IntersectionExampleScenario.node[8].veinsmobility 	totalDistance 	546.44159152771
scalar IntersectionExampleScenario.node[8].veinsmobility 	totalCO2Emission 	150.00510822602
scalar IntersectionExampleScenario.node[12].appl 	VehicleRemoved 	0
scalar IntersectionExampleScenario.node[12].appl 	ArrivedAtDest 	1
scalar IntersectionExampleScenario.node[12].appl 	IntersectionEnterTime 	39
scalar IntersectionExampleScenario.node[12].appl 	IntersectionExitTime 	66.788494570734
scalar IntersectionExampleScenario.node[12].appl 	NumberOfCollisions 	0
scalar IntersectionExampleScenario.node[12].nic.phy80211p 	busyTime 	0
scalar IntersectionExampleScenario.node[12].nic.mac1609_4 	ReceivedUnicastPackets 	0
scalar IntersectionExampleScenario.node[12].nic.mac1609_4 	ReceivedBroadcasts 	0
scalar IntersectionExampleScenario.node[12].nic.mac1609_4 	SentPackets 	0
scalar IntersectionExampleScenario.node[12].nic.mac1609_4 	SNIRLostPackets 	0
scalar IntersectionExampleScenario.node[12].nic.mac1609_4 	RXTXLostPackets 	0
scalar IntersectionExampleScenario.node[12].nic.mac1609_4 	TotalLostPackets 	0
scalar IntersectionExampleScenario.node[12].nic.mac1609_4 	DroppedPacketsInMac 	0
scalar IntersectionExampleScenario.node[12].nic.mac1609_4 	TooLittleTime 	0
scalar IntersectionExampleScenario.node[12].nic.mac1609_4 	TimesIntoBackoff 	0
scalar IntersectionExampleScenario.node[12].nic.mac1609_4 	SlotsBackoff 	0
scalar IntersectionExampleScenario.node[12].nic.mac1609_4 	NumInternalContention 	0
scalar IntersectionExampleScenario.node[12].nic.mac1609_4 	totalBusyTime 	0
scalar IntersectionExampleScenario.node[12].veinsmobility 	startTime 	39
scalar IntersectionExampleScenario.node[12].veinsmobility 	totalTime 	43.75
scalar IntersectionExampleScenario.node[12].veinsmobility 	stopTime 	83
scalar IntersectionExampleScenario.node[12].veinsmobility 	minSpeed 	5.4850716590881
scalar IntersectionExampleScenario.node[12].veinsmobility 	maxSpeed 	15.64999961853
scalar IntersectionExampleScenario.node[12].veinsmobility 	totalDistance 	553.85984039307
scalar IntersectionExampleScenario.node[12].veinsmobility 	totalCO2Emission 	134.94809818381
scalar IntersectionExampleScenario.node[15].appl 	VehicleRemoved 	0
scalar IntersectionExampleScenario.node[15].appl 	ArrivedAtDest 	1
scalar IntersectionExampleScenario.node[15].appl 	IntersectionEnterTime 	44
scalar IntersectionExampleScenario.node[15].appl 	IntersectionExitTime 	68.564613574737
scalar IntersectionExampleScenario.node[15].appl 	NumberOfCollisions 	0
scalar IntersectionExampleScenario.node[15].nic.phy80211p 	busyTime 	0
scalar IntersectionExampleScenario.node[15].nic.mac1609_4 	ReceivedUnicastPackets 	0
scalar IntersectionExampleScenario.node[15].nic.mac1609_4 	ReceivedBroadcasts 	0
scalar IntersectionExampleScenario.node[15].nic.mac1609_4 	SentPackets 	0
scalar IntersectionExampleScenario.node[15].nic.mac1609_4 	SNIRLostPackets 	0
scalar IntersectionExampleScenario.node[15].nic.mac1609_4 	RXTXLostPackets 	0
scalar IntersectionExampleScenario.node[15].nic.mac1609_4 	TotalLostPackets 	0
scalar IntersectionExampleScenario.node[15].nic.mac1609_4 	DroppedPacketsInMac 	0
scalar IntersectionExampleScenario.node[15].nic.mac1609_4 	TooLittleTime 	0
scalar IntersectionExampleScenario.node[15].nic.mac1609_4 	TimesIntoBackoff 	0
scalar IntersectionExampleScenario.node[15].nic.mac1609_4 	SlotsBackoff 	0
scalar IntersectionExampleScenario.node[15].nic.mac1609_4 	NumInternalContention 	0
scalar IntersectionExampleScenario.node[15].nic.mac1609_4 	totalBusyTime 	0
scalar IntersectionExampleScenario.node[15].veinsmobility 	startTime 	44
scalar IntersectionExampleScenario.node[15].veinsmobility 	totalTime 	40.5
scalar IntersectionExampleScenario.node[15].veinsmobility 	stopTime 	84.75
scalar IntersectionExampleScenario.node[15].veinsmobility 	minSpeed 	5.6500000953674
scalar IntersectionExampleScenario.node[15].veinsmobility 	maxSpeed 	15.64999961853
scalar IntersectionExampleScenario.node[15].veinsmobility 	totalDistance 	519.11380767822
scalar IntersectionExampleScenario.node[15].veinsmobility 	totalCO2Emission 	123.32946774882
scalar IntersectionExampleScenario.node[13].appl 	VehicleRemoved 	0
scalar IntersectionExampleScenario.node[13].appl 	ArrivedAtDest 	1
scalar IntersectionExampleScenario.node[13].appl 	IntersectionEnterTime 	39.75
scalar IntersectionExampleScenario.node[13].appl 	IntersectionExitTime 	70.570653208066
scalar IntersectionExampleScenario.node[13].appl 	NumberOfCollisions 	0
scalar IntersectionExampleScenario.node[13].nic.phy80211p 	busyTime 	0
scalar IntersectionExampleScenario.node[13].nic.mac1609_4 	ReceivedUnicastPackets 	0
scalar IntersectionExampleScenario.node[13].nic.mac1609_4 	ReceivedBroadcasts 	0
scalar IntersectionExampleScenario.node[13].nic.mac1609_4 	SentPackets 	0
scalar IntersectionExampleScenario.node[13].nic.mac1609_4 	SNIRLostPackets 	0
scalar IntersectionExampleScenario.node[13].nic.mac1609_4 	RXTXLostPackets 	0
scalar IntersectionExampleScenario.node[13].nic.mac1609_4 	TotalLostPackets 	0
scalar IntersectionExampleScenario.node[13].nic.mac1609_4 	DroppedPacketsInMac 	0
scalar IntersectionExampleScenario.node[13].nic.mac1609_4 	TooLittleTime 	0
scalar IntersectionExampleScenario.node[13].nic.mac1609_4 	TimesIntoBackoff 	0
scalar IntersectionExampleScenario.node[13].nic.mac1609_4 	SlotsBackoff 	0
scalar IntersectionExampleScenario.node[13].nic.mac1609_4 	NumInternalContention 	0
scalar IntersectionExampleScenario.node[13].nic.mac1609_4 	totalBusyTime 	0
scalar IntersectionExampleScenario.node[13].veinsmobility 	startTime 	39.75
scalar IntersectionExampleScenario.node[13].veinsmobility 	totalTime 	46.75
scalar IntersectionExampleScenario.node[13].veinsmobility 	stopTime 	86.75
scalar IntersectionExampleScenario.node[13].veinsmobility 	minSpeed 	5.6500000953674
scalar IntersectionExampleScenario.node[13].veinsmobility 	maxSpeed 	16
scalar IntersectionExampleScenario.node[13].veinsmobility 	totalDistance 	572.29440847563
scalar IntersectionExampleScenario.node[13].veinsmobility 	totalCO2Emission 	158.37611925951
scalar IntersectionExampleScenario.node[14].appl 	VehicleRemoved 	0
scalar IntersectionExampleScenario.node[14].appl 	ArrivedAtDest 	1
scalar IntersectionExampleScenario.node[14].appl 	IntersectionEnterTime 	43.5
scalar IntersectionExampleScenario.node[14].appl 	IntersectionExitTime 	72.500045203575
scalar IntersectionExampleScenario.node[14].appl 	NumberOfCollisions 	0
scalar IntersectionExampleScenario.node[14].nic.phy80211p 	busyTime 	0
scalar IntersectionExampleScenario.node[14].nic.mac1609_4 	ReceivedUnicastPackets 	0
scalar IntersectionExampleScenario.node[14].nic.mac1609_4 	ReceivedBroadcasts 	0
scalar IntersectionExampleScenario.node[14].nic.mac1609_4 	SentPackets 	0
scalar IntersectionExampleScenario.node[14].nic.mac1609_4 	SNIRLostPackets 	0
scalar IntersectionExampleScenario.node[14].nic.mac1609_4 	RXTXLostPackets 	0
scalar IntersectionExampleScenario.node[14].nic.mac1609_4 	TotalLostPackets 	0
scalar IntersectionExampleScenario.node[14].nic.mac1609_4 	DroppedPacketsInMac 	0
scalar IntersectionExampleScenario.node[14].nic.mac1609_4 	TooLittleTime 	0
scalar IntersectionExampleScenario.node[14].nic.mac1609_4 	TimesIntoBackoff 	0
scalar IntersectionExampleScenario.node[14].nic.mac1609_4 	SlotsBackoff 	0
scalar IntersectionExampleScenario.node[14].nic.mac1609_4 	NumInternalContention 	0
scalar IntersectionExampleScenario.node[14].nic.mac1609_4 	totalBusyTime 	0
scalar IntersectionExampleScenario.node[14].veinsmobility 	startTime 	43.5
scalar IntersectionExampleScenario.node[14].veinsmobility 	totalTime 	45.5
scalar IntersectionExampleScenario.node[14].veinsmobility 	stopTime 	89.25
scalar IntersectionExampleScenario.node[14].veinsmobility 	minSpeed 	5.6500000953674
scalar IntersectionExampleScenario.node[14].veinsmobility 	maxSpeed 	15.550296783447
scalar IntersectionExampleScenario.node[14].veinsmobility 	totalDistance 	570.60638752487
scalar IntersectionExampleScenario.node[14].veinsmobility 	totalCO2Emission 	126.93453417041
scalar IntersectionExampleScenario.node[18].appl 	VehicleRemoved 	0
scalar IntersectionExampleScenario.node[18].appl 	ArrivedAtDest 	1
scalar IntersectionExampleScenario.node[18].appl 	IntersectionEnterTime 	59.5
scalar IntersectionExampleScenario.node[18].appl 	IntersectionExitTime 	83.116252858046
scalar IntersectionExampleScenario.node[18].appl 	NumberOfCollisions 	0
scalar IntersectionExampleScenario.node[18].nic.phy80211p 	busyTime 	0
scalar IntersectionExampleScenario.node[18].nic.mac1609_4 	ReceivedUnicastPackets 	0
scalar IntersectionExampleScenario.node[18].nic.mac1609_4 	ReceivedBroadcasts 	0
scalar IntersectionExampleScenario.node[18].nic.mac1609_4 	SentPackets 	0
scalar IntersectionExampleScenario.node[18].nic.mac1609_4 	SNIRLostPackets 	0
scalar IntersectionExampleScenario.node[18].nic.mac1609_4 	RXTXLostPackets 	0
scalar IntersectionExampleScenario.node[18].nic.mac1609_4 	TotalLostPackets 	0
scalar IntersectionExampleScenario.node[18].nic.mac1609_4 	DroppedPacketsInMac 	0
scalar IntersectionExampleScenario.node[18].nic.mac1609_4 	TooLittleTime 	0
scalar IntersectionExampleScenario.node[18].nic.mac1609_4 	TimesIntoBackoff 	0
scalar IntersectionExampleScenario.node[18].nic.mac1609_4 	SlotsBackoff 	0
scalar IntersectionExampleScenario.node[18].nic.mac1609_4 	NumInternalContention 	0
scalar IntersectionExampleScenario.node[18].nic.mac1609_4 	totalBusyTime 	0
scalar IntersectionExampleScenario.node[18].veinsmobility 	startTime 	59.5
scalar IntersectionExampleScenario.node[18].veinsmobility 	totalTime 	40
scalar IntersectionExampleScenario.node[18].veinsmobility 	stopTime 	99.75
scalar IntersectionExampleScenario.node[18].veinsmobility 	minSpeed 	5.6500000953674
scalar IntersectionExampleScenario.node[18].veinsmobility 	maxSpeed 	15.375
scalar IntersectionExampleScenario.node[18].veinsmobility 	totalDistance 	549.31681621147
scalar IntersectionExampleScenario.node[18].veinsmobility 	totalCO2Emission 	120.7194466891
scalar IntersectionExampleScenario.node[17].appl 	VehicleRemoved 	0
scalar IntersectionExampleScenario.node[17].appl 	ArrivedAtDest 	1
scalar IntersectionExampleScenario.node[17].appl 	IntersectionEnterTime 	51.5
scalar IntersectionExampleScenario.node[17].appl 	IntersectionExitTime 	85.304152791126
scalar IntersectionExampleScenario.node[17].appl 	NumberOfCollisions 	0
scalar IntersectionExampleScenario.node[17].nic.phy80211p 	busyTime 	0
scalar IntersectionExampleScenario.node[17].nic.mac1609_4 	ReceivedUnicastPackets 	0
scalar IntersectionExampleScenario.node[17].nic.mac1609_4 	ReceivedBroadcasts 	0
scalar IntersectionExampleScenario.node[17].nic.mac1609_4 	SentPackets 	0
scalar IntersectionExampleScenario.node[17].nic.mac1609_4 	SNIRLostPackets 	0
scalar IntersectionExampleScenario.node[17].nic.mac1609_4 	RXTXLostPackets 	0
scalar IntersectionExampleScenario.node[17].nic.mac1609_4 	TotalLostPackets 	0
scalar IntersectionExampleScenario.node[17].nic.mac1609_4 	DroppedPacketsInMac 	0
scalar IntersectionExampleScenario.node[17].nic.mac1609_4 	TooLittleTime 	0
scalar IntersectionExampleScenario.node[17].nic.mac1609_4 	TimesIntoBackoff 	0
scalar IntersectionExampleScenario.node[17].nic.mac1609_4 	SlotsBackoff 	0
scalar IntersectionExampleScenario.node[17].nic.mac1609_4 	NumInternalContention 	0
scalar IntersectionExampleScenario.node[17].nic.mac1609_4 	totalBusyTime 	0
scalar IntersectionExampleScenario.node[17].veinsmobility 	startTime 	51.5
scalar IntersectionExampleScenario.node[17].veinsmobility 	totalTime 	50.75
scalar IntersectionExampleScenario.node[17].veinsmobility 	stopTime 	102.5
scalar IntersectionExampleScenario.node[17].veinsmobility 	minSpeed 	0
scalar IntersectionExampleScenario.node[17].veinsmobility 	maxSpeed 	14.75
scalar IntersectionExampleScenario.node[17].veinsmobility 	totalDistance 	552.27163696289
scalar IntersectionExampleScenario.node[17].veinsmobility 	totalCO2Emission 	135.34476555145
scalar IntersectionExampleScenario.node[20].appl 	VehicleRemoved 	0
scalar IntersectionExampleScenario.node[20].appl 	ArrivedAtDest 	1
scalar IntersectionExampleScenario.node[20].appl 	IntersectionEnterTime 	65
scalar IntersectionExampleScenario.node[20].appl 	IntersectionExitTime 	88.874837280804
scalar IntersectionExampleScenario.node[20].appl 	NumberOfCollisions 	0
scalar IntersectionExampleScenario.node[20].nic.phy80211p 	busyTime 	0
scalar IntersectionExampleScenario.node[20].nic.mac1609_4 	ReceivedUnicastPackets 	0
scalar IntersectionExampleScenario.node[20].nic.mac1609_4 	ReceivedBroadcasts 	0
scalar IntersectionExampleScenario.node[20].nic.mac1609_4 	SentPackets 	0
scalar IntersectionExampleScenario.node[20].nic.mac1609_4 	SNIRLostPackets 	0
scalar IntersectionExampleScenario.node[20].nic.mac1609_4 	RXTXLostPackets 	0
scalar IntersectionExampleScenario.node[20].nic.mac1609_4 	TotalLostPackets 	0
scalar IntersectionExampleScenario.node[20].nic.mac1609_4 	DroppedPacketsInMac 	0
scalar IntersectionExampleScenario.node[20].nic.mac1609_4 	TooLittleTime 	0
scalar IntersectionExampleScenario.node[20].nic.mac1609_4 	TimesIntoBackoff 	0
scalar IntersectionExampleScenario.node[20].nic.mac1609_4 	SlotsBackoff 	0
scalar IntersectionExampleScenario.node[20].nic.mac1609_4 	NumInternalContention 	0
scalar IntersectionExampleScenario.node[20].nic.mac1609_4 	totalBusyTime 	0
scalar IntersectionExampleScenario.node[20].veinsmobility 	startTime 	65
scalar IntersectionExampleScenario.node[20].veinsmobility 	totalTime 	40
scalar IntersectionExampleScenario.node[20].veinsmobility 	stopTime 	105.25
scalar IntersectionExampleScenario.node[20].veinsmobility 	minSpeed 	5.6500000953674
scalar IntersectionExampleScenario.node[20].veinsmobility 	maxSpeed 	16.27499961853
scalar IntersectionExampleScenario.node[20].veinsmobility 	totalDistance 	545.87786375589
scalar IntersectionExampleScenario.node[20].veinsmobility 	totalCO2Emission 	146.30331385931
scalar IntersectionExampleScenario.node[22].appl 	VehicleRemoved 	0
scalar IntersectionExampleScenario.node[22].appl 	ArrivedAtDest 	1
scalar IntersectionExampleScenario.node[22].appl 	IntersectionEnterTime 	70.75
scalar IntersectionExampleScenario.node[22].appl 	IntersectionExitTime 	93.358772684762
scalar IntersectionExampleScenario.node[22].appl 	NumberOfCollisions 	0
scalar IntersectionExampleScenario.node[22].nic.phy80211p 	busyTime 	0
scalar IntersectionExampleScenario.node[22].nic.mac1609_4 	ReceivedUnicastPackets 	0
scalar IntersectionExampleScenario.node[22].nic.mac1609_4 	ReceivedBroadcasts 	0
scalar IntersectionExampleScenario.node[22].nic.mac1609_4 	SentPackets 	0
scalar IntersectionExampleScenario.node[22].nic.mac1609_4 	SNIRLostPackets 	0
scalar IntersectionExampleScenario.node[22].nic.mac1609_4 	RXTXLostPackets 	0
scalar IntersectionExampleScenario.node[22].nic.mac1609_4 	TotalLostPackets 	0
scalar IntersectionExampleScenario.node[22].nic.mac1609_4 	DroppedPacketsInMac 	0
scalar IntersectionExampleScenario.node[22].nic.mac1609_4 	TooLittleTime 	0
scalar IntersectionExampleScenario.node[22].nic.mac1609_4 	TimesIntoBackoff 	0
scalar IntersectionExampleScenario.node[22].nic.mac1609_4 	SlotsBackoff 	0
scalar IntersectionExampleScenario.node[22].nic.mac1609_4 	NumInternalContention 	0
scalar IntersectionExampleScenario.node[22].nic.mac1609_4 	totalBusyTime 	0
scalar IntersectionExampleScenario.node[22].veinsmobility 	startTime 	70.75
scalar IntersectionExampleScenario.node[22].veinsmobility 	totalTime 	38.25
scalar IntersectionExampleScenario.node[22].veinsmobility 	stopTime 	109.25
scalar IntersectionExampleScenario.node[22].veinsmobility 	minSpeed 	5.6500000953674
scalar IntersectionExampleScenario.node[22].veinsmobility 	maxSpeed 	16.27499961853
scalar IntersectionExampleScenario.node[22].veinsmobility 	totalDistance 	549.76834624733
scalar IntersectionExampleScenario.node[22].veinsmobility 	totalCO2Emission 	127.42561789295
scalar IntersectionExampleScenario.node[16].appl 	VehicleRemoved 	0
scalar IntersectionExampleScenario.node[16].appl 	ArrivedAtDest 	1
scalar IntersectionExampleScenario.node[16].appl 	IntersectionEnterTime 	47
scalar IntersectionExampleScenario.node[16].appl 	IntersectionExitTime 	96.337129538268
scalar IntersectionExampleScenario.node[16].appl 	NumberOfCollisions 	0
scalar IntersectionExampleScenario.node[16].nic.phy80211p 	busyTime 	0
scalar IntersectionExampleScenario.node[16].nic.mac1609_4 	ReceivedUnicastPackets 	0
scalar IntersectionExampleScenario.node[16].nic.mac1609_4 	ReceivedBroadcasts 	0
scalar IntersectionExampleScenario.node[16].nic.mac1609_4 	SentPackets 	0
scalar IntersectionExampleScenario.node[16].nic.mac1609_4 	SNIRLostPackets 	0
scalar IntersectionExampleScenario.node[16].nic.mac1609_4 	RXTXLostPackets 	0
scalar IntersectionExampleScenario.node[16].nic.mac1609_4 	TotalLostPackets 	0
scalar IntersectionExampleScenario.node[16].nic.mac1609_4 	DroppedPacketsInMac 	0
scalar IntersectionExampleScenario.node[16].nic.mac1609_4 	TooLittleTime 	0
scalar IntersectionExampleScenario.node[16].nic.mac1609_4 	TimesIntoBackoff 	0
scalar IntersectionExampleScenario.node[16].nic.mac1609_4 	SlotsBackoff 	0
scalar IntersectionExampleScenario.node[16].nic.mac1609_4 	NumInternalContention 	0
scalar IntersectionExampleScenario.node[16].nic.mac1609_4 	totalBusyTime 	0
scalar IntersectionExampleScenario.node[16].veinsmobility 	startTime 	47
scalar IntersectionExampleScenario.node[16].veinsmobility 	totalTime 	65
scalar IntersectionExampleScenario.node[16].veinsmobility 	stopTime 	112.25
scalar IntersectionExampleScenario.node[16].veinsmobility 	minSpeed 	0
scalar IntersectionExampleScenario.node[16].veinsmobility 	maxSpeed 	16
scalar IntersectionExampleScenario.node[16].veinsmobility 	totalDistance 	571.12441362491
scalar IntersectionExampleScenario.node[16].veinsmobility 	totalCO2Emission 	160.90784871533
scalar IntersectionExampleScenario.node[19].appl 	VehicleRemoved 	0
scalar IntersectionExampleScenario.node[19].appl 	ArrivedAtDest 	1
scalar IntersectionExampleScenario.node[19].appl 	IntersectionEnterTime 	64.5
scalar IntersectionExampleScenario.node[19].appl 	IntersectionExitTime 	99.016628867161
scalar IntersectionExampleScenario.node[19].appl 	NumberOfCollisions 	0
scalar IntersectionExampleScenario.node[19].nic.phy80211p 	busyTime 	0
scalar IntersectionExampleScenario.node[19].nic.mac1609_4 	ReceivedUnicastPackets 	0
scalar IntersectionExampleScenario.node[19].nic.mac1609_4 	ReceivedBroadcasts 	0
scalar IntersectionExampleScenario.node[19].nic.mac1609_4 	SentPackets 	0
scalar IntersectionExampleScenario.node[19].nic.mac1609_4 	SNIRLostPackets 	0
scalar IntersectionExampleScenario.node[19].nic.mac1609_4 	RXTXLostPackets 	0
scalar IntersectionExampleScenario.node[19].nic.mac1609_4 	TotalLostPackets 	0
scalar IntersectionExampleScenario.node[19].nic.mac1609_4 	DroppedPacketsInMac 	0
scalar IntersectionExampleScenario.node[19].nic.mac1609_4 	TooLittleTime 	0
scalar IntersectionExampleScenario.node[19].nic.mac1609_4 	TimesIntoBackoff 	0
scalar IntersectionExampleScenario.node[19].nic.mac1609_4 	SlotsBackoff 	0
scalar IntersectionExampleScenario.node[19].nic.mac1609_4 	NumInternalContention 	0
scalar IntersectionExampleScenario.node[19].nic.mac1609_4 	totalBusyTime 	0
scalar IntersectionExampleScenario.node[19].veinsmobility 	startTime 	64.5
scalar IntersectionExampleScenario.node[19].veinsmobility 	totalTime 	51
scalar IntersectionExampleScenario.node[19].veinsmobility 	stopTime 	115.75
scalar IntersectionExampleScenario.node[19].veinsmobility 	minSpeed 	0.025362618267536
scalar IntersectionExampleScenario.node[19].veinsmobility 	maxSpeed 	15.64999961853
scalar IntersectionExampleScenario.node[19].veinsmobility 	totalDistance 	551.90330922582
scalar IntersectionExampleScenario.node[19].veinsmobility 	totalCO2Emission 	139.32654554383
scalar IntersectionExampleScenario.node[24].appl 	VehicleRemoved 	0
scalar IntersectionExampleScenario.node[24].appl 	ArrivedAtDest 	1
scalar IntersectionExampleScenario.node[24].appl 	IntersectionEnterTime 	79.25
scalar IntersectionExampleScenario.node[24].appl 	IntersectionExitTime 	102.55541408647
scalar IntersectionExampleScenario.node[24].appl 	NumberOfCollisions 	0
scalar IntersectionExampleScenario.node[24].nic.phy80211p 	busyTime 	0
scalar IntersectionExampleScenario.node[24].nic.mac1609_4 	ReceivedUnicastPackets 	0
scalar IntersectionExampleScenario.node[24].nic.mac1609_4 	ReceivedBroadcasts 	0
scalar IntersectionExampleScenario.node[24].nic.mac1609_4 	SentPackets 	0
scalar IntersectionExampleScenario.node[24].nic.mac1609_4 	SNIRLostPackets 	0
scalar IntersectionExampleScenario.node[24].nic.mac1609_4 	RXTXLostPackets 	0
scalar IntersectionExampleScenario.node[24].nic.mac1609_4 	TotalLostPackets 	0
scalar IntersectionExampleScenario.node[24].nic.mac1609_4 	DroppedPacketsInMac 	0
scalar IntersectionExampleScenario.node[24].nic.mac1609_4 	TooLittleTime 	0
scalar IntersectionExampleScenario.node[24].nic.mac1609_4 	TimesIntoBackoff 	0
scalar IntersectionExampleScenario.node[24].nic.mac1609_4 	SlotsBackoff 	0
scalar IntersectionExampleScenario.node[24].nic.mac1609_4 	NumInternalContention 	0
scalar IntersectionExampleScenario.node[24].nic.mac1609_4 	totalBusyTime 	0
scalar IntersectionExampleScenario.node[24].veinsmobility 	startTime 	79.25
scalar IntersectionExampleScenario.node[24].veinsmobility 	totalTime 	39.75
scalar IntersectionExampleScenario.node[24].veinsmobility 	stopTime 	119.25
scalar IntersectionExampleScenario.node[24].veinsmobility 	minSpeed 	5.6500000953674
scalar IntersectionExampleScenario.node[24].veinsmobility 	maxSpeed 	15.02499961853
scalar IntersectionExampleScenario.node[24].veinsmobility 	totalDistance 	554.04679107666
scalar IntersectionExampleScenario.node[24].veinsmobility 	totalCO2Emission 	118.74479946787
scalar IntersectionExampleScenario.node[25].appl 	VehicleRemoved 	0
scalar IntersectionExampleScenario.node[25].appl 	ArrivedAtDest 	1
scalar IntersectionExampleScenario.node[25].appl 	IntersectionEnterTime 	81.25
scalar IntersectionExampleScenario.node[25].appl 	IntersectionExitTime 	104.50558805061
scalar IntersectionExampleScenario.node[25].appl 	NumberOfCollisions 	0
scalar IntersectionExampleScenario.node[25].nic.phy80211p 	busyTime 	0
scalar IntersectionExampleScenario.node[25].nic.mac1609_4 	ReceivedUnicastPackets 	0
scalar IntersectionExampleScenario.node[25].nic.mac1609_4 	ReceivedBroadcasts 	0
scalar IntersectionExampleScenario.node[25].nic.mac1609_4 	SentPackets 	0
scalar IntersectionExampleScenario.node[25].nic.mac1609_4 	SNIRLostPackets 	0
scalar IntersectionExampleScenario.node[25].nic.mac1609_4 	RXTXLostPackets 	0
scalar IntersectionExampleScenario.node[25].nic.mac1609_4 	TotalLostPackets 	0
scalar IntersectionExampleScenario.node[25].nic.mac1609_4 	DroppedPacketsInMac 	0
scalar IntersectionExampleScenario.node[25].nic.mac1609_4 	TooLittleTime 	0
scalar IntersectionExampleScenario.node[25].nic.mac1609_4 	TimesIntoBackoff 	0
scalar IntersectionExampleScenario.node[25].nic.mac1609_4 	SlotsBackoff 	0
scalar IntersectionExampleScenario.node[25].nic.mac1609_4 	NumInternalContention 	0
scalar IntersectionExampleScenario.node[25].nic.mac1609_4 	totalBusyTime 	0
scalar IntersectionExampleScenario.node[25].veinsmobility 	startTime 	81.25
scalar IntersectionExampleScenario.node[25].veinsmobility 	totalTime 	38.75
scalar IntersectionExampleScenario.node[25].veinsmobility 	stopTime 	120.25
scalar IntersectionExampleScenario.node[25].veinsmobility 	minSpeed 	5.6500000953674
scalar IntersectionExampleScenario.node[25].veinsmobility 	maxSpeed 	16.280569076538
scalar IntersectionExampleScenario.node[25].veinsmobility 	totalDistance 	571.53876495361
scalar IntersectionExampleScenario.node[25].veinsmobility 	totalCO2Emission 	128.86170272924
scalar IntersectionExampleScenario.node[21].appl 	VehicleRemoved 	0
scalar IntersectionExampleScenario.node[21].appl 	ArrivedAtDest 	1
scalar IntersectionExampleScenario.node[21].appl 	IntersectionEnterTime 	67.75
scalar IntersectionExampleScenario.node[21].appl 	IntersectionExitTime 	109.25796507078
scalar IntersectionExampleScenario.node[21].appl 	NumberOfCollisions 	0
scalar IntersectionExampleScenario.node[21].nic.phy80211p 	busyTime 	0
scalar IntersectionExampleScenario.node[21].nic.mac1609_4 	ReceivedUnicastPackets 	0
scalar IntersectionExampleScenario.node[21].nic.mac1609_4 	ReceivedBroadcasts 	0
scalar IntersectionExampleScenario.node[21].nic.mac1609_4 	SentPackets 	0
scalar IntersectionExampleScenario.node[21].nic.mac1609_4 	SNIRLostPackets 	0
scalar IntersectionExampleScenario.node[21].nic.mac1609_4 	RXTXLostPackets 	0
scalar IntersectionExampleScenario.node[21].nic.mac1609_4 	TotalLostPackets 	0
scalar IntersectionExampleScenario.node[21].nic.mac1609_4 	DroppedPacketsInMac 	0
scalar IntersectionExampleScenario.node[21].nic.mac1609_4 	TooLittleTime 	0
scalar IntersectionExampleScenario.node[21].nic.mac1609_4 	TimesIntoBackoff 	0
scalar IntersectionExampleScenario.node[21].nic.mac1609_4 	SlotsBackoff 	0
scalar IntersectionExampleScenario.node[21].nic.mac1609_4 	NumInternalContention 	0
scalar IntersectionExampleScenario.node[21].nic.mac1609_4 	totalBusyTime 	0
scalar IntersectionExampleScenario.node[21].veinsmobility 	startTime 	67.75
scalar IntersectionExampleScenario.node[21].veinsmobility 	totalTime 	57.5
scalar IntersectionExampleScenario.node[21].veinsmobility 	stopTime 	125.5
scalar IntersectionExampleScenario.node[21].veinsmobility 	minSpeed 	0
scalar IntersectionExampleScenario.node[21].veinsmobility 	maxSpeed 	15.64999961853
scalar IntersectionExampleScenario.node[21].veinsmobility 	totalDistance 	549.96211351504
scalar IntersectionExampleScenario.node[21].veinsmobility 	totalCO2Emission 	149.93773815278
scalar IntersectionExampleScenario.node[23].appl 	VehicleRemoved 	0
scalar IntersectionExampleScenario.node[23].appl 	ArrivedAtDest 	1
scalar IntersectionExampleScenario.node[23].appl 	IntersectionEnterTime 	75.5
scalar IntersectionExampleScenario.node[23].appl 	IntersectionExitTime 	110.27308911958
scalar IntersectionExampleScenario.node[23].appl 	NumberOfCollisions 	0
scalar IntersectionExampleScenario.node[23].nic.phy80211p 	busyTime 	0
scalar IntersectionExampleScenario.node[23].nic.mac1609_4 	ReceivedUnicastPackets 	0
scalar IntersectionExampleScenario.node[23].nic.mac1609_4 	ReceivedBroadcasts 	0
scalar IntersectionExampleScenario.node[23].nic.mac1609_4 	SentPackets 	0
scalar IntersectionExampleScenario.node[23].nic.mac1609_4 	SNIRLostPackets 	0
scalar IntersectionExampleScenario.node[23].nic.mac1609_4 	RXTXLostPackets 	0
scalar IntersectionExampleScenario.node[23].nic.mac1609_4 	TotalLostPackets 	0
scalar IntersectionExampleScenario.node[23].nic.mac1609_4 	DroppedPacketsInMac 	0
scalar IntersectionExampleScenario.node[23].nic.mac1609_4 	TooLittleTime 	0
scalar IntersectionExampleScenario.node[23].nic.mac1609_4 	TimesIntoBackoff 	0
scalar IntersectionExampleScenario.node[23].nic.mac1609_4 	SlotsBackoff 	0
scalar IntersectionExampleScenario.node[23].nic.mac1609_4 	NumInternalContention 	0
scalar IntersectionExampleScenario.node[23].nic.mac1609_4 	totalBusyTime 	0
scalar IntersectionExampleScenario.node[23].veinsmobility 	startTime 	75.5
scalar IntersectionExampleScenario.node[23].veinsmobility 	totalTime 	51.75
scalar IntersectionExampleScenario.node[23].veinsmobility 	stopTime 	127.5
scalar IntersectionExampleScenario.node[23].veinsmobility 	minSpeed 	0
scalar IntersectionExampleScenario.node[23].veinsmobility 	maxSpeed 	15.25
scalar IntersectionExampleScenario.node[23].veinsmobility 	totalDistance 	545.70451997754
scalar IntersectionExampleScenario.node[23].veinsmobility 	totalCO2Emission 	137.57129202861
scalar IntersectionExampleScenario.node[27].appl 	VehicleRemoved 	0
scalar IntersectionExampleScenario.node[27].appl 	ArrivedAtDest 	1
scalar IntersectionExampleScenario.node[27].appl 	IntersectionEnterTime 	89
scalar IntersectionExampleScenario.node[27].appl 	IntersectionExitTime 	113.81903301913
scalar IntersectionExampleScenario.node[27].appl 	NumberOfCollisions 	0
scalar IntersectionExampleScenario.node[27].nic.phy80211p 	busyTime 	0
scalar IntersectionExampleScenario.node[27].nic.mac1609_4 	ReceivedUnicastPackets 	0
scalar IntersectionExampleScenario.node[27].nic.mac1609_4 	ReceivedBroadcasts 	0
scalar IntersectionExampleScenario.node[27].nic.mac1609_4 	SentPackets 	0
scalar IntersectionExampleScenario.node[27].nic.mac1609_4 	SNIRLostPackets 	0
scalar IntersectionExampleScenario.node[27].nic.mac1609_4 	RXTXLostPackets 	0
scalar IntersectionExampleScenario.node[27].nic.mac1609_4 	TotalLostPackets 	0
scalar IntersectionExampleScenario.node[27].nic.mac1609_4 	DroppedPacketsInMac 	0
scalar IntersectionExampleScenario.node[27].nic.mac1609_4 	TooLittleTime 	0
scalar IntersectionExampleScenario.node[27].nic.mac1609_4 	TimesIntoBackoff 	0
scalar IntersectionExampleScenario.node[27].nic.mac1609_4 	SlotsBackoff 	0
scalar IntersectionExampleScenario.node[27].nic.mac1609_4 	NumInternalContention 	0
scalar IntersectionExampleScenario.node[27].nic.mac1609_4 	totalBusyTime 	0
scalar IntersectionExampleScenario.node[27].veinsmobility 	startTime 	89
scalar IntersectionExampleScenario.node[27].veinsmobility 	totalTime 	41.25
scalar IntersectionExampleScenario.node[27].veinsmobility 	stopTime 	130.5
scalar IntersectionExampleScenario.node[27].veinsmobility 	minSpeed 	5.6500000953674
scalar IntersectionExampleScenario.node[27].veinsmobility 	maxSpeed 	15.64999961853
scalar IntersectionExampleScenario.node[27].veinsmobility 	totalDistance 	543.3265525284
scalar IntersectionExampleScenario.node[27].veinsmobility 	totalCO2Emission 	138.14006891865
scalar IntersectionExampleScenario.node[31].appl 	VehicleRemoved 	0
scalar IntersectionExampleScenario.node[31].appl 	ArrivedAtDest 	1
scalar IntersectionExampleScenario.node[31].appl 	IntersectionEnterTime 	92.5
scalar IntersectionExampleScenario.node[31].appl 	IntersectionExitTime 	116.56090572194
scalar IntersectionExampleScenario.node[31].appl 	NumberOfCollisions 	0
scalar IntersectionExampleScenario.node[31].nic.phy80211p 	busyTime 	0
scalar IntersectionExampleScenario.node[31].nic.mac1609_4 	ReceivedUnicastPackets 	0
scalar IntersectionExampleScenario.node[31].nic.mac1609_4 	ReceivedBroadcasts 	0
scalar IntersectionExampleScenario.node[31].nic.mac1609_4 	SentPackets 	0
scalar IntersectionExampleScenario.node[31].nic.mac1609_4 	SNIRLostPackets 	0
scalar IntersectionExampleScenario.node[31].nic.mac1609_4 	RXTXLostPackets 	0
scalar IntersectionExampleScenario.node[31].nic.mac1609_4 	TotalLostPackets 	0
scalar IntersectionExampleScenario.node[31].nic.mac1609_4 	DroppedPacketsInMac 	0
scalar IntersectionExampleScenario.node[31].nic.mac1609_4 	TooLittleTime 	0
scalar IntersectionExampleScenario.node[31].nic.mac1609_4 	TimesIntoBackoff 	0
scalar IntersectionExampleScenario.node[31].nic.mac1609_4 	SlotsBackoff 	0
scalar IntersectionExampleScenario.node[31].nic.mac1609_4 	NumInternalContention 	0
scalar IntersectionExampleScenario.node[31].nic.mac1609_4 	totalBusyTime 	0
scalar IntersectionExampleScenario.node[31].veinsmobility 	startTime 	92.5
scalar IntersectionExampleScenario.node[31].veinsmobility 	totalTime 	41
scalar IntersectionExampleScenario.node[31].veinsmobility 	stopTime 	133.75
scalar IntersectionExampleScenario.node[31].veinsmobility 	minSpeed 	5.6500000953674
scalar IntersectionExampleScenario.node[31].veinsmobility 	maxSpeed 	15.25
scalar IntersectionExampleScenario.node[31].veinsmobility 	totalDistance 	533.86146038408
scalar IntersectionExampleScenario.node[31].veinsmobility 	totalCO2Emission 	123.31523125802
scalar IntersectionExampleScenario.node[29].appl 	VehicleRemoved 	0
scalar IntersectionExampleScenario.node[29].appl 	ArrivedAtDest 	1
scalar IntersectionExampleScenario.node[29].appl 	IntersectionEnterTime 	90.5
scalar IntersectionExampleScenario.node[29].appl 	IntersectionExitTime 	118.31058581083
scalar IntersectionExampleScenario.node[29].appl 	NumberOfCollisions 	0
scalar IntersectionExampleScenario.node[29].nic.phy80211p 	busyTime 	0
scalar IntersectionExampleScenario.node[29].nic.mac1609_4 	ReceivedUnicastPackets 	0
scalar IntersectionExampleScenario.node[29].nic.mac1609_4 	ReceivedBroadcasts 	0
scalar IntersectionExampleScenario.node[29].nic.mac1609_4 	SentPackets 	0
scalar IntersectionExampleScenario.node[29].nic.mac1609_4 	SNIRLostPackets 	0
scalar IntersectionExampleScenario.node[29].nic.mac1609_4 	RXTXLostPackets 	0
scalar IntersectionExampleScenario.node[29].nic.mac1609_4 	TotalLostPackets 	0
scalar IntersectionExampleScenario.node[29].nic.mac1609_4 	DroppedPacketsInMac 	0
scalar IntersectionExampleScenario.node[29].nic.mac1609_4 	TooLittleTime 	0
scalar IntersectionExampleScenario.node[29].nic.mac1609_4 	TimesIntoBackoff 	0
scalar IntersectionExampleScenario.node[29].nic.mac1609_4 	SlotsBackoff 	0
scalar IntersectionExampleScenario.node[29].nic.mac1609_4 	NumInternalContention 	0
scalar IntersectionExampleScenario.node[29].nic.mac1609_4 	totalBusyTime 	0
scalar IntersectionExampleScenario.node[29].veinsmobility 	startTime 	90.5
scalar IntersectionExampleScenario.node[29].veinsmobility 	totalTime 	43.75
scalar IntersectionExampleScenario.node[29].veinsmobility 	stopTime 	134.5
scalar IntersectionExampleScenario.node[29].veinsmobility 	minSpeed 	5.6500000953674
scalar IntersectionExampleScenario.node[29].veinsmobility 	maxSpeed 	16
scalar IntersectionExampleScenario.node[29].veinsmobility 	totalDistance 	569.97436318763
scalar IntersectionExampleScenario.node[29].veinsmobility 	totalCO2Emission 	145.77385467517
scalar IntersectionExampleScenario.node[26].appl 	VehicleRemoved 	0
scalar IntersectionExampleScenario.node[26].appl 	ArrivedAtDest 	1
scalar IntersectionExampleScenario.node[26].appl 	IntersectionEnterTime 	83.75
scalar IntersectionExampleScenario.node[26].appl 	IntersectionExitTime 	120.36769428095
scalar IntersectionExampleScenario.node[26].appl 	NumberOfCollisions 	0
scalar IntersectionExampleScenario.node[26].nic.phy80211p 	busyTime 	0
scalar IntersectionExampleScenario.node[26].nic.mac1609_4 	ReceivedUnicastPackets 	0
scalar IntersectionExampleScenario.node[26].nic.mac1609_4 	ReceivedBroadcasts 	0
scalar IntersectionExampleScenario.node[26].nic.mac1609_4 	SentPackets 	0
scalar IntersectionExampleScenario.node[26].nic.mac1609_4 	SNIRLostPackets 	0
scalar IntersectionExampleScenario.node[26].nic.mac1609_4 	RXTXLostPackets 	0
scalar IntersectionExampleScenario.node[26].nic.mac1609_4 	TotalLostPackets 	0
scalar IntersectionExampleScenario.node[26].nic.mac1609_4 	DroppedPacketsInMac 	0
scalar IntersectionExampleScenario.node[26].nic.mac1609_4 	TooLittleTime 	0
scalar IntersectionExampleScenario.node[26].nic.mac1609_4 	TimesIntoBackoff 	0
scalar IntersectionExampleScenario.node[26].nic.mac1609_4 	SlotsBackoff 	0
scalar IntersectionExampleScenario.node[26].nic.mac1609_4 	NumInternalContention 	0
scalar IntersectionExampleScenario.node[26].nic.mac1609_4 	totalBusyTime 	0
scalar IntersectionExampleScenario.node[26].veinsmobility 	startTime 	83.75
scalar IntersectionExampleScenario.node[26].veinsmobility 	totalTime 	53.5
scalar IntersectionExampleScenario.node[26].veinsmobility 	stopTime 	137.5
scalar IntersectionExampleScenario.node[26].veinsmobility 	minSpeed 	0
scalar IntersectionExampleScenario.node[26].veinsmobility 	maxSpeed 	14.75
scalar IntersectionExampleScenario.node[26].veinsmobility 	totalDistance 	550.34269060245
scalar IntersectionExampleScenario.node[26].veinsmobility 	totalCO2Emission 	138.47030610606
scalar IntersectionExampleScenario.node[34].appl 	VehicleRemoved 	0
scalar IntersectionExampleScenario.node[34].appl 	ArrivedAtDest 	1
scalar IntersectionExampleScenario.node[34].appl 	IntersectionEnterTime 	104.75
scalar IntersectionExampleScenario.node[34].appl 	IntersectionExitTime 	128.5334072939
scalar IntersectionExampleScenario.node[34].appl 	NumberOfCollisions 	0
scalar IntersectionExampleScenario.node[34].nic.phy80211p 	busyTime 	0
scalar IntersectionExampleScenario.node[34].nic.mac1609_4 	ReceivedUnicastPackets 	0
scalar IntersectionExampleScenario.node[34].nic.mac1609_4 	ReceivedBroadcasts 	0
scalar IntersectionExampleScenario.node[34].nic.mac1609_4 	SentPackets 	0
scalar IntersectionExampleScenario.node[34].nic.mac1609_4 	SNIRLostPackets 	0
scalar IntersectionExampleScenario.node[34].nic.mac1609_4 	RXTXLostPackets 	0
scalar IntersectionExampleScenario.node[34].nic.mac1609_4 	TotalLostPackets 	0
scalar IntersectionExampleScenario.node[34].nic.mac1609_4 	DroppedPacketsInMac 	0
scalar IntersectionExampleScenario.node[34].nic.mac1609_4 	TooLittleTime 	0
scalar IntersectionExampleScenario.node[34].nic.mac1609_4 	TimesIntoBackoff 	0
scalar IntersectionExampleScenario.node[34].nic.mac1609_4 	SlotsBackoff 	0
scalar IntersectionExampleScenario.node[34].nic.mac1609_4 	NumInternalContention 	0
scalar IntersectionExampleScenario.node[34].nic.mac1609_4 	totalBusyTime 	0
scalar IntersectionExampleScenario.node[34].veinsmobility 	startTime 	104.75
scalar IntersectionExampleScenario.node[34].veinsmobility 	totalTime 	40.75
scalar IntersectionExampleScenario.node[34].veinsmobility 	stopTime 	145.75
scalar IntersectionExampleScenario.node[34].veinsmobility 	minSpeed 	5.6500000953674
scalar IntersectionExampleScenario.node[34].veinsmobility 	maxSpeed 	15.25
scalar IntersectionExampleScenario.node[34].veinsmobility 	totalDistance 	544.57392777741
scalar IntersectionExampleScenario.node[34].veinsmobility 	totalCO2Emission 	124.39965242606
scalar IntersectionExampleScenario.node[32].appl 	VehicleRemoved 	0
scalar IntersectionExampleScenario.node[32].appl 	ArrivedAtDest 	1
scalar IntersectionExampleScenario.node[32].appl 	IntersectionEnterTime 	94.75
scalar IntersectionExampleScenario.node[32].appl 	IntersectionExitTime 	131.37221219781
scalar IntersectionExampleScenario.node[32].appl 	NumberOfCollisions 	0
scalar IntersectionExampleScenario.node[32].nic.phy80211p 	busyTime 	0
scalar IntersectionExampleScenario.node[32].nic.mac1609_4 	ReceivedUnicastPackets 	0
scalar IntersectionExampleScenario.node[32].nic.mac1609_4 	ReceivedBroadcasts 	0
scalar IntersectionExampleScenario.node[32].nic.mac1609_4 	SentPackets 	0
scalar IntersectionExampleScenario.node[32].nic.mac1609_4 	SNIRLostPackets 	0
scalar IntersectionExampleScenario.node[32].nic.mac1609_4 	RXTXLostPackets 	0
scalar IntersectionExampleScenario.node[32].nic.mac1609_4 	TotalLostPackets 	0
scalar IntersectionExampleScenario.node[32].nic.mac1609_4 	DroppedPacketsInMac 	0
scalar IntersectionExampleScenario.node[32].nic.mac1609_4 	TooLittleTime 	0
scalar IntersectionExampleScenario.node[32].nic.mac1609_4 	TimesIntoBackoff 	0
scalar IntersectionExampleScenario.node[32].nic.mac1609_4 	SlotsBackoff 	0
scalar IntersectionExampleScenario.node[32].nic.mac1609_4 	NumInternalContention 	0
scalar IntersectionExampleScenario.node[32].nic.mac1609_4 	totalBusyTime 	0
scalar IntersectionExampleScenario.node[32].veinsmobility 	startTime 	94.75
scalar IntersectionExampleScenario.node[32].veinsmobility 	totalTime 	52
scalar IntersectionExampleScenario.node[32].veinsmobility 	stopTime 	147
scalar IntersectionExampleScenario.node[32].veinsmobility 	minSpeed 	0
scalar IntersectionExampleScenario.node[32].veinsmobility 	maxSpeed 	16.27499961853
scalar IntersectionExampleScenario.node[32].veinsmobility 	totalDistance 	554.87409973145
scalar IntersectionExampleScenario.node[32].veinsmobility 	totalCO2Emission 	151.3897525735
scalar IntersectionExampleScenario.node[28].appl 	VehicleRemoved 	0
scalar IntersectionExampleScenario.node[28].appl 	ArrivedAtDest 	1
scalar IntersectionExampleScenario.node[28].appl 	IntersectionEnterTime 	90
scalar IntersectionExampleScenario.node[28].appl 	IntersectionExitTime 	131.29927474982
scalar IntersectionExampleScenario.node[28].appl 	NumberOfCollisions 	0
scalar IntersectionExampleScenario.node[28].nic.phy80211p 	busyTime 	0
scalar IntersectionExampleScenario.node[28].nic.mac1609_4 	ReceivedUnicastPackets 	0
scalar IntersectionExampleScenario.node[28].nic.mac1609_4 	ReceivedBroadcasts 	0
scalar IntersectionExampleScenario.node[28].nic.mac1609_4 	SentPackets 	0
scalar IntersectionExampleScenario.node[28].nic.mac1609_4 	SNIRLostPackets 	0
scalar IntersectionExampleScenario.node[28].nic.mac1609_4 	RXTXLostPackets 	0
scalar IntersectionExampleScenario.node[28].nic.mac1609_4 	TotalLostPackets 	0
scalar IntersectionExampleScenario.node[28].nic.mac1609_4 	DroppedPacketsInMac 	0
scalar IntersectionExampleScenario.node[28].nic.mac1609_4 	TooLittleTime 	0
scalar IntersectionExampleScenario.node[28].nic.mac1609_4 	TimesIntoBackoff 	0
scalar IntersectionExampleScenario.node[28].nic.mac1609_4 	SlotsBackoff 	0
scalar IntersectionExampleScenario.node[28].nic.mac1609_4 	NumInternalContention 	0
scalar IntersectionExampleScenario.node[28].nic.mac1609_4 	totalBusyTime 	0
scalar IntersectionExampleScenario.node[28].veinsmobility 	startTime 	90
scalar IntersectionExampleScenario.node[28].veinsmobility 	totalTime 	57.5
scalar IntersectionExampleScenario.node[28].veinsmobility 	stopTime 	147.75
scalar IntersectionExampleScenario.node[28].veinsmobility 	minSpeed 	0
scalar IntersectionExampleScenario.node[28].veinsmobility 	maxSpeed 	15.375
scalar IntersectionExampleScenario.node[28].veinsmobility 	totalDistance 	552.79929351807
scalar IntersectionExampleScenario.node[28].veinsmobility 	totalCO2Emission 	147.60491206543
scalar IntersectionExampleScenario.node[30].appl 	VehicleRemoved 	0
scalar IntersectionExampleScenario.node[30].appl 	ArrivedAtDest 	1
scalar IntersectionExampleScenario.node[30].appl 	IntersectionEnterTime 	92.25
scalar IntersectionExampleScenario.node[30].appl 	IntersectionExitTime 	144.28023777626
scalar IntersectionExampleScenario.node[30].appl 	NumberOfCollisions 	0
scalar IntersectionExampleScenario.node[30].nic.phy80211p 	busyTime 	0
scalar IntersectionExampleScenario.node[30].nic.mac1609_4 	ReceivedUnicastPackets 	0
scalar IntersectionExampleScenario.node[30].nic.mac1609_4 	ReceivedBroadcasts 	0
scalar IntersectionExampleScenario.node[30].nic.mac1609_4 	SentPackets 	0
scalar IntersectionExampleScenario.node[30].nic.mac1609_4 	SNIRLostPackets 	0
scalar IntersectionExampleScenario.node[30].nic.mac1609_4 	RXTXLostPackets 	0
scalar IntersectionExampleScenario.node[30].nic.mac1609_4 	TotalLostPackets 	0
scalar IntersectionExampleScenario.node[30].nic.mac1609_4 	DroppedPacketsInMac 	0
scalar IntersectionExampleScenario.node[30].nic.mac1609_4 	TooLittleTime 	0
scalar IntersectionExampleScenario.node[30].nic.mac1609_4 	TimesIntoBackoff 	0
scalar IntersectionExampleScenario.node[30].nic.mac1609_4 	SlotsBackoff 	0
scalar IntersectionExampleScenario.node[30].nic.mac1609_4 	NumInternalContention 	0
scalar IntersectionExampleScenario.node[30].nic.mac1609_4 	totalBusyTime 	0
scalar IntersectionExampleScenario.node[30].veinsmobility 	startTime 	92.25
scalar IntersectionExampleScenario.node[30].veinsmobility 	totalTime 	69
scalar IntersectionExampleScenario.node[30].veinsmobility 	stopTime 	161.5
scalar IntersectionExampleScenario.node[30].veinsmobility 	minSpeed 	0
scalar IntersectionExampleScenario.node[30].veinsmobility 	maxSpeed 	14.75
scalar IntersectionExampleScenario.node[30].veinsmobility 	totalDistance 	583.50169372559
scalar IntersectionExampleScenario.node[30].veinsmobility 	totalCO2Emission 	157.26910000346
scalar IntersectionExampleScenario.node[33].appl 	VehicleRemoved 	0
scalar IntersectionExampleScenario.node[33].appl 	ArrivedAtDest 	1
scalar IntersectionExampleScenario.node[33].appl 	IntersectionEnterTime 	96
scalar IntersectionExampleScenario.node[33].appl 	IntersectionExitTime 	145.03674543381
scalar IntersectionExampleScenario.node[33].appl 	NumberOfCollisions 	0
scalar IntersectionExampleScenario.node[33].nic.phy80211p 	busyTime 	0
scalar IntersectionExampleScenario.node[33].nic.mac1609_4 	ReceivedUnicastPackets 	0
scalar IntersectionExampleScenario.node[33].nic.mac1609_4 	ReceivedBroadcasts 	0
scalar IntersectionExampleScenario.node[33].nic.mac1609_4 	SentPackets 	0
scalar IntersectionExampleScenario.node[33].nic.mac1609_4 	SNIRLostPackets 	0
scalar IntersectionExampleScenario.node[33].nic.mac1609_4 	RXTXLostPackets 	0
scalar IntersectionExampleScenario.node[33].nic.mac1609_4 	TotalLostPackets 	0
scalar IntersectionExampleScenario.node[33].nic.mac1609_4 	DroppedPacketsInMac 	0
scalar IntersectionExampleScenario.node[33].nic.mac1609_4 	TooLittleTime 	0
scalar IntersectionExampleScenario.node[33].nic.mac1609_4 	TimesIntoBackoff 	0
scalar IntersectionExampleScenario.node[33].nic.mac1609_4 	SlotsBackoff 	0
scalar IntersectionExampleScenario.node[33].nic.mac1609_4 	NumInternalContention 	0
scalar IntersectionExampleScenario.node[33].nic.mac1609_4 	totalBusyTime 	0
scalar IntersectionExampleScenario.node[33].veinsmobility 	startTime 	96
scalar IntersectionExampleScenario.node[33].veinsmobility 	totalTime 	65.75
scalar IntersectionExampleScenario.node[33].veinsmobility 	stopTime 	162
scalar IntersectionExampleScenario.node[33].veinsmobility 	minSpeed 	0
scalar IntersectionExampleScenario.node[33].veinsmobility 	maxSpeed 	15.875
scalar IntersectionExampleScenario.node[33].veinsmobility 	totalDistance 	573.22571881143
scalar IntersectionExampleScenario.node[33].veinsmobility 	totalCO2Emission 	165.98659016897
scalar IntersectionExampleScenario.node[35].appl 	VehicleRemoved 	0
scalar IntersectionExampleScenario.node[35].appl 	ArrivedAtDest 	1
scalar IntersectionExampleScenario.node[35].appl 	IntersectionEnterTime 	106.25
scalar IntersectionExampleScenario.node[35].appl 	IntersectionExitTime 	147.5552751153
scalar IntersectionExampleScenario.node[35].appl 	NumberOfCollisions 	0
scalar IntersectionExampleScenario.node[35].nic.phy80211p 	busyTime 	0
scalar IntersectionExampleScenario.node[35].nic.mac1609_4 	ReceivedUnicastPackets 	0
scalar IntersectionExampleScenario.node[35].nic.mac1609_4 	ReceivedBroadcasts 	0
scalar IntersectionExampleScenario.node[35].nic.mac1609_4 	SentPackets 	0
scalar IntersectionExampleScenario.node[35].nic.mac1609_4 	SNIRLostPackets 	0
scalar IntersectionExampleScenario.node[35].nic.mac1609_4 	RXTXLostPackets 	0
scalar IntersectionExampleScenario.node[35].nic.mac1609_4 	TotalLostPackets 	0
scalar IntersectionExampleScenario.node[35].nic.mac1609_4 	DroppedPacketsInMac 	0
scalar IntersectionExampleScenario.node[35].nic.mac1609_4 	TooLittleTime 	0
scalar IntersectionExampleScenario.node[35].nic.mac1609_4 	TimesIntoBackoff 	0
scalar IntersectionExampleScenario.node[35].nic.mac1609_4 	SlotsBackoff 	0
scalar IntersectionExampleScenario.node[35].nic.mac1609_4 	NumInternalContention 	0
scalar IntersectionExampleScenario.node[35].nic.mac1609_4 	totalBusyTime 	0
scalar IntersectionExampleScenario.node[35].veinsmobility 	startTime 	106.25
scalar IntersectionExampleScenario.node[35].veinsmobility 	totalTime 	57
scalar IntersectionExampleScenario.node[35].veinsmobility 	stopTime 	163.5
scalar IntersectionExampleScenario.node[35].veinsmobility 	minSpeed 	0
scalar IntersectionExampleScenario.node[35].veinsmobility 	maxSpeed 	15.64999961853
scalar IntersectionExampleScenario.node[35].veinsmobility 	totalDistance 	551.77420806885
scalar IntersectionExampleScenario.node[35].veinsmobility 	totalCO2Emission 	147.54799542605
scalar IntersectionExampleScenario.node[36].appl 	VehicleRemoved 	0
scalar IntersectionExampleScenario.node[36].appl 	ArrivedAtDest 	1
scalar IntersectionExampleScenario.node[36].appl 	IntersectionEnterTime 	110.25
scalar IntersectionExampleScenario.node[36].appl 	IntersectionExitTime 	155.346851576
scalar IntersectionExampleScenario.node[36].appl 	NumberOfCollisions 	0
scalar IntersectionExampleScenario.node[36].nic.phy80211p 	busyTime 	0
scalar IntersectionExampleScenario.node[36].nic.mac1609_4 	ReceivedUnicastPackets 	0
scalar IntersectionExampleScenario.node[36].nic.mac1609_4 	ReceivedBroadcasts 	0
scalar IntersectionExampleScenario.node[36].nic.mac1609_4 	SentPackets 	0
scalar IntersectionExampleScenario.node[36].nic.mac1609_4 	SNIRLostPackets 	0
scalar IntersectionExampleScenario.node[36].nic.mac1609_4 	RXTXLostPackets 	0
scalar IntersectionExampleScenario.node[36].nic.mac1609_4 	TotalLostPackets 	0
scalar IntersectionExampleScenario.node[36].nic.mac1609_4 	DroppedPacketsInMac 	0
scalar IntersectionExampleScenario.node[36].nic.mac1609_4 	TooLittleTime 	0
scalar IntersectionExampleScenario.node[36].nic.mac1609_4 	TimesIntoBackoff 	0
scalar IntersectionExampleScenario.node[36].nic.mac1609_4 	SlotsBackoff 	0
scalar IntersectionExampleScenario.node[36].nic.mac1609_4 	NumInternalContention 	0
scalar IntersectionExampleScenario.node[36].nic.mac1609_4 	totalBusyTime 	0
scalar IntersectionExampleScenario.node[36].veinsmobility 	startTime 	110.25
scalar IntersectionExampleScenario.node[36].veinsmobility 	totalTime 	60.5
scalar IntersectionExampleScenario.node[36].veinsmobility 	stopTime 	171
scalar IntersectionExampleScenario.node[36].veinsmobility 	minSpeed 	0
scalar IntersectionExampleScenario.node[36].veinsmobility 	maxSpeed 	16.136344909668
scalar IntersectionExampleScenario.node[36].veinsmobility 	totalDistance 	551.20804704776
scalar IntersectionExampleScenario.node[36].veinsmobility 	totalCO2Emission 	159.12325746166
scalar IntersectionExampleScenario.node[37].appl 	VehicleRemoved 	0
scalar IntersectionExampleScenario.node[37].appl 	ArrivedAtDest 	1
scalar IntersectionExampleScenario.node[37].appl 	IntersectionEnterTime 	126.75
scalar IntersectionExampleScenario.node[37].appl 	IntersectionExitTime 	156.53512474836
scalar IntersectionExampleScenario.node[37].appl 	NumberOfCollisions 	0
scalar IntersectionExampleScenario.node[37].nic.phy80211p 	busyTime 	0
scalar IntersectionExampleScenario.node[37].nic.mac1609_4 	ReceivedUnicastPackets 	0
scalar IntersectionExampleScenario.node[37].nic.mac1609_4 	ReceivedBroadcasts 	0
scalar IntersectionExampleScenario.node[37].nic.mac1609_4 	SentPackets 	0
scalar IntersectionExampleScenario.node[37].nic.mac1609_4 	SNIRLostPackets 	0
scalar IntersectionExampleScenario.node[37].nic.mac1609_4 	RXTXLostPackets 	0
scalar IntersectionExampleScenario.node[37].nic.mac1609_4 	TotalLostPackets 	0
scalar IntersectionExampleScenario.node[37].nic.mac1609_4 	DroppedPacketsInMac 	0
scalar IntersectionExampleScenario.node[37].nic.mac1609_4 	TooLittleTime 	0
scalar IntersectionExampleScenario.node[37].nic.mac1609_4 	TimesIntoBackoff 	0
scalar IntersectionExampleScenario.node[37].nic.mac1609_4 	SlotsBackoff 	0
scalar IntersectionExampleScenario.node[37].nic.mac1609_4 	NumInternalContention 	0
scalar IntersectionExampleScenario.node[37].nic.mac1609_4 	totalBusyTime 	0
scalar IntersectionExampleScenario.node[37].veinsmobility 	startTime 	126.75
scalar IntersectionExampleScenario.node[37].veinsmobility 	totalTime 	45.75
scalar IntersectionExampleScenario.node[37].veinsmobility 	stopTime 	172.75
scalar IntersectionExampleScenario.node[37].veinsmobility 	minSpeed 	2.7218186855316
scalar IntersectionExampleScenario.node[37].veinsmobility 	maxSpeed 	15.64999961853
scalar IntersectionExampleScenario.node[37].veinsmobility 	totalDistance 	553.68008422852
scalar IntersectionExampleScenario.node[37].veinsmobility 	totalCO2Emission 	134.63241643605
scalar IntersectionExampleScenario.node[38].appl 	VehicleRemoved 	0
scalar IntersectionExampleScenario.node[38].appl 	ArrivedAtDest 	1
scalar IntersectionExampleScenario.node[38].appl 	IntersectionEnterTime 	135
scalar IntersectionExampleScenario.node[38].appl 	IntersectionExitTime 	159.84875449561
scalar IntersectionExampleScenario.node[38].appl 	NumberOfCollisions 	0
scalar IntersectionExampleScenario.node[38].nic.phy80211p 	busyTime 	0
scalar IntersectionExampleScenario.node[38].nic.mac1609_4 	ReceivedUnicastPackets 	0
scalar IntersectionExampleScenario.node[38].nic.mac1609_4 	ReceivedBroadcasts 	0
scalar IntersectionExampleScenario.node[38].nic.mac1609_4 	SentPackets 	0
scalar IntersectionExampleScenario.node[38].nic.mac1609_4 	SNIRLostPackets 	0
scalar IntersectionExampleScenario.node[38].nic.mac1609_4 	RXTXLostPackets 	0
scalar IntersectionExampleScenario.node[38].nic.mac1609_4 	TotalLostPackets 	0
scalar IntersectionExampleScenario.node[38].nic.mac1609_4 	DroppedPacketsInMac 	0
scalar IntersectionExampleScenario.node[38].nic.mac1609_4 	TooLittleTime 	0
scalar IntersectionExampleScenario.node[38].nic.mac1609_4 	TimesIntoBackoff 	0
scalar IntersectionExampleScenario.node[38].nic.mac1609_4 	SlotsBackoff 	0
scalar IntersectionExampleScenario.node[38].nic.mac1609_4 	NumInternalContention 	0
scalar IntersectionExampleScenario.node[38].nic.mac1609_4 	totalBusyTime 	0
scalar IntersectionExampleScenario.node[38].veinsmobility 	startTime 	135
scalar IntersectionExampleScenario.node[38].veinsmobility 	totalTime 	41
scalar IntersectionExampleScenario.node[38].veinsmobility 	stopTime 	176.25
scalar IntersectionExampleScenario.node[38].veinsmobility 	minSpeed 	5.6500000953674
scalar IntersectionExampleScenario.node[38].veinsmobility 	maxSpeed 	15.668437957764
scalar IntersectionExampleScenario.node[38].veinsmobility 	totalDistance 	549.83422933414
scalar IntersectionExampleScenario.node[38].veinsmobility 	totalCO2Emission 	140.08413374409
scalar IntersectionExampleScenario.node[40].appl 	VehicleRemoved 	0
scalar IntersectionExampleScenario.node[40].appl 	ArrivedAtDest 	1
scalar IntersectionExampleScenario.node[40].appl 	IntersectionEnterTime 	138.75
scalar IntersectionExampleScenario.node[40].appl 	IntersectionExitTime 	162.27075877206
scalar IntersectionExampleScenario.node[40].appl 	NumberOfCollisions 	0
scalar IntersectionExampleScenario.node[40].nic.phy80211p 	busyTime 	0
scalar IntersectionExampleScenario.node[40].nic.mac1609_4 	ReceivedUnicastPackets 	0
scalar IntersectionExampleScenario.node[40].nic.mac1609_4 	ReceivedBroadcasts 	0
scalar IntersectionExampleScenario.node[40].nic.mac1609_4 	SentPackets 	0
scalar IntersectionExampleScenario.node[40].nic.mac1609_4 	SNIRLostPackets 	0
scalar IntersectionExampleScenario.node[40].nic.mac1609_4 	RXTXLostPackets 	0
scalar IntersectionExampleScenario.node[40].nic.mac1609_4 	TotalLostPackets 	0
scalar IntersectionExampleScenario.node[40].nic.mac1609_4 	DroppedPacketsInMac 	0
scalar IntersectionExampleScenario.node[40].nic.mac1609_4 	TooLittleTime 	0
scalar IntersectionExampleScenario.node[40].nic.mac1609_4 	TimesIntoBackoff 	0
[...]
scalar IntersectionExampleScenario.node[529].veinsmobility 	totalDistance 	302.98226928711
scalar IntersectionExampleScenario.node[529].veinsmobility 	totalCO2Emission 	75.280995089788
scalar IntersectionExampleScenario.node[530].appl 	VehicleRemoved 	0
scalar IntersectionExampleScenario.node[530].appl 	ArrivedAtDest 	0
scalar IntersectionExampleScenario.node[530].appl 	IntersectionEnterTime 	1771.75
scalar IntersectionExampleScenario.node[530].appl 	IntersectionExitTime 	-1
scalar IntersectionExampleScenario.node[530].appl 	NumberOfCollisions 	0
scalar IntersectionExampleScenario.node[530].nic.phy80211p 	busyTime 	0
scalar IntersectionExampleScenario.node[530].nic.mac1609_4 	ReceivedUnicastPackets 	0
scalar IntersectionExampleScenario.node[530].nic.mac1609_4 	ReceivedBroadcasts 	0
scalar IntersectionExampleScenario.node[530].nic.mac1609_4 	SentPackets 	0
scalar IntersectionExampleScenario.node[530].nic.mac1609_4 	SNIRLostPackets 	0
scalar IntersectionExampleScenario.node[530].nic.mac1609_4 	RXTXLostPackets 	0
scalar IntersectionExampleScenario.node[530].nic.mac1609_4 	TotalLostPackets 	0
scalar IntersectionExampleScenario.node[530].nic.mac1609_4 	DroppedPacketsInMac 	0
scalar IntersectionExampleScenario.node[530].nic.mac1609_4 	TooLittleTime 	0
scalar IntersectionExampleScenario.node[530].nic.mac1609_4 	TimesIntoBackoff 	0
scalar IntersectionExampleScenario.node[530].nic.mac1609_4 	SlotsBackoff 	0
scalar IntersectionExampleScenario.node[530].nic.mac1609_4 	NumInternalContention 	0
scalar IntersectionExampleScenario.node[530].nic.mac1609_4 	totalBusyTime 	0
scalar IntersectionExampleScenario.node[530].veinsmobility 	startTime 	1771.75
scalar IntersectionExampleScenario.node[530].veinsmobility 	totalTime 	28.25
scalar IntersectionExampleScenario.node[530].veinsmobility 	stopTime 	1800
scalar IntersectionExampleScenario.node[530].veinsmobility 	minSpeed 	0
scalar IntersectionExampleScenario.node[530].veinsmobility 	maxSpeed 	15.64999961853
scalar IntersectionExampleScenario.node[530].veinsmobility 	totalDistance 	287.42188262939
scalar IntersectionExampleScenario.node[530].veinsmobility 	totalCO2Emission 	72.504706376984
scalar IntersectionExampleScenario.node[531].appl 	VehicleRemoved 	0
scalar IntersectionExampleScenario.node[531].appl 	ArrivedAtDest 	0
scalar IntersectionExampleScenario.node[531].appl 	IntersectionEnterTime 	1778
scalar IntersectionExampleScenario.node[531].appl 	IntersectionExitTime 	-1
scalar IntersectionExampleScenario.node[531].appl 	NumberOfCollisions 	0
scalar IntersectionExampleScenario.node[531].nic.phy80211p 	busyTime 	0
scalar IntersectionExampleScenario.node[531].nic.mac1609_4 	ReceivedUnicastPackets 	0
scalar IntersectionExampleScenario.node[531].nic.mac1609_4 	ReceivedBroadcasts 	0
scalar IntersectionExampleScenario.node[531].nic.mac1609_4 	SentPackets 	0
scalar IntersectionExampleScenario.node[531].nic.mac1609_4 	SNIRLostPackets 	0
scalar IntersectionExampleScenario.node[531].nic.mac1609_4 	RXTXLostPackets 	0
scalar IntersectionExampleScenario.node[531].nic.mac1609_4 	TotalLostPackets 	0
scalar IntersectionExampleScenario.node[531].nic.mac1609_4 	DroppedPacketsInMac 	0
scalar IntersectionExampleScenario.node[531].nic.mac1609_4 	TooLittleTime 	0
scalar IntersectionExampleScenario.node[531].nic.mac1609_4 	TimesIntoBackoff 	0
scalar IntersectionExampleScenario.node[531].nic.mac1609_4 	SlotsBackoff 	0
scalar IntersectionExampleScenario.node[531].nic.mac1609_4 	NumInternalContention 	0
scalar IntersectionExampleScenario.node[531].nic.mac1609_4 	totalBusyTime 	0
scalar IntersectionExampleScenario.node[531].veinsmobility 	startTime 	1778
scalar IntersectionExampleScenario.node[531].veinsmobility 	totalTime 	22
scalar IntersectionExampleScenario.node[531].veinsmobility 	stopTime 	1800
scalar IntersectionExampleScenario.node[531].veinsmobility 	minSpeed 	4.4495768547058
scalar IntersectionExampleScenario.node[531].veinsmobility 	maxSpeed 	15.02499961853
scalar IntersectionExampleScenario.node[531].veinsmobility 	totalDistance 	262.87076568604
scalar IntersectionExampleScenario.node[531].veinsmobility 	totalCO2Emission 	58.506135674446
scalar IntersectionExampleScenario.node[532].appl 	VehicleRemoved 	0
scalar IntersectionExampleScenario.node[532].appl 	ArrivedAtDest 	0
scalar IntersectionExampleScenario.node[532].appl 	IntersectionEnterTime 	1779
scalar IntersectionExampleScenario.node[532].appl 	IntersectionExitTime 	-1
scalar IntersectionExampleScenario.node[532].appl 	NumberOfCollisions 	0
scalar IntersectionExampleScenario.node[532].nic.phy80211p 	busyTime 	0
scalar IntersectionExampleScenario.node[532].nic.mac1609_4 	ReceivedUnicastPackets 	0
scalar IntersectionExampleScenario.node[532].nic.mac1609_4 	ReceivedBroadcasts 	0
scalar IntersectionExampleScenario.node[532].nic.mac1609_4 	SentPackets 	0
scalar IntersectionExampleScenario.node[532].nic.mac1609_4 	SNIRLostPackets 	0
scalar IntersectionExampleScenario.node[532].nic.mac1609_4 	RXTXLostPackets 	0
scalar IntersectionExampleScenario.node[532].nic.mac1609_4 	TotalLostPackets 	0
scalar IntersectionExampleScenario.node[532].nic.mac1609_4 	DroppedPacketsInMac 	0
scalar IntersectionExampleScenario.node[532].nic.mac1609_4 	TooLittleTime 	0
scalar IntersectionExampleScenario.node[532].nic.mac1609_4 	TimesIntoBackoff 	0
scalar IntersectionExampleScenario.node[532].nic.mac1609_4 	SlotsBackoff 	0
scalar IntersectionExampleScenario.node[532].nic.mac1609_4 	NumInternalContention 	0
scalar IntersectionExampleScenario.node[532].nic.mac1609_4 	totalBusyTime 	0
scalar IntersectionExampleScenario.node[532].veinsmobility 	startTime 	1779
scalar IntersectionExampleScenario.node[532].veinsmobility 	totalTime 	21
scalar IntersectionExampleScenario.node[532].veinsmobility 	stopTime 	1800
scalar IntersectionExampleScenario.node[532].veinsmobility 	minSpeed 	4.9372067451477
scalar IntersectionExampleScenario.node[532].veinsmobility 	maxSpeed 	15.02499961853
scalar IntersectionExampleScenario.node[532].veinsmobility 	totalDistance 	252.98220825195
scalar IntersectionExampleScenario.node[532].veinsmobility 	totalCO2Emission 	58.861735496773
scalar IntersectionExampleScenario.node[533].appl 	VehicleRemoved 	0
scalar IntersectionExampleScenario.node[533].appl 	ArrivedAtDest 	0
scalar IntersectionExampleScenario.node[533].appl 	IntersectionEnterTime 	1781
scalar IntersectionExampleScenario.node[533].appl 	IntersectionExitTime 	-1
scalar IntersectionExampleScenario.node[533].appl 	NumberOfCollisions 	0
scalar IntersectionExampleScenario.node[533].nic.phy80211p 	busyTime 	0
scalar IntersectionExampleScenario.node[533].nic.mac1609_4 	ReceivedUnicastPackets 	0
scalar IntersectionExampleScenario.node[533].nic.mac1609_4 	ReceivedBroadcasts 	0
scalar IntersectionExampleScenario.node[533].nic.mac1609_4 	SentPackets 	0
scalar IntersectionExampleScenario.node[533].nic.mac1609_4 	SNIRLostPackets 	0
scalar IntersectionExampleScenario.node[533].nic.mac1609_4 	RXTXLostPackets 	0
scalar IntersectionExampleScenario.node[533].nic.mac1609_4 	TotalLostPackets 	0
scalar IntersectionExampleScenario.node[533].nic.mac1609_4 	DroppedPacketsInMac 	0
scalar IntersectionExampleScenario.node[533].nic.mac1609_4 	TooLittleTime 	0
scalar IntersectionExampleScenario.node[533].nic.mac1609_4 	TimesIntoBackoff 	0
scalar IntersectionExampleScenario.node[533].nic.mac1609_4 	SlotsBackoff 	0
scalar IntersectionExampleScenario.node[533].nic.mac1609_4 	NumInternalContention 	0
scalar IntersectionExampleScenario.node[533].nic.mac1609_4 	totalBusyTime 	0
scalar IntersectionExampleScenario.node[533].veinsmobility 	startTime 	1781
scalar IntersectionExampleScenario.node[533].veinsmobility 	totalTime 	19
scalar IntersectionExampleScenario.node[533].veinsmobility 	stopTime 	1800
scalar IntersectionExampleScenario.node[533].veinsmobility 	minSpeed 	5.6500000953674
scalar IntersectionExampleScenario.node[533].veinsmobility 	maxSpeed 	15.64999961853
scalar IntersectionExampleScenario.node[533].veinsmobility 	totalDistance 	248.54873657227
scalar IntersectionExampleScenario.node[533].veinsmobility 	totalCO2Emission 	71.063462719732
scalar IntersectionExampleScenario.node[534].appl 	VehicleRemoved 	0
scalar IntersectionExampleScenario.node[534].appl 	ArrivedAtDest 	0
scalar IntersectionExampleScenario.node[534].appl 	IntersectionEnterTime 	1786
scalar IntersectionExampleScenario.node[534].appl 	IntersectionExitTime 	-1
scalar IntersectionExampleScenario.node[534].appl 	NumberOfCollisions 	0
scalar IntersectionExampleScenario.node[534].nic.phy80211p 	busyTime 	0
scalar IntersectionExampleScenario.node[534].nic.mac1609_4 	ReceivedUnicastPackets 	0
scalar IntersectionExampleScenario.node[534].nic.mac1609_4 	ReceivedBroadcasts 	0
scalar IntersectionExampleScenario.node[534].nic.mac1609_4 	SentPackets 	0
scalar IntersectionExampleScenario.node[534].nic.mac1609_4 	SNIRLostPackets 	0
scalar IntersectionExampleScenario.node[534].nic.mac1609_4 	RXTXLostPackets 	0
scalar IntersectionExampleScenario.node[534].nic.mac1609_4 	TotalLostPackets 	0
scalar IntersectionExampleScenario.node[534].nic.mac1609_4 	DroppedPacketsInMac 	0
scalar IntersectionExampleScenario.node[534].nic.mac1609_4 	TooLittleTime 	0
scalar IntersectionExampleScenario.node[534].nic.mac1609_4 	TimesIntoBackoff 	0
scalar IntersectionExampleScenario.node[534].nic.mac1609_4 	SlotsBackoff 	0
scalar IntersectionExampleScenario.node[534].nic.mac1609_4 	NumInternalContention 	0
scalar IntersectionExampleScenario.node[534].nic.mac1609_4 	totalBusyTime 	0
scalar IntersectionExampleScenario.node[534].veinsmobility 	startTime 	1786
scalar IntersectionExampleScenario.node[534].veinsmobility 	totalTime 	14
scalar IntersectionExampleScenario.node[534].veinsmobility 	stopTime 	1800
scalar IntersectionExampleScenario.node[534].veinsmobility 	minSpeed 	5.6500000953674
scalar IntersectionExampleScenario.node[534].veinsmobility 	maxSpeed 	15.64999961853
scalar IntersectionExampleScenario.node[534].veinsmobility 	totalDistance 	188.30670928955
scalar IntersectionExampleScenario.node[534].veinsmobility 	totalCO2Emission 	53.742817422778
scalar IntersectionExampleScenario.node[535].appl 	VehicleRemoved 	0
scalar IntersectionExampleScenario.node[535].appl 	ArrivedAtDest 	0
scalar IntersectionExampleScenario.node[535].appl 	IntersectionEnterTime 	1787.5
scalar IntersectionExampleScenario.node[535].appl 	IntersectionExitTime 	-1
scalar IntersectionExampleScenario.node[535].appl 	NumberOfCollisions 	0
scalar IntersectionExampleScenario.node[535].nic.phy80211p 	busyTime 	0
scalar IntersectionExampleScenario.node[535].nic.mac1609_4 	ReceivedUnicastPackets 	0
scalar IntersectionExampleScenario.node[535].nic.mac1609_4 	ReceivedBroadcasts 	0
scalar IntersectionExampleScenario.node[535].nic.mac1609_4 	SentPackets 	0
scalar IntersectionExampleScenario.node[535].nic.mac1609_4 	SNIRLostPackets 	0
scalar IntersectionExampleScenario.node[535].nic.mac1609_4 	RXTXLostPackets 	0
scalar IntersectionExampleScenario.node[535].nic.mac1609_4 	TotalLostPackets 	0
scalar IntersectionExampleScenario.node[535].nic.mac1609_4 	DroppedPacketsInMac 	0
scalar IntersectionExampleScenario.node[535].nic.mac1609_4 	TooLittleTime 	0
scalar IntersectionExampleScenario.node[535].nic.mac1609_4 	TimesIntoBackoff 	0
scalar IntersectionExampleScenario.node[535].nic.mac1609_4 	SlotsBackoff 	0
scalar IntersectionExampleScenario.node[535].nic.mac1609_4 	NumInternalContention 	0
scalar IntersectionExampleScenario.node[535].nic.mac1609_4 	totalBusyTime 	0
scalar IntersectionExampleScenario.node[535].veinsmobility 	startTime 	1787.5
scalar IntersectionExampleScenario.node[535].veinsmobility 	totalTime 	12.5
scalar IntersectionExampleScenario.node[535].veinsmobility 	stopTime 	1800
scalar IntersectionExampleScenario.node[535].veinsmobility 	minSpeed 	5.6500000953674
scalar IntersectionExampleScenario.node[535].veinsmobility 	maxSpeed 	15.64999961853
scalar IntersectionExampleScenario.node[535].veinsmobility 	totalDistance 	172.80323028564
scalar IntersectionExampleScenario.node[535].veinsmobility 	totalCO2Emission 	51.718084912034
scalar IntersectionExampleScenario.node[536].appl 	VehicleRemoved 	0
scalar IntersectionExampleScenario.node[536].appl 	ArrivedAtDest 	0
scalar IntersectionExampleScenario.node[536].appl 	IntersectionEnterTime 	1787.75
scalar IntersectionExampleScenario.node[536].appl 	IntersectionExitTime 	-1
scalar IntersectionExampleScenario.node[536].appl 	NumberOfCollisions 	0
scalar IntersectionExampleScenario.node[536].nic.phy80211p 	busyTime 	0
scalar IntersectionExampleScenario.node[536].nic.mac1609_4 	ReceivedUnicastPackets 	0
scalar IntersectionExampleScenario.node[536].nic.mac1609_4 	ReceivedBroadcasts 	0
scalar IntersectionExampleScenario.node[536].nic.mac1609_4 	SentPackets 	0
scalar IntersectionExampleScenario.node[536].nic.mac1609_4 	SNIRLostPackets 	0
scalar IntersectionExampleScenario.node[536].nic.mac1609_4 	RXTXLostPackets 	0
scalar IntersectionExampleScenario.node[536].nic.mac1609_4 	TotalLostPackets 	0
scalar IntersectionExampleScenario.node[536].nic.mac1609_4 	DroppedPacketsInMac 	0
scalar IntersectionExampleScenario.node[536].nic.mac1609_4 	TooLittleTime 	0
scalar IntersectionExampleScenario.node[536].nic.mac1609_4 	TimesIntoBackoff 	0
scalar IntersectionExampleScenario.node[536].nic.mac1609_4 	SlotsBackoff 	0
scalar IntersectionExampleScenario.node[536].nic.mac1609_4 	NumInternalContention 	0
scalar IntersectionExampleScenario.node[536].nic.mac1609_4 	totalBusyTime 	0
scalar IntersectionExampleScenario.node[536].veinsmobility 	startTime 	1787.75
scalar IntersectionExampleScenario.node[536].veinsmobility 	totalTime 	12.25
scalar IntersectionExampleScenario.node[536].veinsmobility 	stopTime 	1800
scalar IntersectionExampleScenario.node[536].veinsmobility 	minSpeed 	5.6500000953674
scalar IntersectionExampleScenario.node[536].veinsmobility 	maxSpeed 	16.407415390015
scalar IntersectionExampleScenario.node[536].veinsmobility 	totalDistance 	174.05355072021
scalar IntersectionExampleScenario.node[536].veinsmobility 	totalCO2Emission 	54.475052792651
scalar IntersectionExampleScenario.node[537].appl 	VehicleRemoved 	0
scalar IntersectionExampleScenario.node[537].appl 	ArrivedAtDest 	0
scalar IntersectionExampleScenario.node[537].appl 	IntersectionEnterTime 	1790.75
scalar IntersectionExampleScenario.node[537].appl 	IntersectionExitTime 	-1
scalar IntersectionExampleScenario.node[537].appl 	NumberOfCollisions 	0
scalar IntersectionExampleScenario.node[537].nic.phy80211p 	busyTime 	0
scalar IntersectionExampleScenario.node[537].nic.mac1609_4 	ReceivedUnicastPackets 	0
scalar IntersectionExampleScenario.node[537].nic.mac1609_4 	ReceivedBroadcasts 	0
scalar IntersectionExampleScenario.node[537].nic.mac1609_4 	SentPackets 	0
scalar IntersectionExampleScenario.node[537].nic.mac1609_4 	SNIRLostPackets 	0
scalar IntersectionExampleScenario.node[537].nic.mac1609_4 	RXTXLostPackets 	0
scalar IntersectionExampleScenario.node[537].nic.mac1609_4 	TotalLostPackets 	0
scalar IntersectionExampleScenario.node[537].nic.mac1609_4 	DroppedPacketsInMac 	0
scalar IntersectionExampleScenario.node[537].nic.mac1609_4 	TooLittleTime 	0
scalar IntersectionExampleScenario.node[537].nic.mac1609_4 	TimesIntoBackoff 	0
scalar IntersectionExampleScenario.node[537].nic.mac1609_4 	SlotsBackoff 	0
scalar IntersectionExampleScenario.node[537].nic.mac1609_4 	NumInternalContention 	0
scalar IntersectionExampleScenario.node[537].nic.mac1609_4 	totalBusyTime 	0
scalar IntersectionExampleScenario.node[537].veinsmobility 	startTime 	1790.75
scalar IntersectionExampleScenario.node[537].veinsmobility 	totalTime 	9.25
scalar IntersectionExampleScenario.node[537].veinsmobility 	stopTime 	1800
scalar IntersectionExampleScenario.node[537].veinsmobility 	minSpeed 	5.6500000953674
scalar IntersectionExampleScenario.node[537].veinsmobility 	maxSpeed 	15.64999961853
scalar IntersectionExampleScenario.node[537].veinsmobility 	totalDistance 	122.04862976074
scalar IntersectionExampleScenario.node[537].veinsmobility 	totalCO2Emission 	44.518889813964
scalar IntersectionExampleScenario.node[538].appl 	VehicleRemoved 	0
scalar IntersectionExampleScenario.node[538].appl 	ArrivedAtDest 	0
scalar IntersectionExampleScenario.node[538].appl 	IntersectionEnterTime 	1797.5
scalar IntersectionExampleScenario.node[538].appl 	IntersectionExitTime 	-1
scalar IntersectionExampleScenario.node[538].appl 	NumberOfCollisions 	0
scalar IntersectionExampleScenario.node[538].nic.phy80211p 	busyTime 	0
scalar IntersectionExampleScenario.node[538].nic.mac1609_4 	ReceivedUnicastPackets 	0
scalar IntersectionExampleScenario.node[538].nic.mac1609_4 	ReceivedBroadcasts 	0
scalar IntersectionExampleScenario.node[538].nic.mac1609_4 	SentPackets 	0
scalar IntersectionExampleScenario.node[538].nic.mac1609_4 	SNIRLostPackets 	0
scalar IntersectionExampleScenario.node[538].nic.mac1609_4 	RXTXLostPackets 	0
scalar IntersectionExampleScenario.node[538].nic.mac1609_4 	TotalLostPackets 	0
scalar IntersectionExampleScenario.node[538].nic.mac1609_4 	DroppedPacketsInMac 	0
scalar IntersectionExampleScenario.node[538].nic.mac1609_4 	TooLittleTime 	0
scalar IntersectionExampleScenario.node[538].nic.mac1609_4 	TimesIntoBackoff 	0
scalar IntersectionExampleScenario.node[538].nic.mac1609_4 	SlotsBackoff 	0
scalar IntersectionExampleScenario.node[538].nic.mac1609_4 	NumInternalContention 	0
scalar IntersectionExampleScenario.node[538].nic.mac1609_4 	totalBusyTime 	0
scalar IntersectionExampleScenario.node[538].veinsmobility 	startTime 	1797.5
scalar IntersectionExampleScenario.node[538].veinsmobility 	totalTime 	2.5
scalar IntersectionExampleScenario.node[538].veinsmobility 	stopTime 	1800
scalar IntersectionExampleScenario.node[538].veinsmobility 	minSpeed 	5.6500000953674
scalar IntersectionExampleScenario.node[538].veinsmobility 	maxSpeed 	11.27499961853
scalar IntersectionExampleScenario.node[538].veinsmobility 	totalDistance 	20.375
scalar IntersectionExampleScenario.node[538].veinsmobility 	totalCO2Emission 	15.500237724595
scalar IntersectionExampleScenario.node[539].appl 	VehicleRemoved 	0
scalar IntersectionExampleScenario.node[539].appl 	ArrivedAtDest 	0
scalar IntersectionExampleScenario.node[539].appl 	IntersectionEnterTime 	1798
scalar IntersectionExampleScenario.node[539].appl 	IntersectionExitTime 	-1
scalar IntersectionExampleScenario.node[539].appl 	NumberOfCollisions 	0
scalar IntersectionExampleScenario.node[539].nic.phy80211p 	busyTime 	0
scalar IntersectionExampleScenario.node[539].nic.mac1609_4 	ReceivedUnicastPackets 	0
scalar IntersectionExampleScenario.node[539].nic.mac1609_4 	ReceivedBroadcasts 	0
scalar IntersectionExampleScenario.node[539].nic.mac1609_4 	SentPackets 	0
scalar IntersectionExampleScenario.node[539].nic.mac1609_4 	SNIRLostPackets 	0
scalar IntersectionExampleScenario.node[539].nic.mac1609_4 	RXTXLostPackets 	0
scalar IntersectionExampleScenario.node[539].nic.mac1609_4 	TotalLostPackets 	0
scalar IntersectionExampleScenario.node[539].nic.mac1609_4 	DroppedPacketsInMac 	0
scalar IntersectionExampleScenario.node[539].nic.mac1609_4 	TooLittleTime 	0
scalar IntersectionExampleScenario.node[539].nic.mac1609_4 	TimesIntoBackoff 	0
scalar IntersectionExampleScenario.node[539].nic.mac1609_4 	SlotsBackoff 	0
scalar IntersectionExampleScenario.node[539].nic.mac1609_4 	NumInternalContention 	0
scalar IntersectionExampleScenario.node[539].nic.mac1609_4 	totalBusyTime 	0
scalar IntersectionExampleScenario.node[539].veinsmobility 	startTime 	1798
scalar IntersectionExampleScenario.node[539].veinsmobility 	totalTime 	2
scalar IntersectionExampleScenario.node[539].veinsmobility 	stopTime 	1800
scalar IntersectionExampleScenario.node[539].veinsmobility 	minSpeed 	5.6500000953674
scalar IntersectionExampleScenario.node[539].veinsmobility 	maxSpeed 	10.02499961853
scalar IntersectionExampleScenario.node[539].veinsmobility 	totalDistance 	15.049987792969
scalar IntersectionExampleScenario.node[539].veinsmobility 	totalCO2Emission 	11.317369352905
