file 16325630 1591485090                                        
version 2
run nodebug-44-20200606-19:08:45-22420
attr configname nodebug
attr datetime 20200606-19:08:45
attr experiment nodebug
attr inifile omnetpp.ini
attr iterationvars ""
attr iterationvars2 $repetition=44
attr measurement ""
attr network "\"org.car2x.veins.modules.application.ExtTraCIScenarioManagerLaunchd.IntersectionExampleScenario\""
attr processid 22420
attr repetition 44
attr replication #44
attr resultdir results
attr runnumber 44
attr seedset 44
param **.coreDebug false
param **.debug false
param *.**.nic.mac1609_4.bitrate 18Mbps
param *.**.nic.mac1609_4.txPower 20mW
param *.**.nic.mac1609_4.useServiceChannel false
param *.**.nic.phy80211p.analogueModels "xmldoc(\"config.xml\")"
param *.**.nic.phy80211p.decider "xmldoc(\"config.xml\")"
param *.**.nic.phy80211p.sensitivity -89dBm
param *.**.nic.phy80211p.thermalNoise -110dBm
param *.**.nic.phy80211p.usePropagationDelay true
param *.**.nic.phy80211p.useThermalNoise true
param *.annotations.draw false
param *.connectionManager.alpha 2.0
param *.connectionManager.carrierFrequency "5.890e9 Hz"
param *.connectionManager.pMax 20mW
param *.connectionManager.sat -89dBm
param *.connectionManager.sendDirect true
param *.manager.autoShutdown true
param *.manager.host "\"localhost\""
param *.manager.launchConfig "xmldoc(\"paramics.launchd.xml\")"
param *.manager.margin 25
param *.manager.moduleDisplayString "\"\""
param *.manager.moduleName "\"node\""
param *.manager.moduleType "\"org.car2x.veins.nodes.Car\""
param *.manager.port 9999
param *.manager.updateInterval 250ms
param *.node[*0].veinsmobility.accidentCount 0
param *.node[*0].veinsmobility.accidentDuration 30s
param *.node[*0].veinsmobility.accidentStart 75s
param *.node[*].appl.LiderSelectZoneRadio 55.0
param *.node[*].appl.ShareDataZoneRadio 110.0
param *.node[*].appl.TiempoSemaforo 30.0
param *.node[*].appl.beaconInterval 1s
param *.node[*].appl.beaconPriority 3
param *.node[*].appl.dataOnSch false
param *.node[*].appl.dataPriority 2
param *.node[*].appl.debug false
param *.node[*].appl.headerLength "256 bit"
param *.node[*].appl.maxOffset 0.005s
param *.node[*].appl.sendBeacons false
param *.node[*].appl.sendData true
param *.node[*].applType "\"Dummy\""
param *.node[*].mobilityType "\"TraCIMobility\""
param *.node[*].mobilityType.debug true
param *.node[*].veinsmobility.x 0
param *.node[*].veinsmobility.y 0
param *.node[*].veinsmobility.z 1.895
param *.node[*].veinsmobilityType "\"org.car2x.veins.modules.mobility.traci.TraCIMobility\""
param *.node[*].veinsmobilityType.debug true
param *.playgroundSizeX 8500m
param *.playgroundSizeY 8500m
param *.playgroundSizeZ 50m
param *.world.use2D false
param *.world.useTorus false

vector 55885  IntersectionExampleScenario.manager  vehiclesinsim  ETV
attr type  int
vector 55886  IntersectionExampleScenario.manager  realtime  ETV
attr type  int
attr unit  s
vector 55889  IntersectionExampleScenario.node[0].veinsmobility  posx  ETV
vector 55890  IntersectionExampleScenario.node[0].veinsmobility  posy  ETV
vector 55891  IntersectionExampleScenario.node[0].veinsmobility  speed  ETV
vector 55892  IntersectionExampleScenario.node[0].veinsmobility  acceleration  ETV
vector 55893  IntersectionExampleScenario.node[0].veinsmobility  co2emission  ETV
vector 55896  IntersectionExampleScenario.node[1].veinsmobility  posx  ETV
vector 55897  IntersectionExampleScenario.node[1].veinsmobility  posy  ETV
vector 55898  IntersectionExampleScenario.node[1].veinsmobility  speed  ETV
vector 55899  IntersectionExampleScenario.node[1].veinsmobility  acceleration  ETV
vector 55900  IntersectionExampleScenario.node[1].veinsmobility  co2emission  ETV
vector 55903  IntersectionExampleScenario.node[2].veinsmobility  posx  ETV
vector 55904  IntersectionExampleScenario.node[2].veinsmobility  posy  ETV
vector 55905  IntersectionExampleScenario.node[2].veinsmobility  speed  ETV
vector 55906  IntersectionExampleScenario.node[2].veinsmobility  acceleration  ETV
vector 55907  IntersectionExampleScenario.node[2].veinsmobility  co2emission  ETV
vector 55910  IntersectionExampleScenario.node[3].veinsmobility  posx  ETV
vector 55911  IntersectionExampleScenario.node[3].veinsmobility  posy  ETV
vector 55912  IntersectionExampleScenario.node[3].veinsmobility  speed  ETV
vector 55913  IntersectionExampleScenario.node[3].veinsmobility  acceleration  ETV
vector 55914  IntersectionExampleScenario.node[3].veinsmobility  co2emission  ETV
vector 55917  IntersectionExampleScenario.node[4].veinsmobility  posx  ETV
vector 55918  IntersectionExampleScenario.node[4].veinsmobility  posy  ETV
vector 55919  IntersectionExampleScenario.node[4].veinsmobility  speed  ETV
vector 55920  IntersectionExampleScenario.node[4].veinsmobility  acceleration  ETV
vector 55921  IntersectionExampleScenario.node[4].veinsmobility  co2emission  ETV
vector 55924  IntersectionExampleScenario.node[5].veinsmobility  posx  ETV
vector 55925  IntersectionExampleScenario.node[5].veinsmobility  posy  ETV
vector 55926  IntersectionExampleScenario.node[5].veinsmobility  speed  ETV
vector 55927  IntersectionExampleScenario.node[5].veinsmobility  acceleration  ETV
vector 55928  IntersectionExampleScenario.node[5].veinsmobility  co2emission  ETV
vector 55931  IntersectionExampleScenario.node[6].veinsmobility  posx  ETV
vector 55932  IntersectionExampleScenario.node[6].veinsmobility  posy  ETV
vector 55933  IntersectionExampleScenario.node[6].veinsmobility  speed  ETV
vector 55934  IntersectionExampleScenario.node[6].veinsmobility  acceleration  ETV
vector 55935  IntersectionExampleScenario.node[6].veinsmobility  co2emission  ETV
vector 55938  IntersectionExampleScenario.node[7].veinsmobility  posx  ETV
vector 55939  IntersectionExampleScenario.node[7].veinsmobility  posy  ETV
vector 55940  IntersectionExampleScenario.node[7].veinsmobility  speed  ETV
vector 55941  IntersectionExampleScenario.node[7].veinsmobility  acceleration  ETV
vector 55942  IntersectionExampleScenario.node[7].veinsmobility  co2emission  ETV
vector 55945  IntersectionExampleScenario.node[8].veinsmobility  posx  ETV
vector 55946  IntersectionExampleScenario.node[8].veinsmobility  posy  ETV
vector 55947  IntersectionExampleScenario.node[8].veinsmobility  speed  ETV
vector 55948  IntersectionExampleScenario.node[8].veinsmobility  acceleration  ETV
vector 55949  IntersectionExampleScenario.node[8].veinsmobility  co2emission  ETV
vector 55952  IntersectionExampleScenario.node[9].veinsmobility  posx  ETV
vector 55953  IntersectionExampleScenario.node[9].veinsmobility  posy  ETV
vector 55954  IntersectionExampleScenario.node[9].veinsmobility  speed  ETV
vector 55955  IntersectionExampleScenario.node[9].veinsmobility  acceleration  ETV
vector 55956  IntersectionExampleScenario.node[9].veinsmobility  co2emission  ETV
vector 55959  IntersectionExampleScenario.node[10].veinsmobility  posx  ETV
vector 55960  IntersectionExampleScenario.node[10].veinsmobility  posy  ETV
vector 55961  IntersectionExampleScenario.node[10].veinsmobility  speed  ETV
vector 55962  IntersectionExampleScenario.node[10].veinsmobility  acceleration  ETV
vector 55963  IntersectionExampleScenario.node[10].veinsmobility  co2emission  ETV
vector 55966  IntersectionExampleScenario.node[11].veinsmobility  posx  ETV
vector 55967  IntersectionExampleScenario.node[11].veinsmobility  posy  ETV
vector 55968  IntersectionExampleScenario.node[11].veinsmobility  speed  ETV
vector 55969  IntersectionExampleScenario.node[11].veinsmobility  acceleration  ETV
vector 55970  IntersectionExampleScenario.node[11].veinsmobility  co2emission  ETV
vector 55973  IntersectionExampleScenario.node[12].veinsmobility  posx  ETV
vector 55974  IntersectionExampleScenario.node[12].veinsmobility  posy  ETV
vector 55975  IntersectionExampleScenario.node[12].veinsmobility  speed  ETV
vector 55976  IntersectionExampleScenario.node[12].veinsmobility  acceleration  ETV
vector 55977  IntersectionExampleScenario.node[12].veinsmobility  co2emission  ETV
55914	8099 4791 142 2591 15.25 53 152 0.94600815583079 12.353032912318 513.60294116636 3058.5241778411
55913	12890 4385 142 2591 15.25 53 152 -3.2212142944336 2.5 41.566686630249 260.62486991409
55912	17275 4640 133 2591 15 53 153 5.6500000953674 16.625 2215.9256944656 33259.472204759
55911	21915 5008 124 2591 14.75 53 154 483.14999389648 735.07942199707 82529.385681152 45161582.054329
55910	26923 4985 124 2591 14.75 53 154 184.17810058594 486.86279296875 61277.633850098 26117918.662685
55893	31908 5404 49 2732 11 55 177 0.973 11.90022389248 559.39303481278 3076.6983449734
55892	37312 5086 49 2732 11 55 177 -8.013355255127 4 39.529638290405 494.85818162182
55891	42398 5329 46 2732 10.75 55 178 0 16 2214.6716985703 31920.742883582
55890	47727 5793 43 2732 10.5 55 179 235.99810791016 785.82187652588 92824.515235901 52248467.974657
55889	53520 5807 43 2732 10.5 55 179 483.14999389648 483.14999389648 86483.848907471 41784671.071789
vector 55980  IntersectionExampleScenario.node[13].veinsmobility  posx  ETV
vector 55981  IntersectionExampleScenario.node[13].veinsmobility  posy  ETV
vector 55982  IntersectionExampleScenario.node[13].veinsmobility  speed  ETV
vector 55983  IntersectionExampleScenario.node[13].veinsmobility  acceleration  ETV
vector 55984  IntersectionExampleScenario.node[13].veinsmobility  co2emission  ETV
vector 55987  IntersectionExampleScenario.node[14].veinsmobility  posx  ETV
vector 55988  IntersectionExampleScenario.node[14].veinsmobility  posy  ETV
vector 55989  IntersectionExampleScenario.node[14].veinsmobility  speed  ETV
vector 55990  IntersectionExampleScenario.node[14].veinsmobility  acceleration  ETV
vector 55991  IntersectionExampleScenario.node[14].veinsmobility  co2emission  ETV
55900	60129 6277 74 3392 12.75 66 214 0.973 11.810082123732 595.0319259185 3075.9332570552
55899	66406 5641 74 3392 12.75 66 214 -6.9388580322266 4 39.869146347046 481.49561179219
55898	72047 5998 69 3392 12.5 66 215 0 15.875 2183.3810305595 31318.381281911
55897	78045 7021 64 3392 12.25 66 216 184.17810058594 483.36395263672 90033.534667969 39481205.745125
55896	85066 6973 64 3392 12.25 66 216 486.85000610352 734.37205505371 113234.36164856 60386760.085714
vector 55994  IntersectionExampleScenario.node[15].veinsmobility  posx  ETV
vector 55995  IntersectionExampleScenario.node[15].veinsmobility  posy  ETV
vector 55996  IntersectionExampleScenario.node[15].veinsmobility  speed  ETV
vector 55997  IntersectionExampleScenario.node[15].veinsmobility  acceleration  ETV
vector 55998  IntersectionExampleScenario.node[15].veinsmobility  co2emission  ETV
55907	92440 6643 103 3473 14 67.25 214 0.973 11.648172402475 591.09500640933 2968.2369939954
55906	99083 6457 103 3473 14 67.25 214 -4.5 2.500000089407 38.171613693237 442.57314559873
55905	105540 6862 96 3473 13.75 67.25 215 0 15.64999961853 2295.9828004111 32194.970237374
55904	112402 7015 89 3473 13.5 67.25 216 162.90466308594 732.09991455078 95944.857803345 47250656.505464
55903	119417 7053 89 3473 13.5 67.25 216 486.85000610352 486.85000610352 105159.60131836 51196952.543686
55921	126470 6446 200 3643 16.75 69.75 213 0.973 11.648172402475 584.28622971274 2947.0323837242
55920	132916 6444 200 3643 16.75 69.75 213 -3.7634317874908 2.5 38.511121749878 364.86887160124
55919	139360 6711 189 3643 16.5 69.75 214 0 15.64999961853 2302.3155937605 31029.542454153
55918	146071 7016 178 3643 16.25 69.75 215 159.31793212891 486.87796020508 86479.341278076 37100957.850296
55917	153087 7030 178 3643 16.25 69.75 215 237.76177978516 486.85000610352 96346.948303223 44234539.972056
vector 56001  IntersectionExampleScenario.node[16].veinsmobility  posx  ETV
vector 56002  IntersectionExampleScenario.node[16].veinsmobility  posy  ETV
vector 56003  IntersectionExampleScenario.node[16].veinsmobility  speed  ETV
vector 56004  IntersectionExampleScenario.node[16].veinsmobility  acceleration  ETV
vector 56005  IntersectionExampleScenario.node[16].veinsmobility  co2emission  ETV
55942	160518 5240 1040 3908 32.25 73.5 166 0.973 11.260672835931 516.31397478225 2918.956084022
55941	165758 4945 1040 3908 32.25 73.5 166 -4.5038185119629 2.5 35.625318527222 285.44895983607
55940	170703 5233 1023 3908 32 73.5 167 5.6500000953674 15.109024047852 2206.3811063766 29900.137249685
55939	175936 5518 1006 3908 31.75 73.5 168 184.17810058594 487.00778198242 66972.701690674 28516137.61894
55938	181454 5538 1006 3908 31.75 73.5 168 236.38366699219 486.85000610352 72983.754608154 32716218.922245
vector 56008  IntersectionExampleScenario.node[17].veinsmobility  posx  ETV
vector 56009  IntersectionExampleScenario.node[17].veinsmobility  posy  ETV
vector 56010  IntersectionExampleScenario.node[17].veinsmobility  speed  ETV
vector 56011  IntersectionExampleScenario.node[17].veinsmobility  acceleration  ETV
vector 56012  IntersectionExampleScenario.node[17].veinsmobility  co2emission  ETV
55928	187393 6438 413 4118 21.5 76.5 221 0.973 12.099024792222 624.2622570954 3160.287446794
55927	193831 6012 413 4118 21.5 76.5 221 -7.0093650817871 4 42.415449142456 488.86058545996
55926	199843 6187 400 4118 21.25 76.5 222 0 16.297636032104 2207.1277725697 32759.012122375
55925	206030 7315 387 4118 21 76.5 223 486.85000610352 486.85000610352 108567.55136108 52856113.042787
55924	213345 7297 387 4118 21 76.5 223 238.26922607422 785.82187652588 114882.01894379 63150283.207045
vector 56015  IntersectionExampleScenario.node[18].veinsmobility  posx  ETV
vector 56016  IntersectionExampleScenario.node[18].veinsmobility  posy  ETV
55935	220796 6333 586 4186 24.75 77.5 212 0.973 11.450879080643 575.44342240934 2839.2061840658
55934	227129 5707 586 4186 24.75 77.5 212 -7.457010269165 4 37.32285118103 472.71634007258
55933	232836 6135 571 4186 24.5 77.5 213 0 15.375 2213.2772502899 30957.844004183
55932	238971 7033 556 4186 24.25 77.5 214 483.14999389648 483.14999389648 103394.09869385 49954858.152865
55931	246004 7002 556 4186 24.25 77.5 214 184.17810058594 733.81198120117 97334.487762451 48496835.9886
vector 56017  IntersectionExampleScenario.node[18].veinsmobility  speed  ETV
vector 56018  IntersectionExampleScenario.node[18].veinsmobility  acceleration  ETV
vector 56019  IntersectionExampleScenario.node[18].veinsmobility  co2emission  ETV
vector 56022  IntersectionExampleScenario.node[19].veinsmobility  posx  ETV
vector 56023  IntersectionExampleScenario.node[19].veinsmobility  posy  ETV
vector 56029  IntersectionExampleScenario.node[20].veinsmobility  posx  ETV
vector 56030  IntersectionExampleScenario.node[20].veinsmobility  posy  ETV
vector 56024  IntersectionExampleScenario.node[19].veinsmobility  speed  ETV
vector 56025  IntersectionExampleScenario.node[19].veinsmobility  acceleration  ETV
vector 56026  IntersectionExampleScenario.node[19].veinsmobility  co2emission  ETV
vector 56031  IntersectionExampleScenario.node[20].veinsmobility  speed  ETV
vector 56032  IntersectionExampleScenario.node[20].veinsmobility  acceleration  ETV
vector 56033  IntersectionExampleScenario.node[20].veinsmobility  co2emission  ETV
55949	254055 6673 1095 5173 33 89.75 228 0.973 11.90022389248 610.90972426492 3133.3023976761
55948	260728 6012 1095 5173 33 89.75 228 -6.9388580322266 4 39.869146347046 486.92859174969
55947	266740 6384 1076 5173 32.75 89.75 229 0 16 2204.3578848839 31907.458465355
55946	273124 7579 1057 5173 32.5 89.75 230 238.82672119141 785.82187652588 118437.84954071 65047054.690955
55945	280703 7591 1057 5173 32.5 89.75 230 483.14999389648 483.14999389648 111124.49859619 53689800.8185
55956	288294 7040 1251 5268 35 91 225 0.973 11.90022389248 624.85195565955 3168.3979977481
55955	295334 6827 1251 5268 35 91 225 -4.5 2.5000019073486 41.057416915894 461.32300981903
55954	302161 7189 1230 5268 34.75 91 226 0 16 2278.520495628 32858.056559408
55953	309350 7467 1209 5268 34.5 91 227 483.13369750977 803.92188262939 126607.28614807 72885272.188076
55952	316817 7482 1209 5268 34.5 91 227 483.14999389648 732.51132202148 117704.23519897 62080299.024173
vector 56036  IntersectionExampleScenario.node[21].veinsmobility  posx  ETV
vector 56037  IntersectionExampleScenario.node[21].veinsmobility  posy  ETV
vector 56038  IntersectionExampleScenario.node[21].veinsmobility  speed  ETV
vector 56039  IntersectionExampleScenario.node[21].veinsmobility  acceleration  ETV
vector 56040  IntersectionExampleScenario.node[21].veinsmobility  co2emission  ETV
vector 56043  IntersectionExampleScenario.node[22].veinsmobility  posx  ETV
vector 56044  IntersectionExampleScenario.node[22].veinsmobility  posy  ETV
vector 56045  IntersectionExampleScenario.node[22].veinsmobility  speed  ETV
vector 56046  IntersectionExampleScenario.node[22].veinsmobility  acceleration  ETV
vector 56047  IntersectionExampleScenario.node[22].veinsmobility  co2emission  ETV
55963	325101 6790 1972 6081 44.75 101.75 229 0.973 11.200708441096 581.18156340137 2718.8487554512
55962	331891 6099 1972 6081 44.75 101.75 229 -7.5492124557495 4 35.964826583862 468.45119503635
55961	337990 6540 1953 6081 44.5 101.75 230 0 15.02499961853 2206.3847746849 30287.269031132
55960	344530 7598 1934 6081 44.25 101.75 231 184.17810058594 732.29058837891 105289.37931824 52254341.8181
55959	352128 7633 1934 6081 44.25 101.75 231 486.85000610352 486.85000610352 112462.35140991 54752296.470331
55970	359761 6343 2440 6156 51 103 209 0.973 11.946976357842 593.21416492782 3011.9854419063
55969	366104 6926 2440 6156 51 103 209 -3.9536418914795 2.5 41.211553573608 364.91767125249
55968	373030 6814 2421 6156 50.75 103 210 0 16.064756393433 2211.3135708123 30713.408681033
55967	379844 6931 2402 6156 50.5 103 211 184.17810058594 732.13421630859 95164.645217896 47005912.811801
55966	386775 6975 2402 6156 50.5 103 211 486.85000610352 486.85000610352 102725.35128784 50011837.901471
vector 56050  IntersectionExampleScenario.node[23].veinsmobility  posx  ETV
vector 56051  IntersectionExampleScenario.node[23].veinsmobility  posy  ETV
vector 56052  IntersectionExampleScenario.node[23].veinsmobility  speed  ETV
vector 56053  IntersectionExampleScenario.node[23].veinsmobility  acceleration  ETV
vector 56054  IntersectionExampleScenario.node[23].veinsmobility  co2emission  ETV
vector 56057  IntersectionExampleScenario.node[24].veinsmobility  posx  ETV
vector 56058  IntersectionExampleScenario.node[24].veinsmobility  posy  ETV
vector 56059  IntersectionExampleScenario.node[24].veinsmobility  speed  ETV
vector 56060  IntersectionExampleScenario.node[24].veinsmobility  acceleration  ETV
vector 56061  IntersectionExampleScenario.node[24].veinsmobility  co2emission  ETV
vector 56064  IntersectionExampleScenario.node[25].veinsmobility  posx  ETV
vector 56065  IntersectionExampleScenario.node[25].veinsmobility  posy  ETV
vector 56066  IntersectionExampleScenario.node[25].veinsmobility  speed  ETV
55977	394784 7013 2515 6552 52 111.75 240 0.973 12.099024792222 638.33841549362 3289.8524759382
55976	401797 6108 2515 6552 52 111.75 240 -28.015514373779 4 41.227170944214 1201.2403693658
55975	407905 6533 2496 6552 51.75 111.75 241 0 16.27499961853 2206.8821048737 32832.311167636
55974	414438 8028 2477 6552 51.5 111.75 242 235.68029785156 486.85000610352 109696.92428589 50809651.451056
55973	422466 8027 2477 6552 51.5 111.75 242 483.14999389648 785.82187652588 131989.20359039 74029952.357013
vector 56067  IntersectionExampleScenario.node[25].veinsmobility  acceleration  ETV
vector 56068  IntersectionExampleScenario.node[25].veinsmobility  co2emission  ETV
55998	430662 5477 3456 6563 67 112 181 0.973 12.553400930962 584.93130630822 3507.7808847954
55997	436139 5410 3456 6563 67 112 181 -2.2398567199707 2.5 44.282735824585 344.79837793996
55996	441549 5860 3439 6563 66.75 112 182 1.7516585588455 16.89999961853 2210.1658667326 31736.828178774
55995	447409 6087 3422 6563 66.5 112 183 486.85000610352 486.85000610352 89093.551116943 43375195.905068
55994	453496 6066 3422 6563 66.5 112 183 238.759765625 785.82187652588 96016.500205994 54236795.977587
55984	459562 6513 3080 6684 60.5 114.75 218 0.973 11.810082123732 599.70195554505 3083.3996134147
55983	466075 5894 3080 6684 60.5 114.75 218 -6.9388580322266 4 39.869146347046 500.33920270217
55982	471969 6239 3063 6684 60.25 114.75 219 0 15.875 2180.902408123 31290.616506178
55981	478208 7313 3046 6684 60 114.75 220 236.89416503906 483.14999389648 98302.218658447 44941151.992745
55980	485521 7294 3046 6684 60 114.75 220 184.17810058594 483.24322509766 91917.762817383 40368738.914556
56005	492815 5552 3851 6786 72.75 117.5 180 0.973 11.810082123732 536.24930599522 2960.4823620863
56004	498367 5649 3851 6786 72.75 117.5 180 -2.0975685119629 2.5 38.511121749878 294.37438078426
56003	504016 5695 3832 6786 72.5 117.5 181 3.9340422153473 15.875 2178.4145815372 29047.54717242
56002	509711 6062 3813 6786 72.25 117.5 182 238.515625 483.14999389648 79878.574371338 36010925.98972
56001	515773 6053 3813 6786 72.25 117.5 182 184.17810058594 483.14999389648 73177.225830078 31198680.148638
56012	521826 5627 4084 6867 76 119.75 176 0.973 11.450879080643 533.57250448345 2860.6418931443
56011	527453 5539 4084 6867 76 119.75 176 -4.3008804321289 2.5 36.813589096069 321.2282766816
56010	532992 5630 4067 6867 75.75 119.75 177 5.6500000953674 15.375 2258.9543170929 30199.308248539
56009	538622 5948 4050 6867 75.5 119.75 178 483.14999389648 734.81791687012 94721.529663086 51441798.028531
56008	544570 5921 4050 6867 75.5 119.75 178 172.9296875 486.85000610352 70522.414001465 29934123.35985
56033	550491 5018 4652 6949 83.5 122 155 0.973 12.099024792222 523.57999217872 2949.6870362789
56032	555509 4754 4652 6949 83.5 122 155 -3.9173240661621 2.5 41.057416915894 304.20441604307
56031	560263 4918 4629 6949 83.25 122 156 5.6500000953674 16.27499961853 2186.1586046219 32205.888735806
56030	565181 5259 4606 6949 83 122 157 486.85000610352 733.72854614258 84348.750534058 46212305.060786
56029	570440 5259 4606 6949 83 122 157 486.85000610352 785.82187652588 89890.891716003 53176884.439989
56019	575699 5540 4224 6949 78 122 177 0.973 11.36141391502 527.04969615434 2790.6486121122
56018	581239 5581 4224 6949 78 122 177 -3.4853324890137 2.5 37.32285118103 273.95142611175
56017	586820 5641 4205 6949 77.75 122 178 5.6500000953674 15.25 2287.3166828156 30859.666353147
56016	592461 5987 4186 6949 77.5 122 179 235.05975341797 483.14999389648 78041.849304199 35018937.442231
56015	598448 5978 4186 6949 77.5 122 179 160.45391845703 483.28814697266 69875.220123291 29435138.692232
vector 56071  IntersectionExampleScenario.node[26].veinsmobility  posx  ETV
vector 56072  IntersectionExampleScenario.node[26].veinsmobility  posy  ETV
vector 56073  IntersectionExampleScenario.node[26].veinsmobility  speed  ETV
vector 56074  IntersectionExampleScenario.node[26].veinsmobility  acceleration  ETV
vector 56075  IntersectionExampleScenario.node[26].veinsmobility  co2emission  ETV
55991	604827 7180 3332 7089 65 125.5 243 0.973 11.36141391502 604.06995336068 2829.969151378
55990	612007 6285 3332 7089 65 125.5 243 -6.998438835144 4 37.492597579956 464.16774825622
55989	618292 6797 3317 7089 64.75 125.5 244 0 15.25 2181.7714481354 30316.949655111
55988	625089 8178 3302 7089 64.5 125.5 245 486.63604736328 785.82187652588 134214.62805939 75578253.783565
55987	633267 8121 3302 7089 64.5 125.5 245 235.78491210938 483.14999389648 110007.43502808 50484605.567509
56026	641388 5587 4629 7177 83.25 127.5 178 0.973 11.648172402475 536.84902930789 2912.229644102
56025	646975 5470 4629 7177 83.25 127.5 178 -2.129093170166 2.5 38.171613693237 294.61775354232
56024	652445 5725 4606 7177 83 127.5 179 3.9442591667175 15.64999961853 2217.2289557457 29835.570453059
56023	658170 6040 4585 7177 82.75 127.5 180 483.13464355469 785.82187652588 102105.59020233 59733828.311614
56022	664210 6040 4585 7177 82.75 127.5 180 483.14999389648 735.22085571289 95534.602539062 51735929.140881
vector 56078  IntersectionExampleScenario.node[27].veinsmobility  posx  ETV
vector 56079  IntersectionExampleScenario.node[27].veinsmobility  posy  ETV
vector 56080  IntersectionExampleScenario.node[27].veinsmobility  speed  ETV
vector 56081  IntersectionExampleScenario.node[27].veinsmobility  acceleration  ETV
vector 56082  IntersectionExampleScenario.node[27].veinsmobility  co2emission  ETV
56040	670651 5161 5329 7353 91.75 131.5 160 0.973 11.450879080643 509.87781085727 2933.9677803837
56039	675812 5011 5329 7353 91.75 131.5 160 -4.1094169616699 2.5 37.32285118103 271.6704363543
56038	680823 5152 5308 7353 91.5 131.5 161 5.6500000953674 15.375 2200.5599393845 30906.842074112
56037	685975 5464 5287 7353 91.25 131.5 162 482.98571777344 785.82187652588 92748.007331848 54887639.960481
56036	691439 5461 5287 7353 91.25 131.5 162 483.14999389648 732.33403015137 86751.321243286 47420847.335824
vector 56085  IntersectionExampleScenario.node[28].veinsmobility  posx  ETV
vector 56086  IntersectionExampleScenario.node[28].veinsmobility  posy  ETV
vector 56087  IntersectionExampleScenario.node[28].veinsmobility  speed  ETV
vector 56088  IntersectionExampleScenario.node[28].veinsmobility  acceleration  ETV
vector 56089  IntersectionExampleScenario.node[28].veinsmobility  co2emission  ETV
vector 56092  IntersectionExampleScenario.node[29].veinsmobility  posx  ETV
vector 56093  IntersectionExampleScenario.node[29].veinsmobility  posy  ETV
vector 56094  IntersectionExampleScenario.node[29].veinsmobility  speed  ETV
vector 56095  IntersectionExampleScenario.node[29].veinsmobility  acceleration  ETV
vector 56096  IntersectionExampleScenario.node[29].veinsmobility  co2emission  ETV
vector 56099  IntersectionExampleScenario.node[30].veinsmobility  posx  ETV
vector 56100  IntersectionExampleScenario.node[30].veinsmobility  posy  ETV
vector 56101  IntersectionExampleScenario.node[30].veinsmobility  speed  ETV
vector 56102  IntersectionExampleScenario.node[30].veinsmobility  acceleration  ETV
vector 56103  IntersectionExampleScenario.node[30].veinsmobility  co2emission  ETV
vector 56106  IntersectionExampleScenario.node[31].veinsmobility  posx  ETV
vector 56107  IntersectionExampleScenario.node[31].veinsmobility  posy  ETV
56047	698257 6092 5950 8148 99.75 147.5 192 0.973 11.450879080643 555.98342240934 2820.2716040658
56046	704349 5546 5950 8148 99.75 147.5 192 -7.457010269165 4 37.32285118103 472.71634007258
56045	709895 5975 5933 8148 99.5 147.5 193 0 15.375 2213.2772502899 30957.844004183
56044	715870 6594 5916 8148 99.25 147.5 194 483.14999389648 483.14999389648 93731.098815918 45286179.820821
56043	722464 6563 5916 8148 99.25 147.5 194 184.17810058594 733.81198120117 87902.487640381 44048704.673463
vector 56108  IntersectionExampleScenario.node[31].veinsmobility  speed  ETV
56054	729105 5540 6299 8163 105.75 147.75 169 0.973 11.00486315618 492.25202656889 2398.8185674569
56053	734645 5053 6299 8163 105.75 147.75 169 -3.2281761169434 2.5 34.437047958374 266.96540941445
56052	739698 5546 6286 8163 105.5 147.75 170 5.6500000953674 14.75 2206.8623642921 29631.662245547
56051	745244 5814 6273 8163 105.25 147.75 171 236.40014648438 486.85000610352 74271.150512695 33288078.860841
56050	751058 5807 6273 8163 105.25 147.75 171 483.14999389648 785.82187652588 97464.626525879 57407063.782084
vector 56109  IntersectionExampleScenario.node[31].veinsmobility  acceleration  ETV
vector 56110  IntersectionExampleScenario.node[31].veinsmobility  co2emission  ETV
vector 56113  IntersectionExampleScenario.node[32].veinsmobility  posx  ETV
vector 56114  IntersectionExampleScenario.node[32].veinsmobility  posy  ETV
vector 56115  IntersectionExampleScenario.node[32].veinsmobility  speed  ETV
vector 56116  IntersectionExampleScenario.node[32].veinsmobility  acceleration  ETV
vector 56117  IntersectionExampleScenario.node[32].veinsmobility  co2emission  ETV
vector 56120  IntersectionExampleScenario.node[33].veinsmobility  posx  ETV
vector 56121  IntersectionExampleScenario.node[33].veinsmobility  posy  ETV
vector 56122  IntersectionExampleScenario.node[33].veinsmobility  speed  ETV
vector 56123  IntersectionExampleScenario.node[33].veinsmobility  acceleration  ETV
vector 56124  IntersectionExampleScenario.node[33].veinsmobility  co2emission  ETV
vector 56127  IntersectionExampleScenario.node[34].veinsmobility  posx  ETV
vector 56128  IntersectionExampleScenario.node[34].veinsmobility  posy  ETV
vector 56129  IntersectionExampleScenario.node[34].veinsmobility  speed  ETV
vector 56130  IntersectionExampleScenario.node[34].veinsmobility  acceleration  ETV
vector 56131  IntersectionExampleScenario.node[34].veinsmobility  co2emission  ETV
56061	758237 6277 6489 8964 110.25 160.25 201 0.973 11.648172402475 570.61072639663 2930.1842526755
56060	764514 5791 6489 8964 110.25 160.25 201 -7.4922199249268 4 38.171613693237 481.23603371837
56059	770305 6098 6478 8964 110 160.25 202 0 15.64999961853 2197.6315107346 30998.858005783
56058	776403 6890 6467 8964 109.75 160.25 203 483.14999389648 785.82187652588 112932.32759857 64782949.453501
56057	783293 6898 6467 8964 109.75 160.25 203 483.14999389648 732.16635131836 106440.39103699 56853643.904247
vector 56134  IntersectionExampleScenario.node[35].veinsmobility  posx  ETV
vector 56135  IntersectionExampleScenario.node[35].veinsmobility  posy  ETV
vector 56136  IntersectionExampleScenario.node[35].veinsmobility  speed  ETV
vector 56137  IntersectionExampleScenario.node[35].veinsmobility  acceleration  ETV
vector 56138  IntersectionExampleScenario.node[35].veinsmobility  co2emission  ETV
vector 56141  IntersectionExampleScenario.node[36].veinsmobility  posx  ETV
vector 56142  IntersectionExampleScenario.node[36].veinsmobility  posy  ETV
vector 56148  IntersectionExampleScenario.node[37].veinsmobility  posx  ETV
vector 56149  IntersectionExampleScenario.node[37].veinsmobility  posy  ETV
vector 56143  IntersectionExampleScenario.node[36].veinsmobility  speed  ETV
vector 56150  IntersectionExampleScenario.node[37].veinsmobility  speed  ETV
vector 56144  IntersectionExampleScenario.node[36].veinsmobility  acceleration  ETV
vector 56145  IntersectionExampleScenario.node[36].veinsmobility  co2emission  ETV
vector 56151  IntersectionExampleScenario.node[37].veinsmobility  acceleration  ETV
vector 56152  IntersectionExampleScenario.node[37].veinsmobility  co2emission  ETV
56068	791394 7297 6563 9597 112 172 241 0.973 11.200708441096 592.42327713397 2728.0126697353
56067	798691 6590 6563 9597 112 172 241 -8.6544380187988 4 35.795072555542 478.35016826786
56066	805281 7009 6552 9597 111.75 172 242 0 15.02499961853 2218.0963425636 30381.5057129
56065	812290 8239 6541 9597 111.5 172 243 184.17810058594 735.35032653809 111171.98596191 55200526.95833
56064	820529 8261 6541 9597 111.5 172 243 486.85000610352 486.85000610352 118304.55148315 57596571.611647
vector 56155  IntersectionExampleScenario.node[38].veinsmobility  posx  ETV
vector 56156  IntersectionExampleScenario.node[38].veinsmobility  posy  ETV
56075	828944 6024 7034 9631 124.25 172.5 194 0.973 11.648172402475 549.94951854693 2877.6864565171
56074	834968 6139 7034 9631 124.25 172.5 194 -2.0975685119629 2.5000004768372 38.511121749878 308.39643155702
56073	841107 6370 7023 9631 124 172.5 195 1.4097660779953 15.64999961853 2200.8355170488 29327.079044149
56072	847477 6634 7012 9631 123.75 172.5 196 184.17810058594 487.01232910156 79841.321685791 34379586.475183
56071	854111 6654 7012 9631 123.75 172.5 196 237.76257324219 486.85000610352 87099.762359619 39733938.353054
vector 56157  IntersectionExampleScenario.node[38].veinsmobility  speed  ETV
vector 56158  IntersectionExampleScenario.node[38].veinsmobility  acceleration  ETV
vector 56159  IntersectionExampleScenario.node[38].veinsmobility  co2emission  ETV
vector 56162  IntersectionExampleScenario.node[39].veinsmobility  posx  ETV
vector 56163  IntersectionExampleScenario.node[39].veinsmobility  posy  ETV
vector 56164  IntersectionExampleScenario.node[39].veinsmobility  speed  ETV
vector 56165  IntersectionExampleScenario.node[39].veinsmobility  acceleration  ETV
vector 56166  IntersectionExampleScenario.node[39].veinsmobility  co2emission  ETV
56082	861413 5615 7332 9835 131 175 177 0.973 11.648172402475 532.90226905447 2892.6107351818
56081	867028 5390 7332 9835 131 175 177 -2.4439544677734 2.5 39.020376205444 276.28946961161
56080	872418 5750 7321 9835 130.75 175 178 5.6500000953674 15.64999961853 2208.8750395775 29401.865283674
56079	878168 6054 7309 9835 130.5 175 179 184.17810058594 487.06533813477 71608.236053467 30433155.656296
56078	884222 6070 7309 9835 130.5 175 179 236.52294921875 486.85000610352 78804.675598145 35695739.098078
vector 56169  IntersectionExampleScenario.node[40].veinsmobility  posx  ETV
vector 56170  IntersectionExampleScenario.node[40].veinsmobility  posy  ETV
vector 56171  IntersectionExampleScenario.node[40].veinsmobility  speed  ETV
vector 56172  IntersectionExampleScenario.node[40].veinsmobility  acceleration  ETV
vector 56173  IntersectionExampleScenario.node[40].veinsmobility  co2emission  ETV
56089	890693 5663 7420 9971 133.25 176.5 174 0.973 11.648172402475 559.37139451147 2973.5596969437
56088	896356 5360 7420 9971 133.25 176.5 174 -4.5 2.5 41.566686630249 331.50219423764
56087	901716 5644 7409 9971 133 176.5 175 5.1664991378784 16.074739456177 2282.2518877983 31915.153435042
56086	907360 5953 7398 9971 132.75 176.5 176 167.29217529297 486.85000610352 69350.859619141 29344433.245605
56085	913313 5980 7398 9971 132.75 176.5 176 235.36724853516 486.85000610352 77564.879302979 35165508.806375
56103	919293 5367 7978 10567 144.25 184.5 162 0.973 11.36141391502 499.30976992753 2624.778497
56102	924660 4929 7978 10567 144.25 184.5 162 -3.3709182739258 2.5 36.98334312439 267.39220883773
56101	929589 5265 7963 10567 144 184.5 163 5.6500000953674 15.25 2181.7171850204 30422.102189888
56100	934854 5602 7948 10567 143.75 184.5 164 237.39172363281 483.14999389648 70916.317474365 31603668.607542
56099	940456 5578 7948 10567 143.75 184.5 164 184.17810058594 483.14999389648 65198.770324707 27682121.594315
vector 56176  IntersectionExampleScenario.node[41].veinsmobility  posx  ETV
vector 56177  IntersectionExampleScenario.node[41].veinsmobility  posy  ETV
vector 56178  IntersectionExampleScenario.node[41].veinsmobility  speed  ETV
vector 56179  IntersectionExampleScenario.node[41].veinsmobility  acceleration  ETV
vector 56180  IntersectionExampleScenario.node[41].veinsmobility  co2emission  ETV
56124	946435 4964 8638 11112 155 192 149 0.973 12.553400930962 521.46358148399 3223.7543189028
56123	951399 4785 8638 11112 155 192 149 -3.6784934997559 2.5 42.924703598022 280.11343795978
56122	956184 4853 8619 11112 154.75 192 150 5.6500000953674 16.89999961853 2202.449930191 33616.49537147
56121	961037 5187 8600 11112 154.5 192 151 238.44323730469 486.85000610352 65755.597259521 29516517.436527
56120	966224 5178 8600 11112 154.5 192 151 483.14999389648 785.82187652588 86461.060905457 51218497.883212
56096	971402 7194 7545 11293 136 195 237 0.973 11.810082123732 615.66049147058 3090.8900940216
56095	978596 6562 7545 11293 136 195 237 -7.2641291618347 4 39.699392318726 483.2908312258
56094	985158 6833 7532 11293 135.75 195 238 0 15.875 2180.8750771284 31208.168482518
56093	991991 8193 7519 11293 135.5 195 239 486.63604736328 785.82187652588 130969.93000031 73786943.554148
56092	1000184 8132 7519 11293 135.5 195 239 236.12365722656 483.14999389648 107409.9876709 49322522.477263
56110	1008316 6095 8178 11383 148 196.5 195 0.973 11.90022389248 557.38538908851 3003.3768289578
56109	1014411 6385 8178 11383 148 196.5 195 -2.1426239013672 2.5000009536743 39.020376205444 318.62221932116
56108	1020796 6490 8163 11383 147.75 196.5 196 1.2547438144684 16 2210.4078998566 29676.240656439
56107	1027286 6769 8148 11383 147.5 196.5 197 482.9736328125 785.82187652588 110726.76712799 64093520.357227
56106	1034055 6773 8148 11383 147.5 196.5 197 483.14999389648 734.35054016113 103569.13246155 55497014.853368
vector 56183  IntersectionExampleScenario.node[42].veinsmobility  posx  ETV
vector 56184  IntersectionExampleScenario.node[42].veinsmobility  posy  ETV
vector 56185  IntersectionExampleScenario.node[42].veinsmobility  speed  ETV
vector 56186  IntersectionExampleScenario.node[42].veinsmobility  acceleration  ETV
vector 56187  IntersectionExampleScenario.node[42].veinsmobility  co2emission  ETV
vector 56190  IntersectionExampleScenario.node[43].veinsmobility  posx  ETV
vector 56191  IntersectionExampleScenario.node[43].veinsmobility  posy  ETV
vector 56192  IntersectionExampleScenario.node[43].veinsmobility  speed  ETV
vector 56193  IntersectionExampleScenario.node[43].veinsmobility  acceleration  ETV
vector 56194  IntersectionExampleScenario.node[43].veinsmobility  co2emission  ETV
vector 56197  IntersectionExampleScenario.node[44].veinsmobility  posx  ETV
vector 56198  IntersectionExampleScenario.node[44].veinsmobility  posy  ETV
vector 56199  IntersectionExampleScenario.node[44].veinsmobility  speed  ETV
vector 56200  IntersectionExampleScenario.node[44].veinsmobility  acceleration  ETV
vector 56201  IntersectionExampleScenario.node[44].veinsmobility  co2emission  ETV
56117	1042031 6996 8362 11768 151 206.75 224 0.973 11.200708441096 575.64044376069 2693.4120604014
56116	1049027 6400 8362 11768 151 206.75 224 -8.817081451416 4 36.134572982788 469.56263670059
56115	1055427 6746 8345 11768 150.75 206.75 225 0 15.02499961853 2197.2257316113 30078.361975184
56114	1062173 7779 8328 11768 150.5 206.75 226 184.17810058594 486.85000610352 94568.310516357 41618706.438458
56113	1069952 7802 8328 11768 150.5 206.75 226 237.55419921875 486.85000610352 101371.17196655 46576980.693812
56131	1077754 6087 8934 11813 159.75 208 194 0.96333723109819 12.099024792222 561.79146886045 2979.8067220262
56130	1083841 6634 8934 11813 159.75 208 194 -2.2207565307617 2.5 40.880159378052 293.2235619758
56129	1090475 6557 8919 11813 159.5 208 195 1.4658231735229 16.27499961853 2204.3095195293 29830.607007981
56128	1097032 6761 8904 11813 159.25 208 196 184.17810058594 487.09664916992 80041.305999756 34530892.118655
56127	1103793 6783 8904 11813 159.25 208 196 237.42639160156 486.85000610352 87253.125793457 39855470.770178
vector 56204  IntersectionExampleScenario.node[45].veinsmobility  posx  ETV
vector 56205  IntersectionExampleScenario.node[45].veinsmobility  posy  ETV
vector 56206  IntersectionExampleScenario.node[45].veinsmobility  speed  ETV
vector 56207  IntersectionExampleScenario.node[45].veinsmobility  acceleration  ETV
vector 56208  IntersectionExampleScenario.node[45].veinsmobility  co2emission  ETV
vector 56211  IntersectionExampleScenario.node[46].veinsmobility  posx  ETV
vector 56212  IntersectionExampleScenario.node[46].veinsmobility  posy  ETV
vector 56213  IntersectionExampleScenario.node[46].veinsmobility  speed  ETV
vector 56218  IntersectionExampleScenario.node[47].veinsmobility  posx  ETV
vector 56219  IntersectionExampleScenario.node[47].veinsmobility  posy  ETV
vector 56214  IntersectionExampleScenario.node[46].veinsmobility  acceleration  ETV
vector 56215  IntersectionExampleScenario.node[46].veinsmobility  co2emission  ETV
vector 56220  IntersectionExampleScenario.node[47].veinsmobility  speed  ETV
vector 56221  IntersectionExampleScenario.node[47].veinsmobility  acceleration  ETV
vector 56222  IntersectionExampleScenario.node[47].veinsmobility  co2emission  ETV
vector 56225  IntersectionExampleScenario.node[48].veinsmobility  posx  ETV
vector 56226  IntersectionExampleScenario.node[48].veinsmobility  posy  ETV
vector 56227  IntersectionExampleScenario.node[48].veinsmobility  speed  ETV
vector 56228  IntersectionExampleScenario.node[48].veinsmobility  acceleration  ETV
vector 56229  IntersectionExampleScenario.node[48].veinsmobility  co2emission  ETV
vector 56232  IntersectionExampleScenario.node[49].veinsmobility  posx  ETV
vector 56233  IntersectionExampleScenario.node[49].veinsmobility  posy  ETV
vector 56234  IntersectionExampleScenario.node[49].veinsmobility  speed  ETV
vector 56239  IntersectionExampleScenario.node[50].veinsmobility  posx  ETV
vector 56240  IntersectionExampleScenario.node[50].veinsmobility  posy  ETV
vector 56235  IntersectionExampleScenario.node[49].veinsmobility  acceleration  ETV
vector 56236  IntersectionExampleScenario.node[49].veinsmobility  co2emission  ETV
56166	1112735 5280 9730 12107 173.75 213 158 0.973 12.060087708356 546.12811753076 3363.7729806066
56165	1118015 5034 9730 12107 173.75 213 158 -4.1814880371094 2.5000038146973 39.869146347046 340.72209737113
56164	1123049 5221 9709 12107 173.5 213 159 5.6500000953674 16.22119140625 2190.2913942337 31619.735310132
56163	1128270 5554 9688 12107 173.25 213 160 184.17810058594 483.14999389648 63576.970611572 26989489.139114
56162	1133824 5582 9688 12107 173.25 213 160 486.85000610352 734.75064086914 85997.350570679 47145497.64179
vector 56246  IntersectionExampleScenario.node[51].veinsmobility  posx  ETV
vector 56247  IntersectionExampleScenario.node[51].veinsmobility  posy  ETV
vector 56241  IntersectionExampleScenario.node[50].veinsmobility  speed  ETV
vector 56253  IntersectionExampleScenario.node[52].veinsmobility  posx  ETV
vector 56254  IntersectionExampleScenario.node[52].veinsmobility  posy  ETV
vector 56242  IntersectionExampleScenario.node[50].veinsmobility  acceleration  ETV
vector 56243  IntersectionExampleScenario.node[50].veinsmobility  co2emission  ETV
vector 56248  IntersectionExampleScenario.node[51].veinsmobility  speed  ETV
56173	1140039 5169 9902 12151 175.75 213.5 152 0.973 12.44402232946 551.88384842394 3327.2774065672
56172	1145208 4910 9902 12151 175.75 213.5 152 -4.5 2.5 42.924703598022 301.93436743092
56171	1150118 5100 9879 12151 175.5 213.5 153 5.6500000953674 16.75 2287.2072792053 35098.482745622
56170	1155218 5346 9856 12151 175.25 213.5 154 166.078125 731.81271362305 67280.027008057 33699864.066225
56169	1160564 5384 9856 12151 175.25 213.5 154 486.85000610352 486.85000610352 74974.900939941 36501530.980221
vector 56249  IntersectionExampleScenario.node[51].veinsmobility  acceleration  ETV
vector 56250  IntersectionExampleScenario.node[51].veinsmobility  co2emission  ETV
vector 56255  IntersectionExampleScenario.node[52].veinsmobility  speed  ETV
vector 56256  IntersectionExampleScenario.node[52].veinsmobility  acceleration  ETV
vector 56257  IntersectionExampleScenario.node[52].veinsmobility  co2emission  ETV
56138	1166364 6373 9350 12480 167.5 217 199 0.973 11.810082123732 580.4369259185 3061.7323220552
56137	1172737 5797 9350 12480 167.5 217 199 -6.9388580322266 4 39.869146347046 481.49561185204
56136	1178534 6156 9335 12480 167.25 217 200 0 15.875 2183.3810286522 31318.381264493
56135	1184690 6924 9320 12480 167 217 201 235.62799072266 483.14999389648 89038.38861084 40444989.833781
56134	1191614 6971 9320 12480 167 217 201 184.17810058594 483.36395263672 82959.534576416 36145107.258772
56145	1198585 5989 9580 12503 171.75 217.25 183 0.973 11.810082123732 563.11849147058 3039.7667280216
56144	1204574 5573 9580 12503 171.75 217.25 183 -7.2641291618347 4 39.699392318726 483.2908312258
56143	1210147 5843 9563 12503 171.5 217.25 184 0 15.875 2180.8750771284 31208.168482518
56142	1215990 6384 9546 12503 171.25 217.25 185 486.85000610352 733.87629699707 98130.111938477 53023008.177225
56141	1222374 6448 9546 12503 171.25 217.25 185 486.63604736328 785.82187652588 104056.3303299 60373205.642683
56152	1228822 6139 9580 12641 171.75 218.75 189 0.973 11.200708441096 530.16789625072 2628.3302799919
56151	1234961 6266 9580 12641 171.75 218.75 189 -2.6741790771484 2.5 36.134572982788 307.90767336327
56150	1241227 6489 9563 12641 171.5 218.75 190 1.3704650402069 15.02499961853 2228.1810746193 29720.074848817
56149	1247716 6664 9546 12641 171.25 218.75 191 483.14999389648 483.14999389648 92281.648834229 44585878.071015
56148	1254380 6623 9546 12641 171.25 218.75 191 179.81719970703 732.17556762695 85570.492156982 42668903.096311
56159	1261003 6184 9669 12664 173 219 185 0.973 11.136667652358 546.70304601881 2670.7858333438
56158	1267187 5627 9669 12664 173 219 185 -4.5 2.5 36.813589096069 393.1956448368
56157	1272814 6358 9650 12664 172.75 219 186 0.95035803318024 14.935172080994 2298.7716035843 31590.238399666
56156	1279172 6526 9631 12664 172.5 219 187 486.85000610352 486.85000610352 91040.951141357 44323287.61884
56155	1285698 6472 9631 12664 172.5 219 187 236.91662597656 807.09531402588 98868.591445923 56995694.850809
vector 56260  IntersectionExampleScenario.node[53].veinsmobility  posx  ETV
vector 56261  IntersectionExampleScenario.node[53].veinsmobility  posy  ETV
vector 56262  IntersectionExampleScenario.node[53].veinsmobility  speed  ETV
vector 56263  IntersectionExampleScenario.node[53].veinsmobility  acceleration  ETV
vector 56264  IntersectionExampleScenario.node[53].veinsmobility  co2emission  ETV
56180	1292571 5654 10707 13609 186.5 229.25 172 0.973 12.553400930962 581.23782115442 3511.0732699023
56179	1298225 5415 10707 13609 186.5 229.25 172 -8.2047395706177 4 42.585195541382 534.82423760413
56178	1303640 5587 10688 13609 186.25 229.25 173 0 16.89999961853 2207.4961731434 33150.585309081
56177	1309227 6065 10669 13609 186 229.25 174 238.02075195312 785.82187652588 90474.661735535 50976570.643207
56176	1315292 6089 10669 13609 186 229.25 174 483.14999389648 483.14999389648 84068.098937988 40617501.488778
vector 56267  IntersectionExampleScenario.node[54].veinsmobility  posx  ETV
vector 56268  IntersectionExampleScenario.node[54].veinsmobility  posy  ETV
vector 56274  IntersectionExampleScenario.node[55].veinsmobility  posx  ETV
vector 56275  IntersectionExampleScenario.node[55].veinsmobility  posy  ETV
vector 56269  IntersectionExampleScenario.node[54].veinsmobility  speed  ETV
vector 56281  IntersectionExampleScenario.node[56].veinsmobility  posx  ETV
vector 56282  IntersectionExampleScenario.node[56].veinsmobility  posy  ETV
vector 56270  IntersectionExampleScenario.node[54].veinsmobility  acceleration  ETV
vector 56271  IntersectionExampleScenario.node[54].veinsmobility  co2emission  ETV
vector 56276  IntersectionExampleScenario.node[55].veinsmobility  speed  ETV
vector 56277  IntersectionExampleScenario.node[55].veinsmobility  acceleration  ETV
vector 56278  IntersectionExampleScenario.node[55].veinsmobility  co2emission  ETV
vector 56283  IntersectionExampleScenario.node[56].veinsmobility  speed  ETV
vector 56284  IntersectionExampleScenario.node[56].veinsmobility  acceleration  ETV
vector 56285  IntersectionExampleScenario.node[56].veinsmobility  co2emission  ETV
56187	1322584 5275 11599 14541 201 239.5 155 0.973 11.90022389248 500.52554855579 2781.3659964429
56186	1327859 4779 11599 14541 201 239.5 155 -3.2846527099609 2.5 39.869146347046 241.68198894314
56185	1332638 5161 11589 14541 200.75 239.5 156 5.6500000953674 16 2213.0224189758 32437.108865515
56184	1337799 5487 11577 14541 200.5 239.5 157 483.14999389648 785.82187652588 89785.977348328 53106735.302482
56183	1343286 5485 11577 14541 200.5 239.5 157 483.14999389648 734.23085021973 84137.686340332 46037686.260597
vector 56288  IntersectionExampleScenario.node[57].veinsmobility  posx  ETV
vector 56289  IntersectionExampleScenario.node[57].veinsmobility  posy  ETV
vector 56290  IntersectionExampleScenario.node[57].veinsmobility  speed  ETV
vector 56291  IntersectionExampleScenario.node[57].veinsmobility  acceleration  ETV
vector 56292  IntersectionExampleScenario.node[57].veinsmobility  co2emission  ETV
56201	1349172 5340 11759 14905 206.5 245.25 156 0.973 11.54047740176 464.63231158543 2336.4085283449
56200	1354512 4773 11759 14905 206.5 245.25 156 -2.906135559082 2.5 37.32285118103 179.22973075835
56199	1359285 5260 11750 14905 206.25 245.25 157 5.6500000953674 15.5 2216.590294838 31875.992361842
56198	1364545 5456 11741 14905 206 245.25 158 184.17810058594 733.22798156738 70908.541702271 36014724.094117
56197	1370001 5529 11741 14905 206 245.25 158 486.85000610352 486.85000610352 76922.300964355 37449622.693993
56229	1375530 4927 11984 15025 211.25 247.25 145 0.973 12.353032912318 514.84496715473 2995.9886351509
56228	1380457 4729 11984 15025 211.25 247.25 145 -4.0000381469727 2.5 42.415441513062 278.99188640213
56227	1385186 4800 11967 15025 211 247.25 146 5.6500000953674 16.625 2112.8318939209 31744.094478604
56226	1389986 5131 11950 15025 210.75 247.25 147 208.02264404297 486.87966918945 59731.800811768 25680663.845334
56225	1395117 5142 11950 15025 210.75 247.25 147 236.81433105469 486.85000610352 63656.478302002 28455414.943128
56257	1400259 4996 12201 15204 214 250.5 147 0.973 12.553400930962 529.87866201851 3273.2731256903
56256	1405255 4574 12201 15204 214 250.5 147 -2.9489440917969 2.5 44.112981796265 270.95842359163
56255	1409829 4927 12176 15204 213.75 250.5 148 5.6500000953674 16.89999961853 2213.964969635 34262.781132855
56254	1414756 5215 12151 15204 213.5 250.5 149 483.14999389648 483.14999389648 71989.349090576 34781653.573724
56253	1419971 5186 12151 15204 213.5 250.5 149 184.17810058594 731.84802246094 66447.45425415 33493908.197828
56222	1425157 5601 11920 15226 210.25 251 164 0.973 11.093806525473 480.75796346152 2314.6174457186
56221	1430758 5189 11920 15226 210.25 251 164 -3.6820259094238 2.5 36.813589096069 192.19403308339
56220	1435947 5559 11905 15226 210 251 165 5.6500000953674 15.243385314941 2253.2846136093 31663.448146796
56219	1441506 5796 11890 15226 209.75 251 166 176.21716308594 734.80163574219 72942.203643799 36742062.726994
56218	1447302 5809 11890 15226 209.75 251 166 486.85000610352 486.85000610352 80817.101013184 39345806.121537
56243	1453111 5334 12151 15329 213.5 253.5 161 0.973 12.80944146078 573.17925255259 3338.8882320156
56242	1458445 4949 12151 15329 213.5 253.5 161 -4.5 2.5 44.112981796265 541.57321070926
56241	1463394 5175 12128 15329 213.25 253.5 162 0 17.25 2073.2544192076 30885.770722782
56240	1468569 5685 12107 15329 213 253.5 163 239.34844970703 486.85000610352 71786.695739746 32508569.841653
56239	1474254 5695 12107 15329 213 253.5 163 482.95455932617 755.28204345703 90482.911140442 51597527.987576
56208	1479949 5981 11853 15338 209 253.75 180 0.973 11.36141391502 537.36206206791 2749.2426817201
56207	1485930 5565 11853 15338 209 253.75 180 -8.2099418640137 4 36.813589096069 481.06962067089
56206	1491495 5867 11842 15338 208.75 253.75 181 0 15.25 2172.3059687614 29932.842901098
56205	1497362 6306 11831 15338 208.5 253.75 182 486.85000610352 732.10182189941 96917.061645508 52585745.491875
56204	1503668 6364 11831 15338 208.5 253.75 182 486.63604736328 785.82187652588 102896.07541656 60022480.067802
vector 56295  IntersectionExampleScenario.node[58].veinsmobility  posx  ETV
vector 56296  IntersectionExampleScenario.node[58].veinsmobility  posy  ETV
vector 56297  IntersectionExampleScenario.node[58].veinsmobility  speed  ETV
vector 56298  IntersectionExampleScenario.node[58].veinsmobility  acceleration  ETV
vector 56299  IntersectionExampleScenario.node[58].veinsmobility  co2emission  ETV
56215	1510433 6227 11890 15468 209.75 256.75 189 0.973 11.36141391502 639.15443532426 3501.692584741
56214	1516660 5907 11890 15468 209.75 256.75 189 -4.5 2.5000009536743 40.038900375366 552.40701341321
56213	1522567 6330 11877 15468 209.5 256.75 190 2.7676818370819 15.669075965881 2284.0877437592 30856.921832401
56212	1528897 6679 11864 15468 209.25 256.75 191 486.85000610352 735.0478515625 101098.50192261 54503591.119709
56211	1535576 6675 11864 15468 209.25 256.75 191 486.83605957031 808.82032012939 111175.25576019 67085412.158231
vector 56302  IntersectionExampleScenario.node[59].veinsmobility  posx  ETV
vector 56303  IntersectionExampleScenario.node[59].veinsmobility  posy  ETV
vector 56304  IntersectionExampleScenario.node[59].veinsmobility  speed  ETV
vector 56305  IntersectionExampleScenario.node[59].veinsmobility  acceleration  ETV
vector 56306  IntersectionExampleScenario.node[59].veinsmobility  co2emission  ETV
56236	1542652 6352 12107 15642 213 260.5 191 0.973 10.916047529558 535.59833587626 2510.7888263914
56235	1549004 6335 12107 15642 213 260.5 191 -3.151424407959 2.5 35.285810470581 273.30364668707
56234	1555339 6431 12088 15642 212.75 260.5 192 5.6500000953674 14.836005210876 2276.316737175 28983.070459299
56233	1561770 6749 12069 15642 212.5 260.5 193 486.85000610352 733.98580932617 102611.45378113 55590197.396852
56232	1568519 6740 12069 15642 212.5 260.5 193 486.85000610352 808.56954193115 112138.43769836 67494306.399795
vector 56309  IntersectionExampleScenario.node[60].veinsmobility  posx  ETV
vector 56310  IntersectionExampleScenario.node[60].veinsmobility  posy  ETV
vector 56311  IntersectionExampleScenario.node[60].veinsmobility  speed  ETV
vector 56312  IntersectionExampleScenario.node[60].veinsmobility  acceleration  ETV
vector 56313  IntersectionExampleScenario.node[60].veinsmobility  co2emission  ETV
56194	1575660 7567 11699 15836 204.5 265.25 244 0.97223939240464 11.810082123732 619.66446277683 3094.5875984904
56193	1583227 7085 11699 15836 204.5 265.25 244 -7.1854238510132 4 38.680875778198 489.20708312784
56192	1590312 7190 11692 15836 204.25 265.25 245 0 15.875 2222.8552155495 31513.892621594
56191	1597502 8602 11685 15836 204 265.25 246 486.63604736328 795.46562957764 135352.26351929 76687084.710521
56190	1606104 8539 11685 15836 204 265.25 246 235.25335693359 483.14999389648 110614.84783936 50820447.606545
vector 56316  IntersectionExampleScenario.node[61].veinsmobility  posx  ETV
vector 56317  IntersectionExampleScenario.node[61].veinsmobility  posy  ETV
vector 56318  IntersectionExampleScenario.node[61].veinsmobility  speed  ETV
vector 56323  IntersectionExampleScenario.node[62].veinsmobility  posx  ETV
vector 56324  IntersectionExampleScenario.node[62].veinsmobility  posy  ETV
vector 56319  IntersectionExampleScenario.node[61].veinsmobility  acceleration  ETV
vector 56320  IntersectionExampleScenario.node[61].veinsmobility  co2emission  ETV
vector 56325  IntersectionExampleScenario.node[62].veinsmobility  speed  ETV
vector 56326  IntersectionExampleScenario.node[62].veinsmobility  acceleration  ETV
vector 56327  IntersectionExampleScenario.node[62].veinsmobility  co2emission  ETV
56250	1615445 6797 12176 15894 213.75 266.5 212 0.973 11.54047740176 563.47847130969 2796.1044405716
56249	1622242 6987 12176 15894 213.75 266.5 212 -3.9852674007416 2.5 37.32285118103 332.67993090074
56248	1629229 7299 12151 15894 213.5 266.5 213 0 15.5 2215.8172337562 29284.586643642
56247	1636528 7461 12128 15894 213.25 266.5 214 236.62677001953 785.82187652588 111238.69164276 62033826.748902
56246	1643989 7491 12128 15894 213.25 266.5 214 483.14999389648 483.14999389648 103394.09869385 49954858.152865
vector 56330  IntersectionExampleScenario.node[63].veinsmobility  posx  ETV
vector 56331  IntersectionExampleScenario.node[63].veinsmobility  posy  ETV
vector 56332  IntersectionExampleScenario.node[63].veinsmobility  speed  ETV
vector 56333  IntersectionExampleScenario.node[63].veinsmobility  acceleration  ETV
vector 56334  IntersectionExampleScenario.node[63].veinsmobility  co2emission  ETV
56264	1651881 5844 13104 15997 223.75 268.25 179 0.973 11.648172402475 541.30369460485 2877.418095429
56263	1657725 5778 13104 15997 223.75 268.25 179 -2.3110237121582 2.5 39.529638290405 282.06915628347
56262	1663503 6117 13080 15997 223.5 268.25 180 4.054726600647 15.64999961853 2219.7311244011 29999.691805625
56261	1669620 6323 13055 15997 223.25 268.25 181 236.05230712891 785.82187652588 94843.404396057 53821163.171529
56260	1675943 6336 13055 15997 223.25 268.25 181 483.14999389648 483.14999389648 87450.148895264 42251538.904993
vector 56337  IntersectionExampleScenario.node[64].veinsmobility  posx  ETV
vector 56338  IntersectionExampleScenario.node[64].veinsmobility  posy  ETV
vector 56339  IntersectionExampleScenario.node[64].veinsmobility  speed  ETV
vector 56340  IntersectionExampleScenario.node[64].veinsmobility  acceleration  ETV
vector 56341  IntersectionExampleScenario.node[64].veinsmobility  co2emission  ETV
vector 56344  IntersectionExampleScenario.node[65].veinsmobility  posx  ETV
vector 56345  IntersectionExampleScenario.node[65].veinsmobility  posy  ETV
vector 56346  IntersectionExampleScenario.node[65].veinsmobility  speed  ETV
vector 56347  IntersectionExampleScenario.node[65].veinsmobility  acceleration  ETV
vector 56348  IntersectionExampleScenario.node[65].veinsmobility  co2emission  ETV
56271	1683081 6039 13699 16526 230.25 276.25 185 0.973 11.810082123732 556.80799323427 3010.3523020052
56270	1689120 5764 13699 16526 230.25 276.25 185 -7.775092124939 4 38.511121749878 481.7653167427
56269	1694884 5914 13674 16526 230 276.25 186 0 15.875 2181.7102353573 30752.64212689
56268	1700798 6524 13651 16526 229.75 276.25 187 184.17810058594 483.36395263672 76214.568817139 32920733.730843
56267	1707322 6472 13651 16526 229.75 276.25 187 486.85000610352 734.25172424316 99269.144851685 53688667.257824
56285	1713794 6176 13753 16594 230.75 277.25 187 0.95532711077743 11.917427265055 575.04325734743 3118.7227716842
56284	1719970 5817 13753 16594 230.75 277.25 187 -4.5 2.5 39.699392318726 490.99904861241
56283	1725787 6072 13726 16594 230.5 277.25 188 0 16.023834228516 2303.9649832249 32803.572741397
56282	1731859 6591 13699 16594 230.25 277.25 189 160.43438720703 487.03436279297 75193.402770996 32199243.142931
56281	1738450 6608 13699 16594 230.25 277.25 189 236.43463134766 486.85000610352 83752.372406006 38129608.098844
vector 56351  IntersectionExampleScenario.node[66].veinsmobility  posx  ETV
vector 56352  IntersectionExampleScenario.node[66].veinsmobility  posy  ETV
vector 56353  IntersectionExampleScenario.node[66].veinsmobility  speed  ETV
vector 56354  IntersectionExampleScenario.node[66].veinsmobility  acceleration  ETV
vector 56355  IntersectionExampleScenario.node[66].veinsmobility  co2emission  ETV
vector 56358  IntersectionExampleScenario.node[67].veinsmobility  posx  ETV
vector 56359  IntersectionExampleScenario.node[67].veinsmobility  posy  ETV
56292	1745613 5247 14718 16872 242.25 281.25 157 0.973 11.90022389248 532.32813723612 3285.3915134346
56291	1750860 5108 14718 16872 242.25 281.25 157 -3.3886528015137 2.5 39.529638290405 289.48920293653
56290	1755968 5224 14701 16872 242 281.25 158 5.6500000953674 16 2209.1910142899 31885.726322883
56289	1761192 5544 14684 16872 241.75 281.25 159 184.17810058594 486.85000610352 63268.005157471 26936435.191586
56288	1766736 5560 14684 16872 241.75 281.25 159 236.93383789062 486.85000610352 69161.242462158 31028326.153691
vector 56365  IntersectionExampleScenario.node[68].veinsmobility  posx  ETV
vector 56366  IntersectionExampleScenario.node[68].veinsmobility  posy  ETV
vector 56360  IntersectionExampleScenario.node[67].veinsmobility  speed  ETV
vector 56361  IntersectionExampleScenario.node[67].veinsmobility  acceleration  ETV
vector 56362  IntersectionExampleScenario.node[67].veinsmobility  co2emission  ETV
vector 56367  IntersectionExampleScenario.node[68].veinsmobility  speed  ETV
vector 56368  IntersectionExampleScenario.node[68].veinsmobility  acceleration  ETV
vector 56369  IntersectionExampleScenario.node[68].veinsmobility  co2emission  ETV
56278	1772944 7108 13726 17373 230.5 287 227 0.973 11.90022389248 605.51345231057 3095.0036960951
56277	1780052 6625 13726 17373 230.5 287 227 -9.0596437454224 4 39.359884262085 502.00740959224
56276	1786677 6809 13699 17373 230.25 287 228 0 16 2201.7095313072 31498.966972743
56275	1793486 7997 13674 17373 230 287 229 237.38928222656 486.85000610352 103255.44848633 47630040.110338
56274	1801483 7996 13674 17373 230 287 229 483.14999389648 785.82187652588 125782.44161224 71112608.580461
vector 56372  IntersectionExampleScenario.node[69].veinsmobility  posx  ETV
vector 56373  IntersectionExampleScenario.node[69].veinsmobility  posy  ETV
vector 56374  IntersectionExampleScenario.node[69].veinsmobility  speed  ETV
vector 56375  IntersectionExampleScenario.node[69].veinsmobility  acceleration  ETV
vector 56376  IntersectionExampleScenario.node[69].veinsmobility  co2emission  ETV
56299	1809880 6078 15369 18227 254.5 300.5 185 0.973 11.648172402475 552.90180599477 2926.1175080753
56298	1815958 5814 15369 18227 254.5 300.5 185 -7.1126251220703 4 37.662351608276 469.40991413758
56297	1821772 6018 15358 18227 254.25 300.5 186 0 15.64999961853 2218.4003880024 31179.153746204
56296	1827790 6521 15347 18227 254 300.5 187 235.04968261719 785.82187652588 96684.963447571 54207617.125224
56295	1834311 6544 15347 18227 254 300.5 187 483.14999389648 483.14999389648 90349.048858643 43652142.404606
56306	1840855 5688 15571 18271 259 301.5 171 0.973 11.648172402475 559.40253739333 3002.7940480516
56305	1846543 5698 15571 18271 259 301.5 171 -4.5 2.5 41.227170944214 426.95679732717
56304	1852241 5877 15558 18271 258.75 301.5 172 0.99636387825012 16.003969192505 2208.0531215668 32057.95128259
56303	1858118 6030 15545 18271 258.5 301.5 173 238.67901611328 785.82187652588 90217.282722473 51026740.920532
56302	1864148 6055 15545 18271 258.5 301.5 173 483.14999389648 483.14999389648 83584.948944092 40384067.572176
56320	1870203 5360 15868 18466 266 306 161 0.973 11.550147817928 520.07099648375 3073.8340357935
56319	1875563 5187 15868 18466 266 306 161 -3.5670318603516 2.5 37.15309715271 286.24989005275
56318	1880750 5386 15857 18466 265.75 306 162 5.6500000953674 15.513480186462 2204.3752765656 30838.612396762
56317	1886136 5686 15846 18466 265.5 306 163 483.14999389648 785.82187652588 93253.402397156 55142898.752636
56316	1891822 5697 15846 18466 265.5 306 163 483.14999389648 732.23480224609 87254.451889038 47675868.494177
vector 56379  IntersectionExampleScenario.node[70].veinsmobility  posx  ETV
vector 56380  IntersectionExampleScenario.node[70].veinsmobility  posy  ETV
vector 56381  IntersectionExampleScenario.node[70].veinsmobility  speed  ETV
vector 56382  IntersectionExampleScenario.node[70].veinsmobility  acceleration  ETV
vector 56383  IntersectionExampleScenario.node[70].veinsmobility  co2emission  ETV
56327	1897920 5630 15894 18551 266.5 308.25 168 0.973 11.810082123732 552.85568639346 3111.9391596104
56326	1903550 5517 15894 18551 266.5 308.25 168 -4.5 2.5 38.680875778198 315.86957533263
56325	1909067 5595 15881 18551 266.25 308.25 169 5.6500000953674 15.875 2285.3108611107 32266.645823659
56324	1914662 5931 15868 18551 266 308.25 170 486.67883300781 809.56562805176 99001.342819214 59789789.499782
56323	1920593 5946 15868 18551 266 308.25 170 235.62738037109 483.14999389648 73923.735687256 33100664.263694
56334	1926539 5922 15937 18660 267.25 311.5 178 0.973 11.450879080643 539.34836947008 2795.5460323342
56333	1932461 5541 15937 18660 267.25 311.5 178 -6.771110534668 4 36.98334312439 456.08187023827
56332	1938002 5890 15922 18660 267 311.5 179 0 15.375 2209.3351578712 30725.483349737
56331	1943892 6271 15907 18660 266.75 311.5 180 184.17810058594 732.67367553711 81223.347640991 40857133.771763
56330	1950163 6300 15907 18660 266.75 311.5 180 486.85000610352 486.85000610352 87633.001098633 42664127.119739
vector 56386  IntersectionExampleScenario.node[71].veinsmobility  posx  ETV
vector 56387  IntersectionExampleScenario.node[71].veinsmobility  posy  ETV
vector 56388  IntersectionExampleScenario.node[71].veinsmobility  speed  ETV
vector 56389  IntersectionExampleScenario.node[71].veinsmobility  acceleration  ETV
vector 56390  IntersectionExampleScenario.node[71].veinsmobility  co2emission  ETV
56341	1956864 5997 16046 18721 269 313.25 178 0.973 11.54047740176 564.67468419759 2894.7017702119
56340	1962861 5578 16046 18721 269 313.25 178 -4.5 2.5 39.699392318726 457.05129797051
56339	1968439 6127 16029 18721 268.75 313.25 179 0.54929900169373 15.63187122345 2299.5956177115 32896.763102921
56338	1974566 6275 16012 18721 268.5 313.25 180 164.94219970703 734.8327331543 79546.47026062 39715929.49666
56337	1980841 6300 16012 18721 268.5 313.25 180 486.85000610352 486.85000610352 87633.001098633 42664127.119739
vector 56393  IntersectionExampleScenario.node[72].veinsmobility  posx  ETV
vector 56394  IntersectionExampleScenario.node[72].veinsmobility  posy  ETV
vector 56395  IntersectionExampleScenario.node[72].veinsmobility  speed  ETV
vector 56396  IntersectionExampleScenario.node[72].veinsmobility  acceleration  ETV
vector 56397  IntersectionExampleScenario.node[72].veinsmobility  co2emission  ETV
56348	1987542 5661 16339 18815 273.5 315.75 170 0.973 11.648172402475 529.18568799174 2894.4621306275
56347	1993203 5671 16339 18815 273.5 315.75 170 -3.4154853820801 2.5 38.341367721558 268.8226746998
56346	1998874 5789 16322 18815 273.25 315.75 171 5.6500000953674 15.64999961853 2268.5509138107 31439.386314571
56345	2004663 6008 16305 18815 273 315.75 172 172.08178710938 734.470703125 76169.329193115 38173825.061129
56344	2010671 6020 16305 18815 273 315.75 172 486.85000610352 486.85000610352 83738.201049805 40767943.692195
vector 56400  IntersectionExampleScenario.node[73].veinsmobility  posx  ETV
vector 56401  IntersectionExampleScenario.node[73].veinsmobility  posy  ETV
vector 56402  IntersectionExampleScenario.node[73].veinsmobility  speed  ETV
vector 56403  IntersectionExampleScenario.node[73].veinsmobility  acceleration  ETV
vector 56404  IntersectionExampleScenario.node[73].veinsmobility  co2emission  ETV
vector 56407  IntersectionExampleScenario.node[74].veinsmobility  posx  ETV
vector 56408  IntersectionExampleScenario.node[74].veinsmobility  posy  ETV
vector 56409  IntersectionExampleScenario.node[74].veinsmobility  speed  ETV
vector 56410  IntersectionExampleScenario.node[74].veinsmobility  acceleration  ETV
vector 56411  IntersectionExampleScenario.node[74].veinsmobility  co2emission  ETV
56313	2017493 7288 15770 19167 263.75 322.25 235 0.973 11.810082123732 605.45799323427 3057.6887520052
56312	2024781 6814 15770 19167 263.75 322.25 235 -7.7750906944275 4 38.511121749878 481.76530427803
56311	2031595 6965 15759 19167 263.5 322.25 236 0 15.875 2181.7102345228 30752.642122378
56310	2038560 8218 15748 19167 263.25 322.25 237 235.74822998047 483.14999389648 106278.35470581 48726522.001824
56309	2046778 8275 15748 19167 263.25 322.25 237 184.17810058594 483.36395263672 99794.569152832 44041062.047353
56355	2055053 5598 16853 19244 281 324 173 0.973 12.553400930962 563.46019367063 3344.2198222837
56354	2060651 5563 16853 19244 281 324 173 -2.1648597717285 2.5 42.585195541382 323.21571648986
56353	2066214 5752 16834 19244 280.75 324 174 4.0467295646667 16.89999961853 2176.7498025894 30421.399132816
56352	2071966 6109 16815 19244 280.5 324 175 239.03350830078 483.14999389648 76982.996612549 34761015.578698
56351	2078075 6095 16815 19244 280.5 324 175 184.17810058594 483.14999389648 70266.782012939 29933404.562613
56362	2084170 5885 16916 19321 281.75 325.75 177 0.96012486421287 12.383783432059 595.80988805199 3550.3648380782
56361	2090055 5657 16916 19321 281.75 325.75 177 -4.5 2.5 42.245687484741 437.7639330122
56360	2095712 5919 16893 19321 281.5 325.75 178 4.2099494934082 16.667266845703 2303.616230011 32574.470547197
56359	2101631 6264 16872 19321 281.25 325.75 179 483.14999389648 733.76788330078 94452.359298706 50812652.402492
56358	2107895 6237 16872 19321 281.25 325.75 179 161.1796875 486.85000610352 70207.869659424 29668604.763783
vector 56414  IntersectionExampleScenario.node[75].veinsmobility  posx  ETV
vector 56415  IntersectionExampleScenario.node[75].veinsmobility  posy  ETV
vector 56416  IntersectionExampleScenario.node[75].veinsmobility  speed  ETV
vector 56417  IntersectionExampleScenario.node[75].veinsmobility  acceleration  ETV
vector 56418  IntersectionExampleScenario.node[75].veinsmobility  co2emission  ETV
vector 56421  IntersectionExampleScenario.node[76].veinsmobility  posx  ETV
vector 56422  IntersectionExampleScenario.node[76].veinsmobility  posy  ETV
vector 56423  IntersectionExampleScenario.node[76].veinsmobility  speed  ETV
vector 56424  IntersectionExampleScenario.node[76].veinsmobility  acceleration  ETV
vector 56425  IntersectionExampleScenario.node[76].veinsmobility  co2emission  ETV
vector 56428  IntersectionExampleScenario.node[77].veinsmobility  posx  ETV
vector 56429  IntersectionExampleScenario.node[77].veinsmobility  posy  ETV
vector 56430  IntersectionExampleScenario.node[77].veinsmobility  speed  ETV
vector 56431  IntersectionExampleScenario.node[77].veinsmobility  acceleration  ETV
vector 56432  IntersectionExampleScenario.node[77].veinsmobility  co2emission  ETV
56369	2115335 6839 16939 19888 282 335.5 215 0.973 11.450879080643 574.20808734256 2807.3438976243
56368	2122174 6311 16939 19888 282 335.5 215 -6.7711477279663 4 36.98334312439 452.58212473492
56367	2128485 6639 16916 19888 281.75 335.5 216 0 15.375 2197.6686828136 30446.01081592
56366	2135124 7587 16893 19888 281.5 335.5 217 483.14999389648 785.82187652588 120075.71344757 68456708.385702
56365	2142711 7587 16893 19888 281.5 335.5 217 483.14999389648 732.12057495117 113355.43768311 60293456.775771
vector 56435  IntersectionExampleScenario.node[78].veinsmobility  posx  ETV
vector 56436  IntersectionExampleScenario.node[78].veinsmobility  posy  ETV
56376	2150452 5699 17887 20024 294.5 337.5 173 0.973 11.648172402475 535.53319155884 2873.2300761973
56375	2156151 5573 17887 20024 294.5 337.5 173 -2.1482048034668 2.5000019073486 39.869146347046 272.67182219723
56374	2161724 5832 17870 20024 294.25 337.5 174 4.7434387207031 15.64999961853 2208.170630455 30291.409287998
56373	2167556 6112 17853 20024 294 337.5 175 483.13861083984 785.82187652588 99451.515312195 58302538.152637
56372	2173668 6120 17853 20024 294 337.5 175 483.14999389648 732.94625854492 92754.974838257 50142105.274056
vector 56437  IntersectionExampleScenario.node[78].veinsmobility  speed  ETV
vector 56438  IntersectionExampleScenario.node[78].veinsmobility  acceleration  ETV
vector 56439  IntersectionExampleScenario.node[78].veinsmobility  co2emission  ETV
vector 56442  IntersectionExampleScenario.node[79].veinsmobility  posx  ETV
vector 56443  IntersectionExampleScenario.node[79].veinsmobility  posy  ETV
vector 56444  IntersectionExampleScenario.node[79].veinsmobility  speed  ETV
vector 56445  IntersectionExampleScenario.node[79].veinsmobility  acceleration  ETV
vector 56446  IntersectionExampleScenario.node[79].veinsmobility  co2emission  ETV
vector 56449  IntersectionExampleScenario.node[80].veinsmobility  posx  ETV
vector 56450  IntersectionExampleScenario.node[80].veinsmobility  posy  ETV
vector 56451  IntersectionExampleScenario.node[80].veinsmobility  speed  ETV
vector 56452  IntersectionExampleScenario.node[80].veinsmobility  acceleration  ETV
vector 56453  IntersectionExampleScenario.node[80].veinsmobility  co2emission  ETV
vector 56456  IntersectionExampleScenario.node[81].veinsmobility  posx  ETV
vector 56457  IntersectionExampleScenario.node[81].veinsmobility  posy  ETV
vector 56458  IntersectionExampleScenario.node[81].veinsmobility  speed  ETV
vector 56459  IntersectionExampleScenario.node[81].veinsmobility  acceleration  ETV
vector 56460  IntersectionExampleScenario.node[81].veinsmobility  co2emission  ETV
vector 56463  IntersectionExampleScenario.node[82].veinsmobility  posx  ETV
vector 56464  IntersectionExampleScenario.node[82].veinsmobility  posy  ETV
vector 56465  IntersectionExampleScenario.node[82].veinsmobility  speed  ETV
vector 56470  IntersectionExampleScenario.node[83].veinsmobility  posx  ETV
vector 56471  IntersectionExampleScenario.node[83].veinsmobility  posy  ETV
vector 56466  IntersectionExampleScenario.node[82].veinsmobility  acceleration  ETV
vector 56467  IntersectionExampleScenario.node[82].veinsmobility  co2emission  ETV
vector 56472  IntersectionExampleScenario.node[83].veinsmobility  speed  ETV
vector 56473  IntersectionExampleScenario.node[83].veinsmobility  acceleration  ETV
vector 56474  IntersectionExampleScenario.node[83].veinsmobility  co2emission  ETV
vector 56477  IntersectionExampleScenario.node[84].veinsmobility  posx  ETV
vector 56478  IntersectionExampleScenario.node[84].veinsmobility  posy  ETV
vector 56479  IntersectionExampleScenario.node[84].veinsmobility  speed  ETV
vector 56480  IntersectionExampleScenario.node[84].veinsmobility  acceleration  ETV
vector 56481  IntersectionExampleScenario.node[84].veinsmobility  co2emission  ETV
vector 56484  IntersectionExampleScenario.node[85].veinsmobility  posx  ETV
vector 56485  IntersectionExampleScenario.node[85].veinsmobility  posy  ETV
vector 56486  IntersectionExampleScenario.node[85].veinsmobility  speed  ETV
vector 56487  IntersectionExampleScenario.node[85].veinsmobility  acceleration  ETV
vector 56488  IntersectionExampleScenario.node[85].veinsmobility  co2emission  ETV
56383	2182842 6292 18551 21390 308.25 356.75 195 0.973 12.099024792222 585.59965660475 3200.4872589084
56382	2189134 5716 18551 21390 308.25 356.75 195 -9.4888134002686 4 40.887662887573 530.06788007151
56381	2194850 6081 18540 21390 308 356.75 196 0 16.27499961853 2180.4144985676 31701.827442564
56380	2200931 6822 18529 21390 307.75 356.75 197 486.85000610352 733.3787689209 103805.12330627 55673095.010549
56379	2207753 6889 18529 21390 307.75 356.75 197 486.63604736328 785.82187652588 109883.25662994 63172474.280589
56390	2214642 6037 18685 21447 312.25 357.5 182 0.973 11.36141391502 543.00276604097 2765.5625539632
56389	2220679 5521 18685 21447 312.25 357.5 182 -7.457010269165 4 37.32285118103 467.27674674445
56388	2226200 5899 18676 21447 312 357.5 183 0 15.25 2179.3544082642 30207.236950068
56387	2232099 6375 18667 21447 311.75 357.5 184 236.31317138672 483.14999389648 80548.77142334 36253165.29731
56386	2238474 6412 18667 21447 311.75 357.5 184 184.17810058594 483.36395263672 74644.180847168 32136689.618497
56397	2244886 5875 18815 21580 315.75 359.25 175 0.973 11.200708441096 531.63571334129 2666.6087180369
56396	2250761 5752 18815 21580 315.75 359.25 175 -4.3872604370117 2.5 37.32285118103 331.38858605057
56395	2256513 6129 18804 21580 315.5 359.25 176 3.5528321266174 15.1285572052 2244.1019546986 30732.287328491
56394	2262642 6185 18793 21580 315.25 359.25 177 483.14999389648 733.04357910156 94061.509735107 50995526.900123
56393	2268827 6172 18793 21580 315.25 359.25 177 174.53436279297 486.99899291992 70630.645599365 30176085.03587
vector 56491  IntersectionExampleScenario.node[86].veinsmobility  posx  ETV
vector 56492  IntersectionExampleScenario.node[86].veinsmobility  posy  ETV
vector 56493  IntersectionExampleScenario.node[86].veinsmobility  speed  ETV
vector 56494  IntersectionExampleScenario.node[86].veinsmobility  acceleration  ETV
vector 56495  IntersectionExampleScenario.node[86].veinsmobility  co2emission  ETV
56411	2275400 5864 18895 21736 317.25 361.25 177 0.973 11.200708441096 522.55675835966 2644.5729884771
56410	2281264 5750 18895 21736 317.25 361.25 177 -3.1290416717529 2.5000019073486 35.795072555542 287.47336222649
56409	2287014 5946 18880 21736 317 361.25 178 5.6500000953674 15.02499961853 2184.9825263023 28517.085018682
56408	2292960 6259 18865 21736 316.75 361.25 179 486.85000610352 733.2057800293 95680.012786865 52134276.302442
56407	2299219 6248 18865 21736 316.75 361.25 179 486.73092651367 785.82187652588 101985.58463287 59904417.351134
56418	2305467 5352 19391 22116 327.25 366.25 157 0.973 11.648172402475 491.51080167385 2649.727343124
56417	2310819 5122 19391 22116 327.25 366.25 157 -3.4861869812012 2.5 38.511121749878 236.82566871302
56416	2315941 5238 19378 22116 327 366.25 158 5.6500000953674 15.64999961853 2208.6050634384 31811.238401926
56415	2321179 5560 19365 22116 326.75 366.25 159 236.80609130859 486.85000610352 69016.887756348 30912502.963218
56414	2326739 5558 19365 22116 326.75 366.25 159 483.14999389648 785.82187652588 90920.71710968 53765186.316143
vector 56498  IntersectionExampleScenario.node[87].veinsmobility  posx  ETV
vector 56499  IntersectionExampleScenario.node[87].veinsmobility  posy  ETV
vector 56500  IntersectionExampleScenario.node[87].veinsmobility  speed  ETV
vector 56501  IntersectionExampleScenario.node[87].veinsmobility  acceleration  ETV
vector 56502  IntersectionExampleScenario.node[87].veinsmobility  co2emission  ETV
56425	2332698 5519 19434 22282 328 368.25 162 0.973 11.200708441096 499.42746373037 2520.5063185733
56424	2338217 4918 19434 22282 328 368.25 162 -3.3004875183105 2.5 37.32285118103 260.26558241097
56423	2343135 5424 19419 22282 327.75 368.25 163 5.6500000953674 15.038352966309 2187.8156089783 30630.06330315
56422	2348559 5721 19404 22282 327.5 368.25 164 235.68566894531 483.14999389648 70834.352294922 31545618.115086
56421	2354280 5709 19404 22282 327.5 368.25 164 184.17810058594 483.14999389648 65250.014221191 27723735.81974
56404	2359989 6852 18852 22450 316.5 370.25 216 0.973 11.648172402475 585.20572639663 2944.3851876755
56403	2366841 6306 18852 22450 316.5 370.25 216 -7.4922199249268 4 38.171613693237 481.23603371837
56402	2373147 6617 18839 22450 316.25 370.25 217 0 15.64999961853 2197.6315107346 30998.858005783
56401	2379764 7617 18826 22450 316 370.25 218 483.14999389648 785.82187652588 120408.32750702 68508987.762241
56400	2387381 7625 18826 22450 316 370.25 218 483.14999389648 732.16635131836 113687.64094543 60355152.65328
vector 56505  IntersectionExampleScenario.node[88].veinsmobility  posx  ETV
vector 56506  IntersectionExampleScenario.node[88].veinsmobility  posy  ETV
vector 56512  IntersectionExampleScenario.node[89].veinsmobility  posx  ETV
vector 56513  IntersectionExampleScenario.node[89].veinsmobility  posy  ETV
vector 56507  IntersectionExampleScenario.node[88].veinsmobility  speed  ETV
vector 56508  IntersectionExampleScenario.node[88].veinsmobility  acceleration  ETV
vector 56509  IntersectionExampleScenario.node[88].veinsmobility  co2emission  ETV
vector 56514  IntersectionExampleScenario.node[89].veinsmobility  speed  ETV
vector 56515  IntersectionExampleScenario.node[89].veinsmobility  acceleration  ETV
vector 56516  IntersectionExampleScenario.node[89].veinsmobility  co2emission  ETV
56439	2395808 5381 20062 22973 338 377.5 159 0.97223939240464 11.810082123732 507.90446564047 2852.4636117653
56438	2401189 5061 20062 22973 338 377.5 159 -3.3224430084229 2.5 38.680875778198 281.07750478256
56437	2406250 5262 20043 22973 337.75 377.5 160 5.6500000953674 15.875 2180.3963141441 31117.975677723
56436	2411512 5631 20024 22973 337.5 377.5 161 486.73587036133 785.82187652588 92162.609840393 54496323.186597
56435	2417143 5631 20024 22973 337.5 377.5 161 237.83447265625 483.14999389648 69706.979278564 31091660.187102
56460	2422774 5194 20776 23475 348.5 386.5 153 0.973 12.099024792222 504.23964094832 2917.912172517
56459	2427968 5075 20776 23475 348.5 386.5 153 -3.3024253845215 2.5 40.548154830933 251.01207562295
56458	2433043 5088 20759 23475 348.25 386.5 154 5.6500000953674 16.27499961853 2203.3838243484 32614.896236777
56457	2438131 5402 20742 23475 348 386.5 155 184.17810058594 486.85000610352 61653.322265625 26265402.446039
56456	2443533 5401 20742 23475 348 386.5 155 238.06860351562 486.85000610352 67407.745544434 30229661.676684
56474	2448934 5145 20936 23566 350.75 388.25 151 0.96997852711604 12.44402232946 535.84884192974 3330.2234671545
56473	2454079 4738 20936 23566 350.75 388.25 151 -4.2573852539062 2.5 42.585195541382 277.62997171554
56472	2458817 5059 20917 23566 350.5 388.25 152 5.6500000953674 16.75 2283.3049554825 35187.753781477
56471	2463876 5329 20898 23566 350.25 388.25 153 167.29217529297 732.38314819336 67058.879837036 33688355.899476
56470	2469205 5356 20898 23566 350.25 388.25 153 486.85000610352 486.85000610352 74488.050933838 36264508.051778
vector 56519  IntersectionExampleScenario.node[90].veinsmobility  posx  ETV
vector 56520  IntersectionExampleScenario.node[90].veinsmobility  posy  ETV
vector 56521  IntersectionExampleScenario.node[90].veinsmobility  speed  ETV
vector 56522  IntersectionExampleScenario.node[90].veinsmobility  acceleration  ETV
vector 56523  IntersectionExampleScenario.node[90].veinsmobility  co2emission  ETV
56446	2474962 6504 20273 23732 340.75 391.75 205 0.973 12.099024792222 592.03357379842 3231.12972463
56445	2481466 6156 20273 23732 340.75 391.75 205 -7.8776445388794 4 40.038900375366 513.03881719338
[...]
59148	15619191 5652 130212 133122 1716.5 1755.25 156 0.973 11.54047740176 464.63231158543 2336.4085283449
59147	15624843 5085 130212 133122 1716.5 1755.25 156 -2.906135559082 2.5 37.32285118103 179.22973075835
59146	15629928 5574 130189 133122 1716.25 1755.25 157 5.6500000953674 15.5 2216.590294838 31875.992361842
59145	15635502 5772 130166 133122 1716 1755.25 158 184.17810058594 733.22798156738 70908.541702271 36014724.094117
59144	15641274 5845 130166 133122 1716 1755.25 158 486.85000610352 486.85000610352 76922.300964355 37449622.693993
vector 59214  IntersectionExampleScenario.node[475].veinsmobility  posx  ETV
vector 59215  IntersectionExampleScenario.node[475].veinsmobility  posy  ETV
vector 59216  IntersectionExampleScenario.node[475].veinsmobility  speed  ETV
vector 59217  IntersectionExampleScenario.node[475].veinsmobility  acceleration  ETV
vector 59218  IntersectionExampleScenario.node[475].veinsmobility  co2emission  ETV
59127	15647525 7231 129115 133249 1704.5 1757.5 213 0.973 11.200708441096 570.16576550072 2735.4821531077
59126	15654756 6691 129115 133249 1704.5 1757.5 213 -6.7711095809937 4 36.98334312439 447.97769463371
59125	15661447 7034 129088 133249 1704.25 1757.5 214 0 15.132713317871 2181.754919529 30193.422558807
59124	15668481 7945 129061 133249 1704 1757.5 215 483.14999389648 732.96713256836 112445.28890991 59895666.553656
59123	15676426 7926 129061 133249 1704 1757.5 215 184.17810058594 486.85000610352 89455.840148926 39225697.434777
59113	15684352 7793 128554 133249 1699 1757.5 235 0.973 11.648172402475 600.73555435518 3019.6265552093
59112	15692145 7404 128554 133249 1699 1757.5 235 -6.8599815368652 4 37.662351608276 469.99791026477
59111	15699549 7509 128528 133249 1698.75 1757.5 236 0 15.64999961853 2206.7790837288 30914.658107434
59110	15707058 8753 128501 133249 1698.5 1757.5 237 235.68280029297 486.85000610352 106813.35198975 49264657.915743
59109	15715811 8757 128501 133249 1698.5 1757.5 237 483.14999389648 785.82187652588 129920.5265274 73279952.571372
vector 59221  IntersectionExampleScenario.node[476].veinsmobility  posx  ETV
vector 59222  IntersectionExampleScenario.node[476].veinsmobility  posy  ETV
vector 59223  IntersectionExampleScenario.node[476].veinsmobility  speed  ETV
vector 59224  IntersectionExampleScenario.node[476].veinsmobility  acceleration  ETV
vector 59225  IntersectionExampleScenario.node[476].veinsmobility  co2emission  ETV
59141	15724974 6046 130212 133377 1716.5 1759.5 173 0.973 11.648172402475 535.34506670026 2877.8516918552
59140	15731020 5908 130212 133377 1716.5 1759.5 173 -2.1371688842773 2.5 39.699392318726 274.78021845823
59139	15736928 6196 130189 133377 1716.25 1759.5 174 4.7509450912476 15.64999961853 2203.666788578 30175.62585603
59138	15743124 6466 130166 133377 1716 1759.5 175 238.16772460938 486.85000610352 77047.926879883 34891942.491404
59137	15749590 6468 130166 133377 1716 1759.5 175 482.9313659668 785.82187652588 99468.670875549 58322018.416636
vector 59228  IntersectionExampleScenario.node[477].veinsmobility  posx  ETV
vector 59229  IntersectionExampleScenario.node[477].veinsmobility  posy  ETV
vector 59230  IntersectionExampleScenario.node[477].veinsmobility  speed  ETV
vector 59231  IntersectionExampleScenario.node[477].veinsmobility  acceleration  ETV
vector 59232  IntersectionExampleScenario.node[477].veinsmobility  co2emission  ETV
59155	15756464 6242 130377 133561 1718.25 1762 176 0.973 11.54047740176 557.3097111915 3065.1970107619
59154	15762706 6047 130377 133561 1718.25 1762 176 -4.5 2.5000019073486 37.15309715271 361.16177065814
59153	15768753 6309 130352 133561 1718 1762 177 5.3911862373352 15.5 2293.5180435181 31215.652521052
59152	15775062 6585 130327 133561 1717.75 1762 178 486.85000610352 486.85000610352 86659.301086426 42190081.262853
59151	15781647 6563 130327 133561 1717.75 1762 178 236.71008300781 805.05782318115 94772.354019165 55114755.681634
vector 59235  IntersectionExampleScenario.node[478].veinsmobility  posx  ETV
vector 59236  IntersectionExampleScenario.node[478].veinsmobility  posy  ETV
59162	15788366 5756 130971 133865 1725.25 1766 164 0.973 11.200708441096 492.61434506808 2781.2359932505
59161	15794122 5623 130971 133865 1725.25 1766 164 -3.2524528503418 2.5 35.455564498901 249.67786280401
59160	15799745 5826 130952 133865 1725 1766 165 5.6500000953674 15.02499961853 2205.4236602783 30186.47168529
59159	15805571 6135 130933 133865 1724.75 1766 166 236.91259765625 486.85000610352 72019.671112061 32246483.372539
59158	15811706 6130 130933 133865 1724.75 1766 166 483.12368774414 785.82187652588 94903.562431335 56076758.667513
vector 59237  IntersectionExampleScenario.node[478].veinsmobility  speed  ETV
vector 59238  IntersectionExampleScenario.node[478].veinsmobility  acceleration  ETV
vector 59239  IntersectionExampleScenario.node[478].veinsmobility  co2emission  ETV
59169	15818086 5471 131311 134020 1730 1768 153 0.973 12.553400930962 534.84544838604 3061.8107002346
59168	15823557 5424 131311 134020 1730 1768 153 -3.6450271606445 2.5 42.75514793396 306.26644696034
59167	15828981 5384 131292 134020 1729.75 1768 154 5.6500000953674 16.89999961853 2177.1399927139 32480.931826339
59166	15834365 5724 131273 134020 1729.5 1768 155 238.83453369141 483.14999389648 67230.924957275 30014369.40565
59165	15840089 5711 131273 134020 1729.5 1768 155 184.17810058594 483.15759277344 61649.599273682 26214015.128079
59134	15845800 8396 129254 134153 1705.75 1769.75 257 0.973 12.099024792222 643.98739290096 3264.7900042709
59133	15854196 7655 129254 134153 1705.75 1769.75 257 -33.900009155273 4 41.227170944214 1508.2183914404
59132	15861851 7911 129225 134153 1705.5 1769.75 258 0 16.27499961853 2257.9344930649 33158.808441573
59131	15869762 9575 129196 134153 1705.25 1769.75 259 483.14999389648 798.01081848145 141605.93263245 79722905.185012
59130	15879337 9579 129196 134153 1705.25 1769.75 259 483.14999389648 734.31971740723 133256.62565613 69663794.996002
vector 59242  IntersectionExampleScenario.node[479].veinsmobility  posx  ETV
vector 59243  IntersectionExampleScenario.node[479].veinsmobility  posy  ETV
vector 59244  IntersectionExampleScenario.node[479].veinsmobility  speed  ETV
vector 59245  IntersectionExampleScenario.node[479].veinsmobility  acceleration  ETV
vector 59246  IntersectionExampleScenario.node[479].veinsmobility  co2emission  ETV
vector 59249  IntersectionExampleScenario.node[480].veinsmobility  posx  ETV
vector 59250  IntersectionExampleScenario.node[480].veinsmobility  posy  ETV
vector 59251  IntersectionExampleScenario.node[480].veinsmobility  speed  ETV
vector 59252  IntersectionExampleScenario.node[480].veinsmobility  acceleration  ETV
vector 59253  IntersectionExampleScenario.node[480].veinsmobility  co2emission  ETV
vector 59256  IntersectionExampleScenario.node[481].veinsmobility  posx  ETV
vector 59257  IntersectionExampleScenario.node[481].veinsmobility  posy  ETV
vector 59258  IntersectionExampleScenario.node[481].veinsmobility  speed  ETV
vector 59259  IntersectionExampleScenario.node[481].veinsmobility  acceleration  ETV
vector 59260  IntersectionExampleScenario.node[481].veinsmobility  co2emission  ETV
vector 59263  IntersectionExampleScenario.node[482].veinsmobility  posx  ETV
vector 59264  IntersectionExampleScenario.node[482].veinsmobility  posy  ETV
vector 59265  IntersectionExampleScenario.node[482].veinsmobility  speed  ETV
vector 59266  IntersectionExampleScenario.node[482].veinsmobility  acceleration  ETV
vector 59267  IntersectionExampleScenario.node[482].veinsmobility  co2emission  ETV
59197	15890540 5829 132334 135167 1743 1783.25 162 0.973 11.093806525473 448.61774688083 2071.3999795529
59196	15896369 5286 132334 135167 1743 1783.25 162 -2.8918914794922 2.5 34.437047958374 158.7507555885
59195	15901655 5802 132315 135167 1742.75 1783.25 163 5.6500000953674 14.875 2215.6442070007 30562.767895231
59194	15907457 6032 132296 135167 1742.5 1783.25 164 184.17810058594 733.25778198242 73770.987197876 37529530.23311
59193	15913489 6068 132296 135167 1742.5 1783.25 164 486.85000610352 486.85000610352 79843.401000977 38871760.264651
vector 59270  IntersectionExampleScenario.node[483].veinsmobility  posx  ETV
vector 59271  IntersectionExampleScenario.node[483].veinsmobility  posy  ETV
vector 59272  IntersectionExampleScenario.node[483].veinsmobility  speed  ETV
vector 59273  IntersectionExampleScenario.node[483].veinsmobility  acceleration  ETV
vector 59274  IntersectionExampleScenario.node[483].veinsmobility  co2emission  ETV
vector 59277  IntersectionExampleScenario.node[484].veinsmobility  posx  ETV
vector 59278  IntersectionExampleScenario.node[484].veinsmobility  posy  ETV
vector 59284  IntersectionExampleScenario.node[485].veinsmobility  posx  ETV
vector 59285  IntersectionExampleScenario.node[485].veinsmobility  posy  ETV
vector 59279  IntersectionExampleScenario.node[484].veinsmobility  speed  ETV
vector 59286  IntersectionExampleScenario.node[485].veinsmobility  speed  ETV
vector 59280  IntersectionExampleScenario.node[484].veinsmobility  acceleration  ETV
vector 59281  IntersectionExampleScenario.node[484].veinsmobility  co2emission  ETV
vector 59287  IntersectionExampleScenario.node[485].veinsmobility  acceleration  ETV
vector 59288  IntersectionExampleScenario.node[485].veinsmobility  co2emission  ETV
vector 59291  IntersectionExampleScenario.node[486].veinsmobility  posx  ETV
vector 59292  IntersectionExampleScenario.node[486].veinsmobility  posy  ETV
vector 59293  IntersectionExampleScenario.node[486].veinsmobility  speed  ETV
vector 59294  IntersectionExampleScenario.node[486].veinsmobility  acceleration  ETV
vector 59295  IntersectionExampleScenario.node[486].veinsmobility  co2emission  ETV
59211	15921181 5839 132797 135668 1750 1790.25 162 0.973 11.36141391502 501.07969746019 2544.3204420092
59210	15927020 5459 132797 135668 1750 1790.25 162 -3.3333129882812 2.5 37.492597579956 262.44924227792
59209	15932479 5711 132780 135668 1749.75 1790.25 163 5.6500000953674 15.25 2191.3507080078 30737.49078089
59208	15938190 6045 132763 135668 1749.5 1790.25 164 184.17810058594 483.14999389648 65238.023956299 27717235.180941
59207	15944235 6065 132763 135668 1749.5 1790.25 164 486.85000610352 735.18589782715 88277.963485718 48476533.198003
59176	15950300 7899 131488 135810 1732.5 1792 239 0.973 11.810082123732 623.37865157782 3049.5293482963
59175	15958199 7448 131488 135810 1732.5 1792 239 -7.5568346977234 4 40.038900375366 534.8939771175
59174	15965647 7495 131469 135810 1732.25 1792 240 0 15.892771720886 2184.808799386 31571.171707636
59173	15973142 8843 131450 135810 1732 1792 241 486.85000610352 734.86784362793 125417.51325989 66328384.882925
59172	15981985 8907 131450 135810 1732 1792 241 486.63604736328 785.82187652588 131933.05161285 74251880.350086
59183	15990892 7688 131701 135848 1735.25 1792.5 230 0.973 11.36141391502 586.63544344572 2812.0580758382
59182	15998580 7272 131701 135848 1735.25 1792.5 230 -8.6109304428101 4 36.98334312439 478.84309532941
59181	16005852 7371 131680 135848 1735 1792.5 231 0 15.25 2174.4720561504 30013.320678203
59180	16013223 8522 131659 135848 1734.75 1792.5 232 237.36993408203 483.14999389648 103766.95019531 47474083.358591
59179	16021745 8556 131659 135848 1734.75 1792.5 232 184.17810058594 483.36395263672 97242.571624756 42782360.078687
59190	16030301 7449 132020 135905 1739 1793.25 218 0.973 11.648172402475 577.45594065202 2923.5144491713
59189	16037750 7769 132020 135905 1739 1793.25 218 -3.8445527553558 2.5000001192093 38.341367721558 344.32251339349
59188	16045519 7939 131997 135905 1738.75 1793.25 219 0 15.64999961853 2213.2934053261 29808.969649726
59187	16053458 8140 131974 135905 1738.5 1793.25 220 486.85000610352 486.85000610352 107107.00134277 52145044.257458
59186	16061598 8109 131974 135905 1738.5 1793.25 220 237.24517822266 785.82187652588 114244.9826889 63470455.64296
59204	16069707 6616 132681 136147 1748.25 1796.5 194 0.973 11.36141391502 540.40759563161 2785.8718053833
59203	16076323 6787 132681 136147 1748.25 1796.5 194 -3.5022506713867 2.5000019073486 36.134572982788 316.02164290607
59202	16083110 6880 132664 136147 1748 1796.5 195 2.7529103755951 15.25 2190.12778759 27849.276183178
59201	16089990 7240 132647 136147 1747.75 1796.5 196 486.85000610352 734.62307739258 103996.08177185 56217806.895504
59200	16097230 7230 132647 136147 1747.75 1796.5 196 486.85000610352 785.82187652588 111001.23899078 64689102.355566
59225	16104460 5651 133343 136266 1759 1798.25 158 0.973 11.839312600055 527.78018277513 3014.1033658825
59224	16110111 5450 133343 136266 1759 1798.25 158 -3.3606433868408 2.5 39.699392318726 300.0528623776
59223	16115561 5565 133326 136266 1758.75 1798.25 159 5.6500000953674 15.915555000305 2189.6892733574 31621.821061527
59222	16121126 5907 133309 136266 1758.5 1798.25 160 235.57586669922 483.14999389648 69193.175872803 30844252.011872
59221	16127033 5895 133309 136266 1758.5 1798.25 160 184.17810058594 483.14999389648 63627.032409668 27033592.864156
vector 59298  IntersectionExampleScenario.node[487].veinsmobility  posx  ETV
vector 59299  IntersectionExampleScenario.node[487].veinsmobility  posy  ETV
vector 59300  IntersectionExampleScenario.node[487].veinsmobility  speed  ETV
vector 59301  IntersectionExampleScenario.node[487].veinsmobility  acceleration  ETV
vector 59302  IntersectionExampleScenario.node[487].veinsmobility  co2emission  ETV
59218	16133334 5936 133204 136392 1756.75 1800 174 0.973 11.90022389248 534.7651010698 3006.9281257917
59217	16139270 5550 133204 136392 1756.75 1800 174 -6.9388580322266 4 39.869199752808 486.92859174917
59216	16144820 5792 133189 136392 1756.5 1800 175 0 16 1907.6294112206 27273.364408378
59215	16150612 6502 133174 136392 1756.25 1800 176 313.00885009766 785.82187652588 95788.503196716 54918190.442369
59214	16157114 6512 133174 136392 1756.25 1800 176 483.14999389648 483.14999389648 85034.398925781 41084369.321982
59232	16163626 5436 133466 136392 1760.75 1800 158 0.973 11.648172402475 502.66552160017 2890.3870633977
59231	16169062 5750 133466 136392 1760.75 1800 158 -4.5 2.5 40.039777755737 392.10554922456
59230	16174812 5730 133447 136392 1760.5 1800 159 0 16.052137374878 1812.9546067789 25144.55470454
59229	16180542 5907 133428 136392 1760.25 1800 160 343.65979003906 792.02188110352 89985.204421997 53036064.718526
59228	16186449 5920 133428 136392 1760.25 1800 160 483.14999389648 483.14999389648 77303.999023438 37349426.656348
59239	16192369 4388 133906 136392 1766.5 1800 135 0.973 11.200708441096 309.83265224273 1386.6841217496
59238	16196757 3663 133906 136392 1766.5 1800 135 -24.092597961426 2.5 -22.60000038147 836.20327482451
59237	16200420 4290 133886 136392 1766.25 1800 136 0 15.02499961853 1146.4796857834 16231.374690914
59236	16204710 5067 133865 136392 1766 1800 137 486.85000610352 486.85000610352 66698.450836182 32472141.19669
59235	16209777 5060 133865 136392 1766 1800 137 498.39999389648 785.82187652588 81202.067756653 49552513.58031
59246	16214837 3804 134271 136392 1771.25 1800 116 0.973 11.200708441096 269.57665275854 1295.1901073449
59245	16218641 4295 134271 136392 1771.25 1800 116 -3.9724035263062 2.5 -21.657314896584 202.47736865879
59244	16222936 4308 134250 136392 1771 1800 117 0 15.02499961853 1117.9757127315 14222.398505642
59243	16227244 4365 134229 136392 1770.75 1800 118 486.85000610352 486.85000610352 57448.300720215 27968705.556273
59242	16231609 4356 134229 136392 1770.75 1800 118 506.13729858398 785.82187652588 72501.270866394 45644119.770479
59253	16235965 3846 134463 136392 1773.5 1800 107 0.973 11.648172402475 371.95256944845 2253.2888208781
59252	16239811 3497 134463 136392 1773.5 1800 107 -3.134407043457 2.5 38.891874313354 190.0029452674
59251	16243308 3770 134441 136392 1773.25 1800 108 5.6500000953674 15.64999961853 1506.2597513199 21609.451861135
59250	16247078 4023 134418 136392 1773 1800 109 414.44387817383 785.82187652588 66005.127998352 41383675.067356
59249	16251101 4031 134418 136392 1773 1800 109 483.14999389648 483.14999389648 52663.349334717 25444296.909637
59260	16255132 3457 134530 136392 1774.25 1800 104 0.973 12.099024792222 288.99998214188 1601.9903994203
59259	16258589 3470 134530 136392 1774.25 1800 104 -6.9978852272034 2.5 -22.60000038147 326.65453373981
59258	16262059 3598 134507 136392 1774 1800 105 0 16.27499961853 1147.3112164736 16652.645670792
59257	16265657 3921 134484 136392 1773.75 1800 106 483.14999389648 483.14999389648 51213.899353027 24743995.15983
59256	16269578 3895 134484 136392 1773.75 1800 106 184.17810058594 471.60000610352 37496.920135498 14353961.224879
59267	16273473 2756 135042 136392 1781.25 1800 76 0.973 11.648172402475 254.58718696992 1437.7399571997
59266	16276229 2580 135042 136392 1781.25 1800 76 -2.6577644348145 2.5 30.339288711548 120.93025960545
59265	16278809 2831 135025 136392 1781 1800 77 5.6500000953674 15.64999961853 1090.1022920609 15866.573616788
59264	16281640 2858 135008 136392 1780.75 1800 78 184.17810058594 452.25253295898 24032.60848999 7940073.5281931
59263	16284498 2885 135008 136392 1780.75 1800 78 486.85000610352 486.85000610352 37974.300476074 18487788.418553
59274	16287383 2285 135216 136392 1784 1800 65 0.973 11.200708441096 211.60782196996 1222.1125537064
59273	16289668 2354 135216 136392 1784 1800 65 -2.039493560791 2.5 19.584444046021 123.58705074391
59272	16292022 2424 135199 136392 1783.75 1800 66 5.6500000953674 15.02499961853 873.34377765656 11921.297578534
59271	16294446 2478 135182 136392 1783.5 1800 67 486.85000610352 486.85000610352 32618.950408936 15880536.205681
59270	16296924 2470 135182 136392 1783.5 1800 67 571.0412902832 785.82187652588 45928.349464417 31789646.301047
59281	16299394 1638 135564 136392 1789 1800 45 0.973 11.200708441096 180.07568400792 1166.373159956
59280	16301032 1590 135564 136392 1789 1800 45 -0.42623138427734 2.5 35.795370101929 94.165246807072
59279	16302622 1687 135543 136392 1788.75 1800 46 5.6500000953674 15.02499961853 604.64145851135 8273.9160834033
59278	16304309 1738 135522 136392 1788.5 1800 47 486.85000610352 486.85000610352 22881.950286865 11140077.636821
59277	16306047 1731 135522 136392 1788.5 1800 47 639.53108215332 785.82187652588 33886.319038391 24531171.17342
59288	16307778 1656 135564 136392 1789 1800 45 2.0947737808434 11.648172402475 198.01141005035 1329.0666579972
59287	16309434 1585 135564 136392 1789 1800 45 -0.03271484375 2.5 39.869169235229 100.00243678698
59286	16311019 1688 135543 136392 1788.75 1800 46 5.6500000953674 15.64999961853 634.04937934875 9163.7115978353
59285	16312707 1735 135522 136392 1788.5 1800 47 632.54025268555 785.82187652588 33786.000679016 24396773.834536
59284	16314442 1738 135522 136392 1788.5 1800 47 483.14999389648 483.14999389648 22708.049713135 10971394.080302
59295	16316180 1510 135647 136392 1790 1800 41 1.9337556822354 11.648172402475 188.40538153594 1306.2893117721
59294	16317690 1428 135647 136392 1790 1800 41 -0.075153350830078 2.5 39.699613571167 100.01290034518
59293	16319118 1540 135626 136392 1789.75 1800 42 5.6500000953674 15.64999961853 570.64644241333 8158.978278747
59292	16320658 1584 135605 136392 1789.5 1800 43 670.54925537109 807.99687957764 32188.314476013 24176108.462565
59291	16322242 1590 135605 136392 1789.5 1800 43 483.14999389648 483.14999389648 20775.449737549 10037658.413893
59302	16323832 73 136372 136392 1799.75 1800 2 5.2162187258585 5.6304533568076 10.846672082666 58.910942799184
59301	16323905 49 136372 136392 1799.75 1800 2 2.5 2.5 5 12.5
59300	16323954 110 136353 136392 1799.5 1800 3 5.6500000953674 6.9000000953674 18.825000286102 118.90812859058
59299	16324064 148 136334 136392 1799.25 1800 4 486.85000610352 486.85000610352 1947.4000244141 948091.71377197
59298	16324212 148 136334 136392 1799.25 1800 4 782.99687957764 785.82187652588 3139.1281356812 2463536.799126
55885	16324360 628 0 136391 0 1800 31 0 21 410 5960
55886	16324988 642 0 136391 0 1800 31 0 164 2442 268682
