version 2
run nodebug-12-20200606-18:29:25-22420
attr configname nodebug
attr datetime 20200606-18:29:25
attr experiment nodebug
attr inifile omnetpp.ini
attr iterationvars ""
attr iterationvars2 $repetition=12
attr measurement ""
attr network "\"org.car2x.veins.modules.application.ExtTraCIScenarioManagerLaunchd.IntersectionExampleScenario\""
attr processid 22420
attr repetition 12
attr replication #12
attr resultdir results
attr runnumber 12
attr seedset 12
param **.coreDebug false
param **.debug false
param *.**.nic.mac1609_4.bitrate 18Mbps
param *.**.nic.mac1609_4.txPower 20mW
param *.**.nic.mac1609_4.useServiceChannel false
param *.**.nic.phy80211p.analogueModels "xmldoc(\"config.xml\")"
param *.**.nic.phy80211p.decider "xmldoc(\"config.xml\")"
param *.**.nic.phy80211p.sensitivity -89dBm
param *.**.nic.phy80211p.thermalNoise -110dBm
param *.**.nic.phy80211p.usePropagationDelay true
param *.**.nic.phy80211p.useThermalNoise true
param *.annotations.draw false
param *.connectionManager.alpha 2.0
param *.connectionManager.carrierFrequency "5.890e9 Hz"
param *.connectionManager.pMax 20mW
param *.connectionManager.sat -89dBm
param *.connectionManager.sendDirect true
param *.manager.autoShutdown true
param *.manager.host "\"localhost\""
param *.manager.launchConfig "xmldoc(\"paramics.launchd.xml\")"
param *.manager.margin 25
param *.manager.moduleDisplayString "\"\""
param *.manager.moduleName "\"node\""
param *.manager.moduleType "\"org.car2x.veins.nodes.Car\""
param *.manager.port 9999
param *.manager.updateInterval 250ms
param *.node[*0].veinsmobility.accidentCount 0
param *.node[*0].veinsmobility.accidentDuration 30s
param *.node[*0].veinsmobility.accidentStart 75s
param *.node[*].appl.LiderSelectZoneRadio 55.0
param *.node[*].appl.ShareDataZoneRadio 110.0
param *.node[*].appl.TiempoSemaforo 30.0
param *.node[*].appl.beaconInterval 1s
param *.node[*].appl.beaconPriority 3
param *.node[*].appl.dataOnSch false
param *.node[*].appl.dataPriority 2
param *.node[*].appl.debug false
param *.node[*].appl.headerLength "256 bit"
param *.node[*].appl.maxOffset 0.005s
param *.node[*].appl.sendBeacons false
param *.node[*].appl.sendData true
param *.node[*].applType "\"Dummy\""
param *.node[*].mobilityType "\"TraCIMobility\""
param *.node[*].mobilityType.debug true
param *.node[*].veinsmobility.x 0
param *.node[*].veinsmobility.y 0
param *.node[*].veinsmobility.z 1.895
param *.node[*].veinsmobilityType "\"org.car2x.veins.modules.mobility.traci.TraCIMobility\""
param *.node[*].veinsmobilityType.debug true
param *.playgroundSizeX 8500m
param *.playgroundSizeY 8500m
param *.playgroundSizeZ 50m
param *.world.use2D false
param *.world.useTorus false

scalar IntersectionExampleScenario.node[0].appl 	VehicleRemoved 	0
scalar IntersectionExampleScenario.node[0].appl 	ArrivedAtDest 	1
scalar IntersectionExampleScenario.node[0].appl 	IntersectionEnterTime 	2.75
scalar IntersectionExampleScenario.node[0].appl 	IntersectionExitTime 	26.316717423586
scalar IntersectionExampleScenario.node[0].appl 	NumberOfCollisions 	0
scalar IntersectionExampleScenario.node[0].nic.phy80211p 	busyTime 	0
scalar IntersectionExampleScenario.node[0].nic.mac1609_4 	ReceivedUnicastPackets 	0
scalar IntersectionExampleScenario.node[0].nic.mac1609_4 	ReceivedBroadcasts 	0
scalar IntersectionExampleScenario.node[0].nic.mac1609_4 	SentPackets 	0
scalar IntersectionExampleScenario.node[0].nic.mac1609_4 	SNIRLostPackets 	0
scalar IntersectionExampleScenario.node[0].nic.mac1609_4 	RXTXLostPackets 	0
scalar IntersectionExampleScenario.node[0].nic.mac1609_4 	TotalLostPackets 	0
scalar IntersectionExampleScenario.node[0].nic.mac1609_4 	DroppedPacketsInMac 	0
scalar IntersectionExampleScenario.node[0].nic.mac1609_4 	TooLittleTime 	0
scalar IntersectionExampleScenario.node[0].nic.mac1609_4 	TimesIntoBackoff 	0
scalar IntersectionExampleScenario.node[0].nic.mac1609_4 	SlotsBackoff 	0
scalar IntersectionExampleScenario.node[0].nic.mac1609_4 	NumInternalContention 	0
scalar IntersectionExampleScenario.node[0].nic.mac1609_4 	totalBusyTime 	0
scalar IntersectionExampleScenario.node[0].veinsmobility 	startTime 	2.75
scalar IntersectionExampleScenario.node[0].veinsmobility 	totalTime 	39.75
scalar IntersectionExampleScenario.node[0].veinsmobility 	stopTime 	42.75
scalar IntersectionExampleScenario.node[0].veinsmobility 	minSpeed 	5.6500000953674
scalar IntersectionExampleScenario.node[0].veinsmobility 	maxSpeed 	15.875
scalar IntersectionExampleScenario.node[0].veinsmobility 	totalDistance 	543.1314204753
scalar IntersectionExampleScenario.node[0].veinsmobility 	totalCO2Emission 	129.26149308684
scalar IntersectionExampleScenario.node[1].appl 	VehicleRemoved 	0
scalar IntersectionExampleScenario.node[1].appl 	ArrivedAtDest 	1
scalar IntersectionExampleScenario.node[1].appl 	IntersectionEnterTime 	9.75
scalar IntersectionExampleScenario.node[1].appl 	IntersectionExitTime 	32.504177678755
scalar IntersectionExampleScenario.node[1].appl 	NumberOfCollisions 	0
scalar IntersectionExampleScenario.node[1].nic.phy80211p 	busyTime 	0
scalar IntersectionExampleScenario.node[1].nic.mac1609_4 	ReceivedUnicastPackets 	0
scalar IntersectionExampleScenario.node[1].nic.mac1609_4 	ReceivedBroadcasts 	0
scalar IntersectionExampleScenario.node[1].nic.mac1609_4 	SentPackets 	0
scalar IntersectionExampleScenario.node[1].nic.mac1609_4 	SNIRLostPackets 	0
scalar IntersectionExampleScenario.node[1].nic.mac1609_4 	RXTXLostPackets 	0
scalar IntersectionExampleScenario.node[1].nic.mac1609_4 	TotalLostPackets 	0
scalar IntersectionExampleScenario.node[1].nic.mac1609_4 	DroppedPacketsInMac 	0
scalar IntersectionExampleScenario.node[1].nic.mac1609_4 	TooLittleTime 	0
scalar IntersectionExampleScenario.node[1].nic.mac1609_4 	TimesIntoBackoff 	0
scalar IntersectionExampleScenario.node[1].nic.mac1609_4 	SlotsBackoff 	0
scalar IntersectionExampleScenario.node[1].nic.mac1609_4 	NumInternalContention 	0
scalar IntersectionExampleScenario.node[1].nic.mac1609_4 	totalBusyTime 	0
scalar IntersectionExampleScenario.node[1].veinsmobility 	startTime 	9.75
scalar IntersectionExampleScenario.node[1].veinsmobility 	totalTime 	38.75
scalar IntersectionExampleScenario.node[1].veinsmobility 	stopTime 	48.75
scalar IntersectionExampleScenario.node[1].veinsmobility 	minSpeed 	5.6500000953674
scalar IntersectionExampleScenario.node[1].veinsmobility 	maxSpeed 	16.5
scalar IntersectionExampleScenario.node[1].veinsmobility 	totalDistance 	543.52137311787
scalar IntersectionExampleScenario.node[1].veinsmobility 	totalCO2Emission 	131.42084703999
scalar IntersectionExampleScenario.node[2].appl 	VehicleRemoved 	0
scalar IntersectionExampleScenario.node[2].appl 	ArrivedAtDest 	1
scalar IntersectionExampleScenario.node[2].appl 	IntersectionEnterTime 	10.75
scalar IntersectionExampleScenario.node[2].appl 	IntersectionExitTime 	36.575760397362
scalar IntersectionExampleScenario.node[2].appl 	NumberOfCollisions 	0
scalar IntersectionExampleScenario.node[2].nic.phy80211p 	busyTime 	0
scalar IntersectionExampleScenario.node[2].nic.mac1609_4 	ReceivedUnicastPackets 	0
scalar IntersectionExampleScenario.node[2].nic.mac1609_4 	ReceivedBroadcasts 	0
scalar IntersectionExampleScenario.node[2].nic.mac1609_4 	SentPackets 	0
scalar IntersectionExampleScenario.node[2].nic.mac1609_4 	SNIRLostPackets 	0
scalar IntersectionExampleScenario.node[2].nic.mac1609_4 	RXTXLostPackets 	0
scalar IntersectionExampleScenario.node[2].nic.mac1609_4 	TotalLostPackets 	0
scalar IntersectionExampleScenario.node[2].nic.mac1609_4 	DroppedPacketsInMac 	0
scalar IntersectionExampleScenario.node[2].nic.mac1609_4 	TooLittleTime 	0
scalar IntersectionExampleScenario.node[2].nic.mac1609_4 	TimesIntoBackoff 	0
scalar IntersectionExampleScenario.node[2].nic.mac1609_4 	SlotsBackoff 	0
scalar IntersectionExampleScenario.node[2].nic.mac1609_4 	NumInternalContention 	0
scalar IntersectionExampleScenario.node[2].nic.mac1609_4 	totalBusyTime 	0
scalar IntersectionExampleScenario.node[2].veinsmobility 	startTime 	10.75
scalar IntersectionExampleScenario.node[2].veinsmobility 	totalTime 	43
scalar IntersectionExampleScenario.node[2].veinsmobility 	stopTime 	54
scalar IntersectionExampleScenario.node[2].veinsmobility 	minSpeed 	5.6500000953674
scalar IntersectionExampleScenario.node[2].veinsmobility 	maxSpeed 	14.750259399414
scalar IntersectionExampleScenario.node[2].veinsmobility 	totalDistance 	566.44999072655
scalar IntersectionExampleScenario.node[2].veinsmobility 	totalCO2Emission 	125.82114123101
scalar IntersectionExampleScenario.node[3].appl 	VehicleRemoved 	0
scalar IntersectionExampleScenario.node[3].appl 	ArrivedAtDest 	1
scalar IntersectionExampleScenario.node[3].appl 	IntersectionEnterTime 	33.75
scalar IntersectionExampleScenario.node[3].appl 	IntersectionExitTime 	57.065153253352
scalar IntersectionExampleScenario.node[3].appl 	NumberOfCollisions 	0
scalar IntersectionExampleScenario.node[3].nic.phy80211p 	busyTime 	0
scalar IntersectionExampleScenario.node[3].nic.mac1609_4 	ReceivedUnicastPackets 	0
scalar IntersectionExampleScenario.node[3].nic.mac1609_4 	ReceivedBroadcasts 	0
scalar IntersectionExampleScenario.node[3].nic.mac1609_4 	SentPackets 	0
scalar IntersectionExampleScenario.node[3].nic.mac1609_4 	SNIRLostPackets 	0
scalar IntersectionExampleScenario.node[3].nic.mac1609_4 	RXTXLostPackets 	0
scalar IntersectionExampleScenario.node[3].nic.mac1609_4 	TotalLostPackets 	0
scalar IntersectionExampleScenario.node[3].nic.mac1609_4 	DroppedPacketsInMac 	0
scalar IntersectionExampleScenario.node[3].nic.mac1609_4 	TooLittleTime 	0
scalar IntersectionExampleScenario.node[3].nic.mac1609_4 	TimesIntoBackoff 	0
scalar IntersectionExampleScenario.node[3].nic.mac1609_4 	SlotsBackoff 	0
scalar IntersectionExampleScenario.node[3].nic.mac1609_4 	NumInternalContention 	0
scalar IntersectionExampleScenario.node[3].nic.mac1609_4 	totalBusyTime 	0
scalar IntersectionExampleScenario.node[3].veinsmobility 	startTime 	33.75
scalar IntersectionExampleScenario.node[3].veinsmobility 	totalTime 	39.5
scalar IntersectionExampleScenario.node[3].veinsmobility 	stopTime 	73.5
scalar IntersectionExampleScenario.node[3].veinsmobility 	minSpeed 	5.6500000953674
scalar IntersectionExampleScenario.node[3].veinsmobility 	maxSpeed 	15.5
scalar IntersectionExampleScenario.node[3].veinsmobility 	totalDistance 	553.65596008301
scalar IntersectionExampleScenario.node[3].veinsmobility 	totalCO2Emission 	116.12893195025
scalar IntersectionExampleScenario.node[6].appl 	VehicleRemoved 	0
scalar IntersectionExampleScenario.node[6].appl 	ArrivedAtDest 	1
scalar IntersectionExampleScenario.node[6].appl 	IntersectionEnterTime 	39.75
scalar IntersectionExampleScenario.node[6].appl 	IntersectionExitTime 	62.852021037368
scalar IntersectionExampleScenario.node[6].appl 	NumberOfCollisions 	0
scalar IntersectionExampleScenario.node[6].nic.phy80211p 	busyTime 	0
scalar IntersectionExampleScenario.node[6].nic.mac1609_4 	ReceivedUnicastPackets 	0
scalar IntersectionExampleScenario.node[6].nic.mac1609_4 	ReceivedBroadcasts 	0
scalar IntersectionExampleScenario.node[6].nic.mac1609_4 	SentPackets 	0
scalar IntersectionExampleScenario.node[6].nic.mac1609_4 	SNIRLostPackets 	0
scalar IntersectionExampleScenario.node[6].nic.mac1609_4 	RXTXLostPackets 	0
scalar IntersectionExampleScenario.node[6].nic.mac1609_4 	TotalLostPackets 	0
scalar IntersectionExampleScenario.node[6].nic.mac1609_4 	DroppedPacketsInMac 	0
scalar IntersectionExampleScenario.node[6].nic.mac1609_4 	TooLittleTime 	0
scalar IntersectionExampleScenario.node[6].nic.mac1609_4 	TimesIntoBackoff 	0
scalar IntersectionExampleScenario.node[6].nic.mac1609_4 	SlotsBackoff 	0
scalar IntersectionExampleScenario.node[6].nic.mac1609_4 	NumInternalContention 	0
scalar IntersectionExampleScenario.node[6].nic.mac1609_4 	totalBusyTime 	0
scalar IntersectionExampleScenario.node[6].veinsmobility 	startTime 	39.75
scalar IntersectionExampleScenario.node[6].veinsmobility 	totalTime 	39.25
scalar IntersectionExampleScenario.node[6].veinsmobility 	stopTime 	79.25
scalar IntersectionExampleScenario.node[6].veinsmobility 	minSpeed 	5.6500000953674
scalar IntersectionExampleScenario.node[6].veinsmobility 	maxSpeed 	15.5
scalar IntersectionExampleScenario.node[6].veinsmobility 	totalDistance 	552.04515075684
scalar IntersectionExampleScenario.node[6].veinsmobility 	totalCO2Emission 	116.05476691069
scalar IntersectionExampleScenario.node[4].appl 	VehicleRemoved 	0
scalar IntersectionExampleScenario.node[4].appl 	ArrivedAtDest 	1
scalar IntersectionExampleScenario.node[4].appl 	IntersectionEnterTime 	34
scalar IntersectionExampleScenario.node[4].appl 	IntersectionExitTime 	73.52008959424
scalar IntersectionExampleScenario.node[4].appl 	NumberOfCollisions 	0
scalar IntersectionExampleScenario.node[4].nic.phy80211p 	busyTime 	0
scalar IntersectionExampleScenario.node[4].nic.mac1609_4 	ReceivedUnicastPackets 	0
scalar IntersectionExampleScenario.node[4].nic.mac1609_4 	ReceivedBroadcasts 	0
scalar IntersectionExampleScenario.node[4].nic.mac1609_4 	SentPackets 	0
scalar IntersectionExampleScenario.node[4].nic.mac1609_4 	SNIRLostPackets 	0
scalar IntersectionExampleScenario.node[4].nic.mac1609_4 	RXTXLostPackets 	0
scalar IntersectionExampleScenario.node[4].nic.mac1609_4 	TotalLostPackets 	0
scalar IntersectionExampleScenario.node[4].nic.mac1609_4 	DroppedPacketsInMac 	0
scalar IntersectionExampleScenario.node[4].nic.mac1609_4 	TooLittleTime 	0
scalar IntersectionExampleScenario.node[4].nic.mac1609_4 	TimesIntoBackoff 	0
scalar IntersectionExampleScenario.node[4].nic.mac1609_4 	SlotsBackoff 	0
scalar IntersectionExampleScenario.node[4].nic.mac1609_4 	NumInternalContention 	0
scalar IntersectionExampleScenario.node[4].nic.mac1609_4 	totalBusyTime 	0
scalar IntersectionExampleScenario.node[4].veinsmobility 	startTime 	34
scalar IntersectionExampleScenario.node[4].veinsmobility 	totalTime 	56.75
scalar IntersectionExampleScenario.node[4].veinsmobility 	stopTime 	91
scalar IntersectionExampleScenario.node[4].veinsmobility 	minSpeed 	0
scalar IntersectionExampleScenario.node[4].veinsmobility 	maxSpeed 	15.25
scalar IntersectionExampleScenario.node[4].veinsmobility 	totalDistance 	544.3806448117
scalar IntersectionExampleScenario.node[4].veinsmobility 	totalCO2Emission 	144.31941949431
scalar IntersectionExampleScenario.node[5].appl 	VehicleRemoved 	0
scalar IntersectionExampleScenario.node[5].appl 	ArrivedAtDest 	1
scalar IntersectionExampleScenario.node[5].appl 	IntersectionEnterTime 	36.25
scalar IntersectionExampleScenario.node[5].appl 	IntersectionExitTime 	84.51453412784
scalar IntersectionExampleScenario.node[5].appl 	NumberOfCollisions 	0
scalar IntersectionExampleScenario.node[5].nic.phy80211p 	busyTime 	0
scalar IntersectionExampleScenario.node[5].nic.mac1609_4 	ReceivedUnicastPackets 	0
scalar IntersectionExampleScenario.node[5].nic.mac1609_4 	ReceivedBroadcasts 	0
scalar IntersectionExampleScenario.node[5].nic.mac1609_4 	SentPackets 	0
scalar IntersectionExampleScenario.node[5].nic.mac1609_4 	SNIRLostPackets 	0
scalar IntersectionExampleScenario.node[5].nic.mac1609_4 	RXTXLostPackets 	0
scalar IntersectionExampleScenario.node[5].nic.mac1609_4 	TotalLostPackets 	0
scalar IntersectionExampleScenario.node[5].nic.mac1609_4 	DroppedPacketsInMac 	0
scalar IntersectionExampleScenario.node[5].nic.mac1609_4 	TooLittleTime 	0
scalar IntersectionExampleScenario.node[5].nic.mac1609_4 	TimesIntoBackoff 	0
scalar IntersectionExampleScenario.node[5].nic.mac1609_4 	SlotsBackoff 	0
scalar IntersectionExampleScenario.node[5].nic.mac1609_4 	NumInternalContention 	0
scalar IntersectionExampleScenario.node[5].nic.mac1609_4 	totalBusyTime 	0
scalar IntersectionExampleScenario.node[5].veinsmobility 	startTime 	36.25
scalar IntersectionExampleScenario.node[5].veinsmobility 	totalTime 	65
scalar IntersectionExampleScenario.node[5].veinsmobility 	stopTime 	101.5
scalar IntersectionExampleScenario.node[5].veinsmobility 	minSpeed 	0
scalar IntersectionExampleScenario.node[5].veinsmobility 	maxSpeed 	15.875
scalar IntersectionExampleScenario.node[5].veinsmobility 	totalDistance 	562.24661923796
scalar IntersectionExampleScenario.node[5].veinsmobility 	totalCO2Emission 	159.64513401578
scalar IntersectionExampleScenario.node[7].appl 	VehicleRemoved 	0
scalar IntersectionExampleScenario.node[7].appl 	ArrivedAtDest 	1
scalar IntersectionExampleScenario.node[7].appl 	IntersectionEnterTime 	41
scalar IntersectionExampleScenario.node[7].appl 	IntersectionExitTime 	86.290946183843
scalar IntersectionExampleScenario.node[7].appl 	NumberOfCollisions 	0
scalar IntersectionExampleScenario.node[7].nic.phy80211p 	busyTime 	0
scalar IntersectionExampleScenario.node[7].nic.mac1609_4 	ReceivedUnicastPackets 	0
scalar IntersectionExampleScenario.node[7].nic.mac1609_4 	ReceivedBroadcasts 	0
scalar IntersectionExampleScenario.node[7].nic.mac1609_4 	SentPackets 	0
scalar IntersectionExampleScenario.node[7].nic.mac1609_4 	SNIRLostPackets 	0
scalar IntersectionExampleScenario.node[7].nic.mac1609_4 	RXTXLostPackets 	0
scalar IntersectionExampleScenario.node[7].nic.mac1609_4 	TotalLostPackets 	0
scalar IntersectionExampleScenario.node[7].nic.mac1609_4 	DroppedPacketsInMac 	0
scalar IntersectionExampleScenario.node[7].nic.mac1609_4 	TooLittleTime 	0
scalar IntersectionExampleScenario.node[7].nic.mac1609_4 	TimesIntoBackoff 	0
scalar IntersectionExampleScenario.node[7].nic.mac1609_4 	SlotsBackoff 	0
scalar IntersectionExampleScenario.node[7].nic.mac1609_4 	NumInternalContention 	0
scalar IntersectionExampleScenario.node[7].nic.mac1609_4 	totalBusyTime 	0
scalar IntersectionExampleScenario.node[7].veinsmobility 	startTime 	41
scalar IntersectionExampleScenario.node[7].veinsmobility 	totalTime 	61.25
scalar IntersectionExampleScenario.node[7].veinsmobility 	stopTime 	102.5
scalar IntersectionExampleScenario.node[7].veinsmobility 	minSpeed 	0
scalar IntersectionExampleScenario.node[7].veinsmobility 	maxSpeed 	15.64999961853
scalar IntersectionExampleScenario.node[7].veinsmobility 	totalDistance 	560.46884155273
scalar IntersectionExampleScenario.node[7].veinsmobility 	totalCO2Emission 	154.29719911533
scalar IntersectionExampleScenario.node[8].appl 	VehicleRemoved 	0
scalar IntersectionExampleScenario.node[8].appl 	ArrivedAtDest 	1
scalar IntersectionExampleScenario.node[8].appl 	IntersectionEnterTime 	49.5
scalar IntersectionExampleScenario.node[8].appl 	IntersectionExitTime 	88.618789190543
scalar IntersectionExampleScenario.node[8].appl 	NumberOfCollisions 	0
scalar IntersectionExampleScenario.node[8].nic.phy80211p 	busyTime 	0
scalar IntersectionExampleScenario.node[8].nic.mac1609_4 	ReceivedUnicastPackets 	0
scalar IntersectionExampleScenario.node[8].nic.mac1609_4 	ReceivedBroadcasts 	0
scalar IntersectionExampleScenario.node[8].nic.mac1609_4 	SentPackets 	0
scalar IntersectionExampleScenario.node[8].nic.mac1609_4 	SNIRLostPackets 	0
scalar IntersectionExampleScenario.node[8].nic.mac1609_4 	RXTXLostPackets 	0
scalar IntersectionExampleScenario.node[8].nic.mac1609_4 	TotalLostPackets 	0
scalar IntersectionExampleScenario.node[8].nic.mac1609_4 	DroppedPacketsInMac 	0
scalar IntersectionExampleScenario.node[8].nic.mac1609_4 	TooLittleTime 	0
scalar IntersectionExampleScenario.node[8].nic.mac1609_4 	TimesIntoBackoff 	0
scalar IntersectionExampleScenario.node[8].nic.mac1609_4 	SlotsBackoff 	0
scalar IntersectionExampleScenario.node[8].nic.mac1609_4 	NumInternalContention 	0
scalar IntersectionExampleScenario.node[8].nic.mac1609_4 	totalBusyTime 	0
scalar IntersectionExampleScenario.node[8].veinsmobility 	startTime 	49.5
scalar IntersectionExampleScenario.node[8].veinsmobility 	totalTime 	55.75
scalar IntersectionExampleScenario.node[8].veinsmobility 	stopTime 	105.5
scalar IntersectionExampleScenario.node[8].veinsmobility 	minSpeed 	0
scalar IntersectionExampleScenario.node[8].veinsmobility 	maxSpeed 	15.875
scalar IntersectionExampleScenario.node[8].veinsmobility 	totalDistance 	545.95084436441
scalar IntersectionExampleScenario.node[8].veinsmobility 	totalCO2Emission 	145.29531628955
scalar IntersectionExampleScenario.node[10].appl 	VehicleRemoved 	0
scalar IntersectionExampleScenario.node[10].appl 	ArrivedAtDest 	1
scalar IntersectionExampleScenario.node[10].appl 	IntersectionEnterTime 	57.25
scalar IntersectionExampleScenario.node[10].appl 	IntersectionExitTime 	91.033571971871
scalar IntersectionExampleScenario.node[10].appl 	NumberOfCollisions 	0
scalar IntersectionExampleScenario.node[10].nic.phy80211p 	busyTime 	0
scalar IntersectionExampleScenario.node[10].nic.mac1609_4 	ReceivedUnicastPackets 	0
scalar IntersectionExampleScenario.node[10].nic.mac1609_4 	ReceivedBroadcasts 	0
scalar IntersectionExampleScenario.node[10].nic.mac1609_4 	SentPackets 	0
scalar IntersectionExampleScenario.node[10].nic.mac1609_4 	SNIRLostPackets 	0
scalar IntersectionExampleScenario.node[10].nic.mac1609_4 	RXTXLostPackets 	0
scalar IntersectionExampleScenario.node[10].nic.mac1609_4 	TotalLostPackets 	0
scalar IntersectionExampleScenario.node[10].nic.mac1609_4 	DroppedPacketsInMac 	0
scalar IntersectionExampleScenario.node[10].nic.mac1609_4 	TooLittleTime 	0
scalar IntersectionExampleScenario.node[10].nic.mac1609_4 	TimesIntoBackoff 	0
scalar IntersectionExampleScenario.node[10].nic.mac1609_4 	SlotsBackoff 	0
scalar IntersectionExampleScenario.node[10].nic.mac1609_4 	NumInternalContention 	0
scalar IntersectionExampleScenario.node[10].nic.mac1609_4 	totalBusyTime 	0
scalar IntersectionExampleScenario.node[10].veinsmobility 	startTime 	57.25
scalar IntersectionExampleScenario.node[10].veinsmobility 	totalTime 	50.75
scalar IntersectionExampleScenario.node[10].veinsmobility 	stopTime 	108.25
scalar IntersectionExampleScenario.node[10].veinsmobility 	minSpeed 	2.4450979232788
scalar IntersectionExampleScenario.node[10].veinsmobility 	maxSpeed 	15.25
scalar IntersectionExampleScenario.node[10].veinsmobility 	totalDistance 	546.30196397158
scalar IntersectionExampleScenario.node[10].veinsmobility 	totalCO2Emission 	137.75747444438
scalar IntersectionExampleScenario.node[9].appl 	VehicleRemoved 	0
scalar IntersectionExampleScenario.node[9].appl 	ArrivedAtDest 	1
scalar IntersectionExampleScenario.node[9].appl 	IntersectionEnterTime 	51.75
scalar IntersectionExampleScenario.node[9].appl 	IntersectionExitTime 	95.806413551152
scalar IntersectionExampleScenario.node[9].appl 	NumberOfCollisions 	0
scalar IntersectionExampleScenario.node[9].nic.phy80211p 	busyTime 	0
scalar IntersectionExampleScenario.node[9].nic.mac1609_4 	ReceivedUnicastPackets 	0
scalar IntersectionExampleScenario.node[9].nic.mac1609_4 	ReceivedBroadcasts 	0
scalar IntersectionExampleScenario.node[9].nic.mac1609_4 	SentPackets 	0
scalar IntersectionExampleScenario.node[9].nic.mac1609_4 	SNIRLostPackets 	0
scalar IntersectionExampleScenario.node[9].nic.mac1609_4 	RXTXLostPackets 	0
scalar IntersectionExampleScenario.node[9].nic.mac1609_4 	TotalLostPackets 	0
scalar IntersectionExampleScenario.node[9].nic.mac1609_4 	DroppedPacketsInMac 	0
scalar IntersectionExampleScenario.node[9].nic.mac1609_4 	TooLittleTime 	0
scalar IntersectionExampleScenario.node[9].nic.mac1609_4 	TimesIntoBackoff 	0
scalar IntersectionExampleScenario.node[9].nic.mac1609_4 	SlotsBackoff 	0
scalar IntersectionExampleScenario.node[9].nic.mac1609_4 	NumInternalContention 	0
scalar IntersectionExampleScenario.node[9].nic.mac1609_4 	totalBusyTime 	0
scalar IntersectionExampleScenario.node[9].veinsmobility 	startTime 	51.75
scalar IntersectionExampleScenario.node[9].veinsmobility 	totalTime 	60.25
scalar IntersectionExampleScenario.node[9].veinsmobility 	stopTime 	112.25
scalar IntersectionExampleScenario.node[9].veinsmobility 	minSpeed 	0
scalar IntersectionExampleScenario.node[9].veinsmobility 	maxSpeed 	15.64999961853
scalar IntersectionExampleScenario.node[9].veinsmobility 	totalDistance 	550.89402132463
scalar IntersectionExampleScenario.node[9].veinsmobility 	totalCO2Emission 	153.21519955834
scalar IntersectionExampleScenario.node[11].appl 	VehicleRemoved 	0
scalar IntersectionExampleScenario.node[11].appl 	ArrivedAtDest 	1
scalar IntersectionExampleScenario.node[11].appl 	IntersectionEnterTime 	63.5
scalar IntersectionExampleScenario.node[11].appl 	IntersectionExitTime 	96.252571544261
scalar IntersectionExampleScenario.node[11].appl 	NumberOfCollisions 	0
scalar IntersectionExampleScenario.node[11].nic.phy80211p 	busyTime 	0
scalar IntersectionExampleScenario.node[11].nic.mac1609_4 	ReceivedUnicastPackets 	0
scalar IntersectionExampleScenario.node[11].nic.mac1609_4 	ReceivedBroadcasts 	0
scalar IntersectionExampleScenario.node[11].nic.mac1609_4 	SentPackets 	0
scalar IntersectionExampleScenario.node[11].nic.mac1609_4 	SNIRLostPackets 	0
scalar IntersectionExampleScenario.node[11].nic.mac1609_4 	RXTXLostPackets 	0
scalar IntersectionExampleScenario.node[11].nic.mac1609_4 	TotalLostPackets 	0
scalar IntersectionExampleScenario.node[11].nic.mac1609_4 	DroppedPacketsInMac 	0
scalar IntersectionExampleScenario.node[11].nic.mac1609_4 	TooLittleTime 	0
scalar IntersectionExampleScenario.node[11].nic.mac1609_4 	TimesIntoBackoff 	0
scalar IntersectionExampleScenario.node[11].nic.mac1609_4 	SlotsBackoff 	0
scalar IntersectionExampleScenario.node[11].nic.mac1609_4 	NumInternalContention 	0
scalar IntersectionExampleScenario.node[11].nic.mac1609_4 	totalBusyTime 	0
scalar IntersectionExampleScenario.node[11].veinsmobility 	startTime 	63.5
scalar IntersectionExampleScenario.node[11].veinsmobility 	totalTime 	48.75
scalar IntersectionExampleScenario.node[11].veinsmobility 	stopTime 	112.5
scalar IntersectionExampleScenario.node[11].veinsmobility 	minSpeed 	0
scalar IntersectionExampleScenario.node[11].veinsmobility 	maxSpeed 	15.64999961853
scalar IntersectionExampleScenario.node[11].veinsmobility 	totalDistance 	549.41291917911
scalar IntersectionExampleScenario.node[11].veinsmobility 	totalCO2Emission 	141.33004036771
scalar IntersectionExampleScenario.node[14].appl 	VehicleRemoved 	0
scalar IntersectionExampleScenario.node[14].appl 	ArrivedAtDest 	1
scalar IntersectionExampleScenario.node[14].appl 	IntersectionEnterTime 	74.75
scalar IntersectionExampleScenario.node[14].appl 	IntersectionExitTime 	99.551277651626
scalar IntersectionExampleScenario.node[14].appl 	NumberOfCollisions 	0
scalar IntersectionExampleScenario.node[14].nic.phy80211p 	busyTime 	0
scalar IntersectionExampleScenario.node[14].nic.mac1609_4 	ReceivedUnicastPackets 	0
scalar IntersectionExampleScenario.node[14].nic.mac1609_4 	ReceivedBroadcasts 	0
scalar IntersectionExampleScenario.node[14].nic.mac1609_4 	SentPackets 	0
scalar IntersectionExampleScenario.node[14].nic.mac1609_4 	SNIRLostPackets 	0
scalar IntersectionExampleScenario.node[14].nic.mac1609_4 	RXTXLostPackets 	0
scalar IntersectionExampleScenario.node[14].nic.mac1609_4 	TotalLostPackets 	0
scalar IntersectionExampleScenario.node[14].nic.mac1609_4 	DroppedPacketsInMac 	0
scalar IntersectionExampleScenario.node[14].nic.mac1609_4 	TooLittleTime 	0
scalar IntersectionExampleScenario.node[14].nic.mac1609_4 	TimesIntoBackoff 	0
scalar IntersectionExampleScenario.node[14].nic.mac1609_4 	SlotsBackoff 	0
scalar IntersectionExampleScenario.node[14].nic.mac1609_4 	NumInternalContention 	0
scalar IntersectionExampleScenario.node[14].nic.mac1609_4 	totalBusyTime 	0
scalar IntersectionExampleScenario.node[14].veinsmobility 	startTime 	74.75
scalar IntersectionExampleScenario.node[14].veinsmobility 	totalTime 	41.5
scalar IntersectionExampleScenario.node[14].veinsmobility 	stopTime 	116.5
scalar IntersectionExampleScenario.node[14].veinsmobility 	minSpeed 	5.6500000953674
scalar IntersectionExampleScenario.node[14].veinsmobility 	maxSpeed 	15.375
scalar IntersectionExampleScenario.node[14].veinsmobility 	totalDistance 	552.04029537585
scalar IntersectionExampleScenario.node[14].veinsmobility 	totalCO2Emission 	132.15322827511
scalar IntersectionExampleScenario.node[15].appl 	VehicleRemoved 	0
scalar IntersectionExampleScenario.node[15].appl 	ArrivedAtDest 	1
scalar IntersectionExampleScenario.node[15].appl 	IntersectionEnterTime 	79
scalar IntersectionExampleScenario.node[15].appl 	IntersectionExitTime 	102.58669093248
scalar IntersectionExampleScenario.node[15].appl 	NumberOfCollisions 	0
scalar IntersectionExampleScenario.node[15].nic.phy80211p 	busyTime 	0
scalar IntersectionExampleScenario.node[15].nic.mac1609_4 	ReceivedUnicastPackets 	0
scalar IntersectionExampleScenario.node[15].nic.mac1609_4 	ReceivedBroadcasts 	0
scalar IntersectionExampleScenario.node[15].nic.mac1609_4 	SentPackets 	0
scalar IntersectionExampleScenario.node[15].nic.mac1609_4 	SNIRLostPackets 	0
scalar IntersectionExampleScenario.node[15].nic.mac1609_4 	RXTXLostPackets 	0
scalar IntersectionExampleScenario.node[15].nic.mac1609_4 	TotalLostPackets 	0
scalar IntersectionExampleScenario.node[15].nic.mac1609_4 	DroppedPacketsInMac 	0
scalar IntersectionExampleScenario.node[15].nic.mac1609_4 	TooLittleTime 	0
scalar IntersectionExampleScenario.node[15].nic.mac1609_4 	TimesIntoBackoff 	0
scalar IntersectionExampleScenario.node[15].nic.mac1609_4 	SlotsBackoff 	0
scalar IntersectionExampleScenario.node[15].nic.mac1609_4 	NumInternalContention 	0
scalar IntersectionExampleScenario.node[15].nic.mac1609_4 	totalBusyTime 	0
scalar IntersectionExampleScenario.node[15].veinsmobility 	startTime 	79
scalar IntersectionExampleScenario.node[15].veinsmobility 	totalTime 	40.25
scalar IntersectionExampleScenario.node[15].veinsmobility 	stopTime 	119.5
scalar IntersectionExampleScenario.node[15].veinsmobility 	minSpeed 	5.6500000953674
scalar IntersectionExampleScenario.node[15].veinsmobility 	maxSpeed 	15.375
scalar IntersectionExampleScenario.node[15].veinsmobility 	totalDistance 	551.98651175217
scalar IntersectionExampleScenario.node[15].veinsmobility 	totalCO2Emission 	120.88968681036
scalar IntersectionExampleScenario.node[17].appl 	VehicleRemoved 	0
scalar IntersectionExampleScenario.node[17].appl 	ArrivedAtDest 	1
scalar IntersectionExampleScenario.node[17].appl 	IntersectionEnterTime 	84
scalar IntersectionExampleScenario.node[17].appl 	IntersectionExitTime 	107.2791523331
scalar IntersectionExampleScenario.node[17].appl 	NumberOfCollisions 	0
scalar IntersectionExampleScenario.node[17].nic.phy80211p 	busyTime 	0
scalar IntersectionExampleScenario.node[17].nic.mac1609_4 	ReceivedUnicastPackets 	0
scalar IntersectionExampleScenario.node[17].nic.mac1609_4 	ReceivedBroadcasts 	0
scalar IntersectionExampleScenario.node[17].nic.mac1609_4 	SentPackets 	0
scalar IntersectionExampleScenario.node[17].nic.mac1609_4 	SNIRLostPackets 	0
scalar IntersectionExampleScenario.node[17].nic.mac1609_4 	RXTXLostPackets 	0
scalar IntersectionExampleScenario.node[17].nic.mac1609_4 	TotalLostPackets 	0
scalar IntersectionExampleScenario.node[17].nic.mac1609_4 	DroppedPacketsInMac 	0
scalar IntersectionExampleScenario.node[17].nic.mac1609_4 	TooLittleTime 	0
scalar IntersectionExampleScenario.node[17].nic.mac1609_4 	TimesIntoBackoff 	0
scalar IntersectionExampleScenario.node[17].nic.mac1609_4 	SlotsBackoff 	0
scalar IntersectionExampleScenario.node[17].nic.mac1609_4 	NumInternalContention 	0
scalar IntersectionExampleScenario.node[17].nic.mac1609_4 	totalBusyTime 	0
scalar IntersectionExampleScenario.node[17].veinsmobility 	startTime 	84
scalar IntersectionExampleScenario.node[17].veinsmobility 	totalTime 	39.75
scalar IntersectionExampleScenario.node[17].veinsmobility 	stopTime 	124
scalar IntersectionExampleScenario.node[17].veinsmobility 	minSpeed 	5.6500000953674
scalar IntersectionExampleScenario.node[17].veinsmobility 	maxSpeed 	15.375
scalar IntersectionExampleScenario.node[17].veinsmobility 	totalDistance 	552.68955290735
scalar IntersectionExampleScenario.node[17].veinsmobility 	totalCO2Emission 	122.72770639105
scalar IntersectionExampleScenario.node[12].appl 	VehicleRemoved 	0
scalar IntersectionExampleScenario.node[12].appl 	ArrivedAtDest 	1
scalar IntersectionExampleScenario.node[12].appl 	IntersectionEnterTime 	66.5
scalar IntersectionExampleScenario.node[12].appl 	IntersectionExitTime 	109.28298783823
scalar IntersectionExampleScenario.node[12].appl 	NumberOfCollisions 	0
scalar IntersectionExampleScenario.node[12].nic.phy80211p 	busyTime 	0
scalar IntersectionExampleScenario.node[12].nic.mac1609_4 	ReceivedUnicastPackets 	0
scalar IntersectionExampleScenario.node[12].nic.mac1609_4 	ReceivedBroadcasts 	0
scalar IntersectionExampleScenario.node[12].nic.mac1609_4 	SentPackets 	0
scalar IntersectionExampleScenario.node[12].nic.mac1609_4 	SNIRLostPackets 	0
scalar IntersectionExampleScenario.node[12].nic.mac1609_4 	RXTXLostPackets 	0
scalar IntersectionExampleScenario.node[12].nic.mac1609_4 	TotalLostPackets 	0
scalar IntersectionExampleScenario.node[12].nic.mac1609_4 	DroppedPacketsInMac 	0
scalar IntersectionExampleScenario.node[12].nic.mac1609_4 	TooLittleTime 	0
scalar IntersectionExampleScenario.node[12].nic.mac1609_4 	TimesIntoBackoff 	0
scalar IntersectionExampleScenario.node[12].nic.mac1609_4 	SlotsBackoff 	0
scalar IntersectionExampleScenario.node[12].nic.mac1609_4 	NumInternalContention 	0
scalar IntersectionExampleScenario.node[12].nic.mac1609_4 	totalBusyTime 	0
scalar IntersectionExampleScenario.node[12].veinsmobility 	startTime 	66.5
scalar IntersectionExampleScenario.node[12].veinsmobility 	totalTime 	59.5
scalar IntersectionExampleScenario.node[12].veinsmobility 	stopTime 	126.25
scalar IntersectionExampleScenario.node[12].veinsmobility 	minSpeed 	0
scalar IntersectionExampleScenario.node[12].veinsmobility 	maxSpeed 	15.02499961853
scalar IntersectionExampleScenario.node[12].veinsmobility 	totalDistance 	553.59940338135
scalar IntersectionExampleScenario.node[12].veinsmobility 	totalCO2Emission 	146.40862262687
scalar IntersectionExampleScenario.node[13].appl 	VehicleRemoved 	0
scalar IntersectionExampleScenario.node[13].appl 	ArrivedAtDest 	1
scalar IntersectionExampleScenario.node[13].appl 	IntersectionEnterTime 	67.75
scalar IntersectionExampleScenario.node[13].appl 	IntersectionExitTime 	110.30539994658
scalar IntersectionExampleScenario.node[13].appl 	NumberOfCollisions 	0
scalar IntersectionExampleScenario.node[13].nic.phy80211p 	busyTime 	0
scalar IntersectionExampleScenario.node[13].nic.mac1609_4 	ReceivedUnicastPackets 	0
scalar IntersectionExampleScenario.node[13].nic.mac1609_4 	ReceivedBroadcasts 	0
scalar IntersectionExampleScenario.node[13].nic.mac1609_4 	SentPackets 	0
scalar IntersectionExampleScenario.node[13].nic.mac1609_4 	SNIRLostPackets 	0
scalar IntersectionExampleScenario.node[13].nic.mac1609_4 	RXTXLostPackets 	0
scalar IntersectionExampleScenario.node[13].nic.mac1609_4 	TotalLostPackets 	0
scalar IntersectionExampleScenario.node[13].nic.mac1609_4 	DroppedPacketsInMac 	0
scalar IntersectionExampleScenario.node[13].nic.mac1609_4 	TooLittleTime 	0
scalar IntersectionExampleScenario.node[13].nic.mac1609_4 	TimesIntoBackoff 	0
scalar IntersectionExampleScenario.node[13].nic.mac1609_4 	SlotsBackoff 	0
scalar IntersectionExampleScenario.node[13].nic.mac1609_4 	NumInternalContention 	0
scalar IntersectionExampleScenario.node[13].nic.mac1609_4 	totalBusyTime 	0
scalar IntersectionExampleScenario.node[13].veinsmobility 	startTime 	67.75
scalar IntersectionExampleScenario.node[13].veinsmobility 	totalTime 	58.5
scalar IntersectionExampleScenario.node[13].veinsmobility 	stopTime 	126.5
scalar IntersectionExampleScenario.node[13].veinsmobility 	minSpeed 	0
scalar IntersectionExampleScenario.node[13].veinsmobility 	maxSpeed 	16
scalar IntersectionExampleScenario.node[13].veinsmobility 	totalDistance 	571.0131632445
scalar IntersectionExampleScenario.node[13].veinsmobility 	totalCO2Emission 	154.99797037591
scalar IntersectionExampleScenario.node[16].appl 	VehicleRemoved 	0
scalar IntersectionExampleScenario.node[16].appl 	ArrivedAtDest 	1
scalar IntersectionExampleScenario.node[16].appl 	IntersectionEnterTime 	81
scalar IntersectionExampleScenario.node[16].appl 	IntersectionExitTime 	112.07259597181
scalar IntersectionExampleScenario.node[16].appl 	NumberOfCollisions 	0
scalar IntersectionExampleScenario.node[16].nic.phy80211p 	busyTime 	0
scalar IntersectionExampleScenario.node[16].nic.mac1609_4 	ReceivedUnicastPackets 	0
scalar IntersectionExampleScenario.node[16].nic.mac1609_4 	ReceivedBroadcasts 	0
scalar IntersectionExampleScenario.node[16].nic.mac1609_4 	SentPackets 	0
scalar IntersectionExampleScenario.node[16].nic.mac1609_4 	SNIRLostPackets 	0
scalar IntersectionExampleScenario.node[16].nic.mac1609_4 	RXTXLostPackets 	0
scalar IntersectionExampleScenario.node[16].nic.mac1609_4 	TotalLostPackets 	0
scalar IntersectionExampleScenario.node[16].nic.mac1609_4 	DroppedPacketsInMac 	0
scalar IntersectionExampleScenario.node[16].nic.mac1609_4 	TooLittleTime 	0
scalar IntersectionExampleScenario.node[16].nic.mac1609_4 	TimesIntoBackoff 	0
scalar IntersectionExampleScenario.node[16].nic.mac1609_4 	SlotsBackoff 	0
scalar IntersectionExampleScenario.node[16].nic.mac1609_4 	NumInternalContention 	0
scalar IntersectionExampleScenario.node[16].nic.mac1609_4 	totalBusyTime 	0
scalar IntersectionExampleScenario.node[16].veinsmobility 	startTime 	81
scalar IntersectionExampleScenario.node[16].veinsmobility 	totalTime 	46.5
scalar IntersectionExampleScenario.node[16].veinsmobility 	stopTime 	127.75
scalar IntersectionExampleScenario.node[16].veinsmobility 	minSpeed 	2.4388976097107
scalar IntersectionExampleScenario.node[16].veinsmobility 	maxSpeed 	15.656980514526
scalar IntersectionExampleScenario.node[16].veinsmobility 	totalDistance 	550.84122467041
scalar IntersectionExampleScenario.node[16].veinsmobility 	totalCO2Emission 	138.11897859318
scalar IntersectionExampleScenario.node[19].appl 	VehicleRemoved 	0
scalar IntersectionExampleScenario.node[19].appl 	ArrivedAtDest 	1
scalar IntersectionExampleScenario.node[19].appl 	IntersectionEnterTime 	93.25
scalar IntersectionExampleScenario.node[19].appl 	IntersectionExitTime 	131.36931138945
scalar IntersectionExampleScenario.node[19].appl 	NumberOfCollisions 	0
scalar IntersectionExampleScenario.node[19].nic.phy80211p 	busyTime 	0
scalar IntersectionExampleScenario.node[19].nic.mac1609_4 	ReceivedUnicastPackets 	0
scalar IntersectionExampleScenario.node[19].nic.mac1609_4 	ReceivedBroadcasts 	0
scalar IntersectionExampleScenario.node[19].nic.mac1609_4 	SentPackets 	0
scalar IntersectionExampleScenario.node[19].nic.mac1609_4 	SNIRLostPackets 	0
scalar IntersectionExampleScenario.node[19].nic.mac1609_4 	RXTXLostPackets 	0
scalar IntersectionExampleScenario.node[19].nic.mac1609_4 	TotalLostPackets 	0
scalar IntersectionExampleScenario.node[19].nic.mac1609_4 	DroppedPacketsInMac 	0
scalar IntersectionExampleScenario.node[19].nic.mac1609_4 	TooLittleTime 	0
scalar IntersectionExampleScenario.node[19].nic.mac1609_4 	TimesIntoBackoff 	0
scalar IntersectionExampleScenario.node[19].nic.mac1609_4 	SlotsBackoff 	0
scalar IntersectionExampleScenario.node[19].nic.mac1609_4 	NumInternalContention 	0
scalar IntersectionExampleScenario.node[19].nic.mac1609_4 	totalBusyTime 	0
scalar IntersectionExampleScenario.node[19].veinsmobility 	startTime 	93.25
scalar IntersectionExampleScenario.node[19].veinsmobility 	totalTime 	53.5
scalar IntersectionExampleScenario.node[19].veinsmobility 	stopTime 	147
scalar IntersectionExampleScenario.node[19].veinsmobility 	minSpeed 	0
scalar IntersectionExampleScenario.node[19].veinsmobility 	maxSpeed 	16.27499961853
scalar IntersectionExampleScenario.node[19].veinsmobility 	totalDistance 	551.97518920898
scalar IntersectionExampleScenario.node[19].veinsmobility 	totalCO2Emission 	150.00094475557
scalar IntersectionExampleScenario.node[18].appl 	VehicleRemoved 	0
scalar IntersectionExampleScenario.node[18].appl 	ArrivedAtDest 	1
scalar IntersectionExampleScenario.node[18].appl 	IntersectionEnterTime 	88.25
scalar IntersectionExampleScenario.node[18].appl 	IntersectionExitTime 	130.60600195057
scalar IntersectionExampleScenario.node[18].appl 	NumberOfCollisions 	0
scalar IntersectionExampleScenario.node[18].nic.phy80211p 	busyTime 	0
scalar IntersectionExampleScenario.node[18].nic.mac1609_4 	ReceivedUnicastPackets 	0
scalar IntersectionExampleScenario.node[18].nic.mac1609_4 	ReceivedBroadcasts 	0
scalar IntersectionExampleScenario.node[18].nic.mac1609_4 	SentPackets 	0
scalar IntersectionExampleScenario.node[18].nic.mac1609_4 	SNIRLostPackets 	0
scalar IntersectionExampleScenario.node[18].nic.mac1609_4 	RXTXLostPackets 	0
scalar IntersectionExampleScenario.node[18].nic.mac1609_4 	TotalLostPackets 	0
scalar IntersectionExampleScenario.node[18].nic.mac1609_4 	DroppedPacketsInMac 	0
scalar IntersectionExampleScenario.node[18].nic.mac1609_4 	TooLittleTime 	0
scalar IntersectionExampleScenario.node[18].nic.mac1609_4 	TimesIntoBackoff 	0
scalar IntersectionExampleScenario.node[18].nic.mac1609_4 	SlotsBackoff 	0
scalar IntersectionExampleScenario.node[18].nic.mac1609_4 	NumInternalContention 	0
scalar IntersectionExampleScenario.node[18].nic.mac1609_4 	totalBusyTime 	0
scalar IntersectionExampleScenario.node[18].veinsmobility 	startTime 	88.25
scalar IntersectionExampleScenario.node[18].veinsmobility 	totalTime 	59.75
scalar IntersectionExampleScenario.node[18].veinsmobility 	stopTime 	148.25
scalar IntersectionExampleScenario.node[18].veinsmobility 	minSpeed 	0
scalar IntersectionExampleScenario.node[18].veinsmobility 	maxSpeed 	15.02499961853
scalar IntersectionExampleScenario.node[18].veinsmobility 	totalDistance 	545.64540006072
scalar IntersectionExampleScenario.node[18].veinsmobility 	totalCO2Emission 	145.95658476115
scalar IntersectionExampleScenario.node[20].appl 	VehicleRemoved 	0
scalar IntersectionExampleScenario.node[20].appl 	ArrivedAtDest 	1
scalar IntersectionExampleScenario.node[20].appl 	IntersectionEnterTime 	101.5
scalar IntersectionExampleScenario.node[20].appl 	IntersectionExitTime 	132.61770471395
scalar IntersectionExampleScenario.node[20].appl 	NumberOfCollisions 	0
scalar IntersectionExampleScenario.node[20].nic.phy80211p 	busyTime 	0
scalar IntersectionExampleScenario.node[20].nic.mac1609_4 	ReceivedUnicastPackets 	0
scalar IntersectionExampleScenario.node[20].nic.mac1609_4 	ReceivedBroadcasts 	0
scalar IntersectionExampleScenario.node[20].nic.mac1609_4 	SentPackets 	0
scalar IntersectionExampleScenario.node[20].nic.mac1609_4 	SNIRLostPackets 	0
scalar IntersectionExampleScenario.node[20].nic.mac1609_4 	RXTXLostPackets 	0
scalar IntersectionExampleScenario.node[20].nic.mac1609_4 	TotalLostPackets 	0
scalar IntersectionExampleScenario.node[20].nic.mac1609_4 	DroppedPacketsInMac 	0
scalar IntersectionExampleScenario.node[20].nic.mac1609_4 	TooLittleTime 	0
scalar IntersectionExampleScenario.node[20].nic.mac1609_4 	TimesIntoBackoff 	0
scalar IntersectionExampleScenario.node[20].nic.mac1609_4 	SlotsBackoff 	0
scalar IntersectionExampleScenario.node[20].nic.mac1609_4 	NumInternalContention 	0
scalar IntersectionExampleScenario.node[20].nic.mac1609_4 	totalBusyTime 	0
scalar IntersectionExampleScenario.node[20].veinsmobility 	startTime 	101.5
scalar IntersectionExampleScenario.node[20].veinsmobility 	totalTime 	47.75
scalar IntersectionExampleScenario.node[20].veinsmobility 	stopTime 	149.5
scalar IntersectionExampleScenario.node[20].veinsmobility 	minSpeed 	2.0798673629761
scalar IntersectionExampleScenario.node[20].veinsmobility 	maxSpeed 	15.64999961853
scalar IntersectionExampleScenario.node[20].veinsmobility 	totalDistance 	544.64269875664
scalar IntersectionExampleScenario.node[20].veinsmobility 	totalCO2Emission 	136.04318489569
scalar IntersectionExampleScenario.node[22].appl 	VehicleRemoved 	0
scalar IntersectionExampleScenario.node[22].appl 	ArrivedAtDest 	1
scalar IntersectionExampleScenario.node[22].appl 	IntersectionEnterTime 	116.25
scalar IntersectionExampleScenario.node[22].appl 	IntersectionExitTime 	140.36967717795
scalar IntersectionExampleScenario.node[22].appl 	NumberOfCollisions 	0
scalar IntersectionExampleScenario.node[22].nic.phy80211p 	busyTime 	0
scalar IntersectionExampleScenario.node[22].nic.mac1609_4 	ReceivedUnicastPackets 	0
scalar IntersectionExampleScenario.node[22].nic.mac1609_4 	ReceivedBroadcasts 	0
scalar IntersectionExampleScenario.node[22].nic.mac1609_4 	SentPackets 	0
scalar IntersectionExampleScenario.node[22].nic.mac1609_4 	SNIRLostPackets 	0
scalar IntersectionExampleScenario.node[22].nic.mac1609_4 	RXTXLostPackets 	0
scalar IntersectionExampleScenario.node[22].nic.mac1609_4 	TotalLostPackets 	0
scalar IntersectionExampleScenario.node[22].nic.mac1609_4 	DroppedPacketsInMac 	0
scalar IntersectionExampleScenario.node[22].nic.mac1609_4 	TooLittleTime 	0
scalar IntersectionExampleScenario.node[22].nic.mac1609_4 	TimesIntoBackoff 	0
scalar IntersectionExampleScenario.node[22].nic.mac1609_4 	SlotsBackoff 	0
scalar IntersectionExampleScenario.node[22].nic.mac1609_4 	NumInternalContention 	0
scalar IntersectionExampleScenario.node[22].nic.mac1609_4 	totalBusyTime 	0
scalar IntersectionExampleScenario.node[22].veinsmobility 	startTime 	116.25
scalar IntersectionExampleScenario.node[22].veinsmobility 	totalTime 	41.25
scalar IntersectionExampleScenario.node[22].veinsmobility 	stopTime 	157.75
scalar IntersectionExampleScenario.node[22].veinsmobility 	minSpeed 	5.6500000953674
scalar IntersectionExampleScenario.node[22].veinsmobility 	maxSpeed 	15.25
scalar IntersectionExampleScenario.node[22].veinsmobility 	totalDistance 	546.18887951475
scalar IntersectionExampleScenario.node[22].veinsmobility 	totalCO2Emission 	123.61051410106
scalar IntersectionExampleScenario.node[24].appl 	VehicleRemoved 	0
scalar IntersectionExampleScenario.node[24].appl 	ArrivedAtDest 	1
scalar IntersectionExampleScenario.node[24].appl 	IntersectionEnterTime 	127.25
scalar IntersectionExampleScenario.node[24].appl 	IntersectionExitTime 	150.25073866977
scalar IntersectionExampleScenario.node[24].appl 	NumberOfCollisions 	0
scalar IntersectionExampleScenario.node[24].nic.phy80211p 	busyTime 	0
scalar IntersectionExampleScenario.node[24].nic.mac1609_4 	ReceivedUnicastPackets 	0
scalar IntersectionExampleScenario.node[24].nic.mac1609_4 	ReceivedBroadcasts 	0
scalar IntersectionExampleScenario.node[24].nic.mac1609_4 	SentPackets 	0
scalar IntersectionExampleScenario.node[24].nic.mac1609_4 	SNIRLostPackets 	0
scalar IntersectionExampleScenario.node[24].nic.mac1609_4 	RXTXLostPackets 	0
scalar IntersectionExampleScenario.node[24].nic.mac1609_4 	TotalLostPackets 	0
scalar IntersectionExampleScenario.node[24].nic.mac1609_4 	DroppedPacketsInMac 	0
scalar IntersectionExampleScenario.node[24].nic.mac1609_4 	TooLittleTime 	0
scalar IntersectionExampleScenario.node[24].nic.mac1609_4 	TimesIntoBackoff 	0
scalar IntersectionExampleScenario.node[24].nic.mac1609_4 	SlotsBackoff 	0
scalar IntersectionExampleScenario.node[24].nic.mac1609_4 	NumInternalContention 	0
scalar IntersectionExampleScenario.node[24].nic.mac1609_4 	totalBusyTime 	0
scalar IntersectionExampleScenario.node[24].veinsmobility 	startTime 	127.25
scalar IntersectionExampleScenario.node[24].veinsmobility 	totalTime 	39.25
scalar IntersectionExampleScenario.node[24].veinsmobility 	stopTime 	166.75
scalar IntersectionExampleScenario.node[24].veinsmobility 	minSpeed 	5.6500000953674
scalar IntersectionExampleScenario.node[24].veinsmobility 	maxSpeed 	16.27499961853
scalar IntersectionExampleScenario.node[24].veinsmobility 	totalDistance 	543.07850254447
scalar IntersectionExampleScenario.node[24].veinsmobility 	totalCO2Emission 	129.34458986412
scalar IntersectionExampleScenario.node[21].appl 	VehicleRemoved 	0
scalar IntersectionExampleScenario.node[21].appl 	ArrivedAtDest 	1
scalar IntersectionExampleScenario.node[21].appl 	IntersectionEnterTime 	115.5
scalar IntersectionExampleScenario.node[21].appl 	IntersectionExitTime 	154.57742793372
scalar IntersectionExampleScenario.node[21].appl 	NumberOfCollisions 	0
scalar IntersectionExampleScenario.node[21].nic.phy80211p 	busyTime 	0
scalar IntersectionExampleScenario.node[21].nic.mac1609_4 	ReceivedUnicastPackets 	0
scalar IntersectionExampleScenario.node[21].nic.mac1609_4 	ReceivedBroadcasts 	0
scalar IntersectionExampleScenario.node[21].nic.mac1609_4 	SentPackets 	0
scalar IntersectionExampleScenario.node[21].nic.mac1609_4 	SNIRLostPackets 	0
scalar IntersectionExampleScenario.node[21].nic.mac1609_4 	RXTXLostPackets 	0
scalar IntersectionExampleScenario.node[21].nic.mac1609_4 	TotalLostPackets 	0
scalar IntersectionExampleScenario.node[21].nic.mac1609_4 	DroppedPacketsInMac 	0
scalar IntersectionExampleScenario.node[21].nic.mac1609_4 	TooLittleTime 	0
scalar IntersectionExampleScenario.node[21].nic.mac1609_4 	TimesIntoBackoff 	0
scalar IntersectionExampleScenario.node[21].nic.mac1609_4 	SlotsBackoff 	0
scalar IntersectionExampleScenario.node[21].nic.mac1609_4 	NumInternalContention 	0
scalar IntersectionExampleScenario.node[21].nic.mac1609_4 	totalBusyTime 	0
scalar IntersectionExampleScenario.node[21].veinsmobility 	startTime 	115.5
scalar IntersectionExampleScenario.node[21].veinsmobility 	totalTime 	56.5
scalar IntersectionExampleScenario.node[21].veinsmobility 	stopTime 	172.25
scalar IntersectionExampleScenario.node[21].veinsmobility 	minSpeed 	0
scalar IntersectionExampleScenario.node[21].veinsmobility 	maxSpeed 	15.02499961853
scalar IntersectionExampleScenario.node[21].veinsmobility 	totalDistance 	546.78794003875
scalar IntersectionExampleScenario.node[21].veinsmobility 	totalCO2Emission 	143.50978156232
scalar IntersectionExampleScenario.node[25].appl 	VehicleRemoved 	0
scalar IntersectionExampleScenario.node[25].appl 	ArrivedAtDest 	1
scalar IntersectionExampleScenario.node[25].appl 	IntersectionEnterTime 	134.25
scalar IntersectionExampleScenario.node[25].appl 	IntersectionExitTime 	159.07635088233
scalar IntersectionExampleScenario.node[25].appl 	NumberOfCollisions 	0
scalar IntersectionExampleScenario.node[25].nic.phy80211p 	busyTime 	0
scalar IntersectionExampleScenario.node[25].nic.mac1609_4 	ReceivedUnicastPackets 	0
scalar IntersectionExampleScenario.node[25].nic.mac1609_4 	ReceivedBroadcasts 	0
scalar IntersectionExampleScenario.node[25].nic.mac1609_4 	SentPackets 	0
scalar IntersectionExampleScenario.node[25].nic.mac1609_4 	SNIRLostPackets 	0
scalar IntersectionExampleScenario.node[25].nic.mac1609_4 	RXTXLostPackets 	0
scalar IntersectionExampleScenario.node[25].nic.mac1609_4 	TotalLostPackets 	0
scalar IntersectionExampleScenario.node[25].nic.mac1609_4 	DroppedPacketsInMac 	0
scalar IntersectionExampleScenario.node[25].nic.mac1609_4 	TooLittleTime 	0
scalar IntersectionExampleScenario.node[25].nic.mac1609_4 	TimesIntoBackoff 	0
scalar IntersectionExampleScenario.node[25].nic.mac1609_4 	SlotsBackoff 	0
scalar IntersectionExampleScenario.node[25].nic.mac1609_4 	NumInternalContention 	0
scalar IntersectionExampleScenario.node[25].nic.mac1609_4 	totalBusyTime 	0
scalar IntersectionExampleScenario.node[25].veinsmobility 	startTime 	134.25
scalar IntersectionExampleScenario.node[25].veinsmobility 	totalTime 	41.75
scalar IntersectionExampleScenario.node[25].veinsmobility 	stopTime 	176.25
scalar IntersectionExampleScenario.node[25].veinsmobility 	minSpeed 	5.6500000953674
scalar IntersectionExampleScenario.node[25].veinsmobility 	maxSpeed 	15.02499961853
scalar IntersectionExampleScenario.node[25].veinsmobility 	totalDistance 	545.72866243289
scalar IntersectionExampleScenario.node[25].veinsmobility 	totalCO2Emission 	136.81381440152
scalar IntersectionExampleScenario.node[27].appl 	VehicleRemoved 	0
scalar IntersectionExampleScenario.node[27].appl 	ArrivedAtDest 	1
scalar IntersectionExampleScenario.node[27].appl 	IntersectionEnterTime 	141
scalar IntersectionExampleScenario.node[27].appl 	IntersectionExitTime 	164.54718009755
scalar IntersectionExampleScenario.node[27].appl 	NumberOfCollisions 	0
scalar IntersectionExampleScenario.node[27].nic.phy80211p 	busyTime 	0
scalar IntersectionExampleScenario.node[27].nic.mac1609_4 	ReceivedUnicastPackets 	0
scalar IntersectionExampleScenario.node[27].nic.mac1609_4 	ReceivedBroadcasts 	0
scalar IntersectionExampleScenario.node[27].nic.mac1609_4 	SentPackets 	0
scalar IntersectionExampleScenario.node[27].nic.mac1609_4 	SNIRLostPackets 	0
scalar IntersectionExampleScenario.node[27].nic.mac1609_4 	RXTXLostPackets 	0
scalar IntersectionExampleScenario.node[27].nic.mac1609_4 	TotalLostPackets 	0
scalar IntersectionExampleScenario.node[27].nic.mac1609_4 	DroppedPacketsInMac 	0
scalar IntersectionExampleScenario.node[27].nic.mac1609_4 	TooLittleTime 	0
scalar IntersectionExampleScenario.node[27].nic.mac1609_4 	TimesIntoBackoff 	0
scalar IntersectionExampleScenario.node[27].nic.mac1609_4 	SlotsBackoff 	0
scalar IntersectionExampleScenario.node[27].nic.mac1609_4 	NumInternalContention 	0
scalar IntersectionExampleScenario.node[27].nic.mac1609_4 	totalBusyTime 	0
scalar IntersectionExampleScenario.node[27].veinsmobility 	startTime 	141
scalar IntersectionExampleScenario.node[27].veinsmobility 	totalTime 	40
scalar IntersectionExampleScenario.node[27].veinsmobility 	stopTime 	181.25
scalar IntersectionExampleScenario.node[27].veinsmobility 	minSpeed 	5.6500000953674
scalar IntersectionExampleScenario.node[27].veinsmobility 	maxSpeed 	15.375
scalar IntersectionExampleScenario.node[27].veinsmobility 	totalDistance 	552.06602614781
scalar IntersectionExampleScenario.node[27].veinsmobility 	totalCO2Emission 	121.63781060629
scalar IntersectionExampleScenario.node[23].appl 	VehicleRemoved 	0
scalar IntersectionExampleScenario.node[23].appl 	ArrivedAtDest 	1
scalar IntersectionExampleScenario.node[23].appl 	IntersectionEnterTime 	122
scalar IntersectionExampleScenario.node[23].appl 	IntersectionExitTime 	166.33611595901
scalar IntersectionExampleScenario.node[23].appl 	NumberOfCollisions 	0
scalar IntersectionExampleScenario.node[23].nic.phy80211p 	busyTime 	0
scalar IntersectionExampleScenario.node[23].nic.mac1609_4 	ReceivedUnicastPackets 	0
scalar IntersectionExampleScenario.node[23].nic.mac1609_4 	ReceivedBroadcasts 	0
scalar IntersectionExampleScenario.node[23].nic.mac1609_4 	SentPackets 	0
scalar IntersectionExampleScenario.node[23].nic.mac1609_4 	SNIRLostPackets 	0
scalar IntersectionExampleScenario.node[23].nic.mac1609_4 	RXTXLostPackets 	0
scalar IntersectionExampleScenario.node[23].nic.mac1609_4 	TotalLostPackets 	0
scalar IntersectionExampleScenario.node[23].nic.mac1609_4 	DroppedPacketsInMac 	0
scalar IntersectionExampleScenario.node[23].nic.mac1609_4 	TooLittleTime 	0
scalar IntersectionExampleScenario.node[23].nic.mac1609_4 	TimesIntoBackoff 	0
scalar IntersectionExampleScenario.node[23].nic.mac1609_4 	SlotsBackoff 	0
scalar IntersectionExampleScenario.node[23].nic.mac1609_4 	NumInternalContention 	0
scalar IntersectionExampleScenario.node[23].nic.mac1609_4 	totalBusyTime 	0
scalar IntersectionExampleScenario.node[23].veinsmobility 	startTime 	122
scalar IntersectionExampleScenario.node[23].veinsmobility 	totalTime 	60
scalar IntersectionExampleScenario.node[23].veinsmobility 	stopTime 	182.25
scalar IntersectionExampleScenario.node[23].veinsmobility 	minSpeed 	0
scalar IntersectionExampleScenario.node[23].veinsmobility 	maxSpeed 	15.888140678406
scalar IntersectionExampleScenario.node[23].veinsmobility 	totalDistance 	554.42138671875
scalar IntersectionExampleScenario.node[23].veinsmobility 	totalCO2Emission 	156.68655895205
scalar IntersectionExampleScenario.node[29].appl 	VehicleRemoved 	0
scalar IntersectionExampleScenario.node[29].appl 	ArrivedAtDest 	1
scalar IntersectionExampleScenario.node[29].appl 	IntersectionEnterTime 	144
scalar IntersectionExampleScenario.node[29].appl 	IntersectionExitTime 	167.59730917894
scalar IntersectionExampleScenario.node[29].appl 	NumberOfCollisions 	0
scalar IntersectionExampleScenario.node[29].nic.phy80211p 	busyTime 	0
scalar IntersectionExampleScenario.node[29].nic.mac1609_4 	ReceivedUnicastPackets 	0
scalar IntersectionExampleScenario.node[29].nic.mac1609_4 	ReceivedBroadcasts 	0
scalar IntersectionExampleScenario.node[29].nic.mac1609_4 	SentPackets 	0
scalar IntersectionExampleScenario.node[29].nic.mac1609_4 	SNIRLostPackets 	0
scalar IntersectionExampleScenario.node[29].nic.mac1609_4 	RXTXLostPackets 	0
scalar IntersectionExampleScenario.node[29].nic.mac1609_4 	TotalLostPackets 	0
scalar IntersectionExampleScenario.node[29].nic.mac1609_4 	DroppedPacketsInMac 	0
scalar IntersectionExampleScenario.node[29].nic.mac1609_4 	TooLittleTime 	0
scalar IntersectionExampleScenario.node[29].nic.mac1609_4 	TimesIntoBackoff 	0
scalar IntersectionExampleScenario.node[29].nic.mac1609_4 	SlotsBackoff 	0
scalar IntersectionExampleScenario.node[29].nic.mac1609_4 	NumInternalContention 	0
scalar IntersectionExampleScenario.node[29].nic.mac1609_4 	totalBusyTime 	0
scalar IntersectionExampleScenario.node[29].veinsmobility 	startTime 	144
scalar IntersectionExampleScenario.node[29].veinsmobility 	totalTime 	40.25
scalar IntersectionExampleScenario.node[29].veinsmobility 	stopTime 	184.5
scalar IntersectionExampleScenario.node[29].veinsmobility 	minSpeed 	5.6500000953674
scalar IntersectionExampleScenario.node[29].veinsmobility 	maxSpeed 	15.875
scalar IntersectionExampleScenario.node[29].veinsmobility 	totalDistance 	546.42542994488
scalar IntersectionExampleScenario.node[29].veinsmobility 	totalCO2Emission 	127.98525227851
scalar IntersectionExampleScenario.node[26].appl 	VehicleRemoved 	0
scalar IntersectionExampleScenario.node[26].appl 	ArrivedAtDest 	1
scalar IntersectionExampleScenario.node[26].appl 	IntersectionEnterTime 	138.5
scalar IntersectionExampleScenario.node[26].appl 	IntersectionExitTime 	167.85009177888
scalar IntersectionExampleScenario.node[26].appl 	NumberOfCollisions 	0
scalar IntersectionExampleScenario.node[26].nic.phy80211p 	busyTime 	0
scalar IntersectionExampleScenario.node[26].nic.mac1609_4 	ReceivedUnicastPackets 	0
scalar IntersectionExampleScenario.node[26].nic.mac1609_4 	ReceivedBroadcasts 	0
scalar IntersectionExampleScenario.node[26].nic.mac1609_4 	SentPackets 	0
scalar IntersectionExampleScenario.node[26].nic.mac1609_4 	SNIRLostPackets 	0
scalar IntersectionExampleScenario.node[26].nic.mac1609_4 	RXTXLostPackets 	0
scalar IntersectionExampleScenario.node[26].nic.mac1609_4 	TotalLostPackets 	0
scalar IntersectionExampleScenario.node[26].nic.mac1609_4 	DroppedPacketsInMac 	0
scalar IntersectionExampleScenario.node[26].nic.mac1609_4 	TooLittleTime 	0
scalar IntersectionExampleScenario.node[26].nic.mac1609_4 	TimesIntoBackoff 	0
scalar IntersectionExampleScenario.node[26].nic.mac1609_4 	SlotsBackoff 	0
scalar IntersectionExampleScenario.node[26].nic.mac1609_4 	NumInternalContention 	0
scalar IntersectionExampleScenario.node[26].nic.mac1609_4 	totalBusyTime 	0
scalar IntersectionExampleScenario.node[26].veinsmobility 	startTime 	138.5
scalar IntersectionExampleScenario.node[26].veinsmobility 	totalTime 	45.75
scalar IntersectionExampleScenario.node[26].veinsmobility 	stopTime 	184.5
scalar IntersectionExampleScenario.node[26].veinsmobility 	minSpeed 	3.0317652225494
scalar IntersectionExampleScenario.node[26].veinsmobility 	maxSpeed 	15.875
scalar IntersectionExampleScenario.node[26].veinsmobility 	totalDistance 	546.00232429108
scalar IntersectionExampleScenario.node[26].veinsmobility 	totalCO2Emission 	138.77823903678
scalar IntersectionExampleScenario.node[32].appl 	VehicleRemoved 	0
scalar IntersectionExampleScenario.node[32].appl 	ArrivedAtDest 	1
scalar IntersectionExampleScenario.node[32].appl 	IntersectionEnterTime 	153.5
scalar IntersectionExampleScenario.node[32].appl 	IntersectionExitTime 	176.81363361873
scalar IntersectionExampleScenario.node[32].appl 	NumberOfCollisions 	0
scalar IntersectionExampleScenario.node[32].nic.phy80211p 	busyTime 	0
scalar IntersectionExampleScenario.node[32].nic.mac1609_4 	ReceivedUnicastPackets 	0
scalar IntersectionExampleScenario.node[32].nic.mac1609_4 	ReceivedBroadcasts 	0
scalar IntersectionExampleScenario.node[32].nic.mac1609_4 	SentPackets 	0
scalar IntersectionExampleScenario.node[32].nic.mac1609_4 	SNIRLostPackets 	0
scalar IntersectionExampleScenario.node[32].nic.mac1609_4 	RXTXLostPackets 	0
scalar IntersectionExampleScenario.node[32].nic.mac1609_4 	TotalLostPackets 	0
scalar IntersectionExampleScenario.node[32].nic.mac1609_4 	DroppedPacketsInMac 	0
scalar IntersectionExampleScenario.node[32].nic.mac1609_4 	TooLittleTime 	0
scalar IntersectionExampleScenario.node[32].nic.mac1609_4 	TimesIntoBackoff 	0
scalar IntersectionExampleScenario.node[32].nic.mac1609_4 	SlotsBackoff 	0
scalar IntersectionExampleScenario.node[32].nic.mac1609_4 	NumInternalContention 	0
scalar IntersectionExampleScenario.node[32].nic.mac1609_4 	totalBusyTime 	0
scalar IntersectionExampleScenario.node[32].veinsmobility 	startTime 	153.5
scalar IntersectionExampleScenario.node[32].veinsmobility 	totalTime 	39.5
scalar IntersectionExampleScenario.node[32].veinsmobility 	stopTime 	193.25
scalar IntersectionExampleScenario.node[32].veinsmobility 	minSpeed 	5.6500000953674
scalar IntersectionExampleScenario.node[32].veinsmobility 	maxSpeed 	15.5
scalar IntersectionExampleScenario.node[32].veinsmobility 	totalDistance 	553.65596008301
scalar IntersectionExampleScenario.node[32].veinsmobility 	totalCO2Emission 	116.12893195025
scalar IntersectionExampleScenario.node[28].appl 	VehicleRemoved 	0
scalar IntersectionExampleScenario.node[28].appl 	ArrivedAtDest 	1
scalar IntersectionExampleScenario.node[28].appl 	IntersectionEnterTime 	143.75
scalar IntersectionExampleScenario.node[28].appl 	IntersectionExitTime 	179.30237685354
scalar IntersectionExampleScenario.node[28].appl 	NumberOfCollisions 	0
scalar IntersectionExampleScenario.node[28].nic.phy80211p 	busyTime 	0
scalar IntersectionExampleScenario.node[28].nic.mac1609_4 	ReceivedUnicastPackets 	0
scalar IntersectionExampleScenario.node[28].nic.mac1609_4 	ReceivedBroadcasts 	0
scalar IntersectionExampleScenario.node[28].nic.mac1609_4 	SentPackets 	0
scalar IntersectionExampleScenario.node[28].nic.mac1609_4 	SNIRLostPackets 	0
scalar IntersectionExampleScenario.node[28].nic.mac1609_4 	RXTXLostPackets 	0
scalar IntersectionExampleScenario.node[28].nic.mac1609_4 	TotalLostPackets 	0
scalar IntersectionExampleScenario.node[28].nic.mac1609_4 	DroppedPacketsInMac 	0
scalar IntersectionExampleScenario.node[28].nic.mac1609_4 	TooLittleTime 	0
scalar IntersectionExampleScenario.node[28].nic.mac1609_4 	TimesIntoBackoff 	0
scalar IntersectionExampleScenario.node[28].nic.mac1609_4 	SlotsBackoff 	0
scalar IntersectionExampleScenario.node[28].nic.mac1609_4 	NumInternalContention 	0
scalar IntersectionExampleScenario.node[28].nic.mac1609_4 	totalBusyTime 	0
scalar IntersectionExampleScenario.node[28].veinsmobility 	startTime 	143.75
scalar IntersectionExampleScenario.node[28].veinsmobility 	totalTime 	51.25
scalar IntersectionExampleScenario.node[28].veinsmobility 	stopTime 	195.25
scalar IntersectionExampleScenario.node[28].veinsmobility 	minSpeed 	0
scalar IntersectionExampleScenario.node[28].veinsmobility 	maxSpeed 	16.27499961853
scalar IntersectionExampleScenario.node[28].veinsmobility 	totalDistance 	551.15823473086
scalar IntersectionExampleScenario.node[28].veinsmobility 	totalCO2Emission 	147.66209139951
scalar IntersectionExampleScenario.node[30].appl 	VehicleRemoved 	0
scalar IntersectionExampleScenario.node[30].appl 	ArrivedAtDest 	1
scalar IntersectionExampleScenario.node[30].appl 	IntersectionEnterTime 	147.75
scalar IntersectionExampleScenario.node[30].appl 	IntersectionExitTime 	180.34350654672
scalar IntersectionExampleScenario.node[30].appl 	NumberOfCollisions 	0
scalar IntersectionExampleScenario.node[30].nic.phy80211p 	busyTime 	0
scalar IntersectionExampleScenario.node[30].nic.mac1609_4 	ReceivedUnicastPackets 	0
scalar IntersectionExampleScenario.node[30].nic.mac1609_4 	ReceivedBroadcasts 	0
scalar IntersectionExampleScenario.node[30].nic.mac1609_4 	SentPackets 	0
scalar IntersectionExampleScenario.node[30].nic.mac1609_4 	SNIRLostPackets 	0
scalar IntersectionExampleScenario.node[30].nic.mac1609_4 	RXTXLostPackets 	0
scalar IntersectionExampleScenario.node[30].nic.mac1609_4 	TotalLostPackets 	0
scalar IntersectionExampleScenario.node[30].nic.mac1609_4 	DroppedPacketsInMac 	0
scalar IntersectionExampleScenario.node[30].nic.mac1609_4 	TooLittleTime 	0
scalar IntersectionExampleScenario.node[30].nic.mac1609_4 	TimesIntoBackoff 	0
scalar IntersectionExampleScenario.node[30].nic.mac1609_4 	SlotsBackoff 	0
scalar IntersectionExampleScenario.node[30].nic.mac1609_4 	NumInternalContention 	0
scalar IntersectionExampleScenario.node[30].nic.mac1609_4 	totalBusyTime 	0
scalar IntersectionExampleScenario.node[30].veinsmobility 	startTime 	147.75
scalar IntersectionExampleScenario.node[30].veinsmobility 	totalTime 	49.25
scalar IntersectionExampleScenario.node[30].veinsmobility 	stopTime 	197.25
scalar IntersectionExampleScenario.node[30].veinsmobility 	minSpeed 	0
scalar IntersectionExampleScenario.node[30].veinsmobility 	maxSpeed 	15.25
scalar IntersectionExampleScenario.node[30].veinsmobility 	totalDistance 	549.10624307528
scalar IntersectionExampleScenario.node[30].veinsmobility 	totalCO2Emission 	137.12701372511
scalar IntersectionExampleScenario.node[31].appl 	VehicleRemoved 	0
scalar IntersectionExampleScenario.node[31].appl 	ArrivedAtDest 	1
scalar IntersectionExampleScenario.node[31].appl 	IntersectionEnterTime 	148
scalar IntersectionExampleScenario.node[31].appl 	IntersectionExitTime 	189.51930401361
scalar IntersectionExampleScenario.node[31].appl 	NumberOfCollisions 	0
scalar IntersectionExampleScenario.node[31].nic.phy80211p 	busyTime 	0
scalar IntersectionExampleScenario.node[31].nic.mac1609_4 	ReceivedUnicastPackets 	0
scalar IntersectionExampleScenario.node[31].nic.mac1609_4 	ReceivedBroadcasts 	0
scalar IntersectionExampleScenario.node[31].nic.mac1609_4 	SentPackets 	0
scalar IntersectionExampleScenario.node[31].nic.mac1609_4 	SNIRLostPackets 	0
scalar IntersectionExampleScenario.node[31].nic.mac1609_4 	RXTXLostPackets 	0
scalar IntersectionExampleScenario.node[31].nic.mac1609_4 	TotalLostPackets 	0
scalar IntersectionExampleScenario.node[31].nic.mac1609_4 	DroppedPacketsInMac 	0
scalar IntersectionExampleScenario.node[31].nic.mac1609_4 	TooLittleTime 	0
scalar IntersectionExampleScenario.node[31].nic.mac1609_4 	TimesIntoBackoff 	0
scalar IntersectionExampleScenario.node[31].nic.mac1609_4 	SlotsBackoff 	0
scalar IntersectionExampleScenario.node[31].nic.mac1609_4 	NumInternalContention 	0
scalar IntersectionExampleScenario.node[31].nic.mac1609_4 	totalBusyTime 	0
scalar IntersectionExampleScenario.node[31].veinsmobility 	startTime 	148
scalar IntersectionExampleScenario.node[31].veinsmobility 	totalTime 	58
scalar IntersectionExampleScenario.node[31].veinsmobility 	stopTime 	206.25
scalar IntersectionExampleScenario.node[31].veinsmobility 	minSpeed 	0
scalar IntersectionExampleScenario.node[31].veinsmobility 	maxSpeed 	15.875
scalar IntersectionExampleScenario.node[31].veinsmobility 	totalDistance 	545.34079648406
scalar IntersectionExampleScenario.node[31].veinsmobility 	totalCO2Emission 	152.45562286765
scalar IntersectionExampleScenario.node[35].appl 	VehicleRemoved 	0
scalar IntersectionExampleScenario.node[35].appl 	ArrivedAtDest 	1
scalar IntersectionExampleScenario.node[35].appl 	IntersectionEnterTime 	171.75
scalar IntersectionExampleScenario.node[35].appl 	IntersectionExitTime 	201.2809344334
scalar IntersectionExampleScenario.node[35].appl 	NumberOfCollisions 	0
scalar IntersectionExampleScenario.node[35].nic.phy80211p 	busyTime 	0
scalar IntersectionExampleScenario.node[35].nic.mac1609_4 	ReceivedUnicastPackets 	0
scalar IntersectionExampleScenario.node[35].nic.mac1609_4 	ReceivedBroadcasts 	0
scalar IntersectionExampleScenario.node[35].nic.mac1609_4 	SentPackets 	0
scalar IntersectionExampleScenario.node[35].nic.mac1609_4 	SNIRLostPackets 	0
scalar IntersectionExampleScenario.node[35].nic.mac1609_4 	RXTXLostPackets 	0
scalar IntersectionExampleScenario.node[35].nic.mac1609_4 	TotalLostPackets 	0
scalar IntersectionExampleScenario.node[35].nic.mac1609_4 	DroppedPacketsInMac 	0
scalar IntersectionExampleScenario.node[35].nic.mac1609_4 	TooLittleTime 	0
scalar IntersectionExampleScenario.node[35].nic.mac1609_4 	TimesIntoBackoff 	0
scalar IntersectionExampleScenario.node[35].nic.mac1609_4 	SlotsBackoff 	0
scalar IntersectionExampleScenario.node[35].nic.mac1609_4 	NumInternalContention 	0
scalar IntersectionExampleScenario.node[35].nic.mac1609_4 	totalBusyTime 	0
scalar IntersectionExampleScenario.node[35].veinsmobility 	startTime 	171.75
scalar IntersectionExampleScenario.node[35].veinsmobility 	totalTime 	44.5
scalar IntersectionExampleScenario.node[35].veinsmobility 	stopTime 	216.5
scalar IntersectionExampleScenario.node[35].veinsmobility 	minSpeed 	0
scalar IntersectionExampleScenario.node[35].veinsmobility 	maxSpeed 	16.89999961853
scalar IntersectionExampleScenario.node[35].veinsmobility 	totalDistance 	548.27070726504
scalar IntersectionExampleScenario.node[35].veinsmobility 	totalCO2Emission 	146.5454301707
scalar IntersectionExampleScenario.node[33].appl 	VehicleRemoved 	0
scalar IntersectionExampleScenario.node[33].appl 	ArrivedAtDest 	1
scalar IntersectionExampleScenario.node[33].appl 	IntersectionEnterTime 	161.25
scalar IntersectionExampleScenario.node[33].appl 	IntersectionExitTime 	200.77322854951
scalar IntersectionExampleScenario.node[33].appl 	NumberOfCollisions 	0
scalar IntersectionExampleScenario.node[33].nic.phy80211p 	busyTime 	0
scalar IntersectionExampleScenario.node[33].nic.mac1609_4 	ReceivedUnicastPackets 	0
scalar IntersectionExampleScenario.node[33].nic.mac1609_4 	ReceivedBroadcasts 	0
scalar IntersectionExampleScenario.node[33].nic.mac1609_4 	SentPackets 	0
scalar IntersectionExampleScenario.node[33].nic.mac1609_4 	SNIRLostPackets 	0
scalar IntersectionExampleScenario.node[33].nic.mac1609_4 	RXTXLostPackets 	0
scalar IntersectionExampleScenario.node[33].nic.mac1609_4 	TotalLostPackets 	0
scalar IntersectionExampleScenario.node[33].nic.mac1609_4 	DroppedPacketsInMac 	0
scalar IntersectionExampleScenario.node[33].nic.mac1609_4 	TooLittleTime 	0
scalar IntersectionExampleScenario.node[33].nic.mac1609_4 	TimesIntoBackoff 	0
scalar IntersectionExampleScenario.node[33].nic.mac1609_4 	SlotsBackoff 	0
scalar IntersectionExampleScenario.node[33].nic.mac1609_4 	NumInternalContention 	0
scalar IntersectionExampleScenario.node[33].nic.mac1609_4 	totalBusyTime 	0
scalar IntersectionExampleScenario.node[33].veinsmobility 	startTime 	161.25
scalar IntersectionExampleScenario.node[33].veinsmobility 	totalTime 	56
scalar IntersectionExampleScenario.node[33].veinsmobility 	stopTime 	217.5
scalar IntersectionExampleScenario.node[33].veinsmobility 	minSpeed 	0
scalar IntersectionExampleScenario.node[33].veinsmobility 	maxSpeed 	15.375
scalar IntersectionExampleScenario.node[33].veinsmobility 	totalDistance 	548.67948275041
scalar IntersectionExampleScenario.node[33].veinsmobility 	totalCO2Emission 	144.80616486863
scalar IntersectionExampleScenario.node[37].appl 	VehicleRemoved 	0
scalar IntersectionExampleScenario.node[37].appl 	ArrivedAtDest 	1
scalar IntersectionExampleScenario.node[37].appl 	IntersectionEnterTime 	175.75
scalar IntersectionExampleScenario.node[37].appl 	IntersectionExitTime 	202.3097947136
scalar IntersectionExampleScenario.node[37].appl 	NumberOfCollisions 	0
scalar IntersectionExampleScenario.node[37].nic.phy80211p 	busyTime 	0
scalar IntersectionExampleScenario.node[37].nic.mac1609_4 	ReceivedUnicastPackets 	0
scalar IntersectionExampleScenario.node[37].nic.mac1609_4 	ReceivedBroadcasts 	0
scalar IntersectionExampleScenario.node[37].nic.mac1609_4 	SentPackets 	0
scalar IntersectionExampleScenario.node[37].nic.mac1609_4 	SNIRLostPackets 	0
scalar IntersectionExampleScenario.node[37].nic.mac1609_4 	RXTXLostPackets 	0
scalar IntersectionExampleScenario.node[37].nic.mac1609_4 	TotalLostPackets 	0
scalar IntersectionExampleScenario.node[37].nic.mac1609_4 	DroppedPacketsInMac 	0
scalar IntersectionExampleScenario.node[37].nic.mac1609_4 	TooLittleTime 	0
scalar IntersectionExampleScenario.node[37].nic.mac1609_4 	TimesIntoBackoff 	0
scalar IntersectionExampleScenario.node[37].nic.mac1609_4 	SlotsBackoff 	0
scalar IntersectionExampleScenario.node[37].nic.mac1609_4 	NumInternalContention 	0
scalar IntersectionExampleScenario.node[37].nic.mac1609_4 	totalBusyTime 	0
scalar IntersectionExampleScenario.node[37].veinsmobility 	startTime 	175.75
scalar IntersectionExampleScenario.node[37].veinsmobility 	totalTime 	42.25
scalar IntersectionExampleScenario.node[37].veinsmobility 	stopTime 	218.25
scalar IntersectionExampleScenario.node[37].veinsmobility 	minSpeed 	3.8233258724213
scalar IntersectionExampleScenario.node[37].veinsmobility 	maxSpeed 	16.125
scalar IntersectionExampleScenario.node[37].veinsmobility 	totalDistance 	559.65219116211
scalar IntersectionExampleScenario.node[37].veinsmobility 	totalCO2Emission 	133.8981234554
scalar IntersectionExampleScenario.node[34].appl 	VehicleRemoved 	0
scalar IntersectionExampleScenario.node[34].appl 	ArrivedAtDest 	1
scalar IntersectionExampleScenario.node[34].appl 	IntersectionEnterTime 	169
scalar IntersectionExampleScenario.node[34].appl 	IntersectionExitTime 	202.29153237355
scalar IntersectionExampleScenario.node[34].appl 	NumberOfCollisions 	0
scalar IntersectionExampleScenario.node[34].nic.phy80211p 	busyTime 	0
scalar IntersectionExampleScenario.node[34].nic.mac1609_4 	ReceivedUnicastPackets 	0
scalar IntersectionExampleScenario.node[34].nic.mac1609_4 	ReceivedBroadcasts 	0
scalar IntersectionExampleScenario.node[34].nic.mac1609_4 	SentPackets 	0
scalar IntersectionExampleScenario.node[34].nic.mac1609_4 	SNIRLostPackets 	0
scalar IntersectionExampleScenario.node[34].nic.mac1609_4 	RXTXLostPackets 	0
scalar IntersectionExampleScenario.node[34].nic.mac1609_4 	TotalLostPackets 	0
scalar IntersectionExampleScenario.node[34].nic.mac1609_4 	DroppedPacketsInMac 	0
scalar IntersectionExampleScenario.node[34].nic.mac1609_4 	TooLittleTime 	0
scalar IntersectionExampleScenario.node[34].nic.mac1609_4 	TimesIntoBackoff 	0
scalar IntersectionExampleScenario.node[34].nic.mac1609_4 	SlotsBackoff 	0
scalar IntersectionExampleScenario.node[34].nic.mac1609_4 	NumInternalContention 	0
scalar IntersectionExampleScenario.node[34].nic.mac1609_4 	totalBusyTime 	0
scalar IntersectionExampleScenario.node[34].veinsmobility 	startTime 	169
scalar IntersectionExampleScenario.node[34].veinsmobility 	totalTime 	49.25
scalar IntersectionExampleScenario.node[34].veinsmobility 	stopTime 	218.5
scalar IntersectionExampleScenario.node[34].veinsmobility 	minSpeed 	1.0788387060165
scalar IntersectionExampleScenario.node[34].veinsmobility 	maxSpeed 	15.64999961853
scalar IntersectionExampleScenario.node[34].veinsmobility 	totalDistance 	552.52027893066
scalar IntersectionExampleScenario.node[34].veinsmobility 	totalCO2Emission 	137.12352165171
scalar IntersectionExampleScenario.node[36].appl 	VehicleRemoved 	0
scalar IntersectionExampleScenario.node[36].appl 	ArrivedAtDest 	1
scalar IntersectionExampleScenario.node[36].appl 	IntersectionEnterTime 	175
scalar IntersectionExampleScenario.node[36].appl 	IntersectionExitTime 	204.61410574612
scalar IntersectionExampleScenario.node[36].appl 	NumberOfCollisions 	0
scalar IntersectionExampleScenario.node[36].nic.phy80211p 	busyTime 	0
scalar IntersectionExampleScenario.node[36].nic.mac1609_4 	ReceivedUnicastPackets 	0
scalar IntersectionExampleScenario.node[36].nic.mac1609_4 	ReceivedBroadcasts 	0
scalar IntersectionExampleScenario.node[36].nic.mac1609_4 	SentPackets 	0
scalar IntersectionExampleScenario.node[36].nic.mac1609_4 	SNIRLostPackets 	0
scalar IntersectionExampleScenario.node[36].nic.mac1609_4 	RXTXLostPackets 	0
scalar IntersectionExampleScenario.node[36].nic.mac1609_4 	TotalLostPackets 	0
scalar IntersectionExampleScenario.node[36].nic.mac1609_4 	DroppedPacketsInMac 	0
scalar IntersectionExampleScenario.node[36].nic.mac1609_4 	TooLittleTime 	0
scalar IntersectionExampleScenario.node[36].nic.mac1609_4 	TimesIntoBackoff 	0
scalar IntersectionExampleScenario.node[36].nic.mac1609_4 	SlotsBackoff 	0
scalar IntersectionExampleScenario.node[36].nic.mac1609_4 	NumInternalContention 	0
scalar IntersectionExampleScenario.node[36].nic.mac1609_4 	totalBusyTime 	0
scalar IntersectionExampleScenario.node[36].veinsmobility 	startTime 	175
scalar IntersectionExampleScenario.node[36].veinsmobility 	totalTime 	45.5
scalar IntersectionExampleScenario.node[36].veinsmobility 	stopTime 	220.75
scalar IntersectionExampleScenario.node[36].veinsmobility 	minSpeed 	4.9774608612061
scalar IntersectionExampleScenario.node[36].veinsmobility 	maxSpeed 	15.64999961853
scalar IntersectionExampleScenario.node[36].veinsmobility 	totalDistance 	551.48120117188
scalar IntersectionExampleScenario.node[36].veinsmobility 	totalCO2Emission 	133.1374531085
scalar IntersectionExampleScenario.node[38].appl 	VehicleRemoved 	0
scalar IntersectionExampleScenario.node[38].appl 	ArrivedAtDest 	1
scalar IntersectionExampleScenario.node[38].appl 	IntersectionEnterTime 	175.75
scalar IntersectionExampleScenario.node[38].appl 	IntersectionExitTime 	207.0036697663
scalar IntersectionExampleScenario.node[38].appl 	NumberOfCollisions 	0
scalar IntersectionExampleScenario.node[38].nic.phy80211p 	busyTime 	0
scalar IntersectionExampleScenario.node[38].nic.mac1609_4 	ReceivedUnicastPackets 	0
scalar IntersectionExampleScenario.node[38].nic.mac1609_4 	ReceivedBroadcasts 	0
scalar IntersectionExampleScenario.node[38].nic.mac1609_4 	SentPackets 	0
scalar IntersectionExampleScenario.node[38].nic.mac1609_4 	SNIRLostPackets 	0
scalar IntersectionExampleScenario.node[38].nic.mac1609_4 	RXTXLostPackets 	0
scalar IntersectionExampleScenario.node[38].nic.mac1609_4 	TotalLostPackets 	0
scalar IntersectionExampleScenario.node[38].nic.mac1609_4 	DroppedPacketsInMac 	0
scalar IntersectionExampleScenario.node[38].nic.mac1609_4 	TooLittleTime 	0
scalar IntersectionExampleScenario.node[38].nic.mac1609_4 	TimesIntoBackoff 	0
scalar IntersectionExampleScenario.node[38].nic.mac1609_4 	SlotsBackoff 	0
scalar IntersectionExampleScenario.node[38].nic.mac1609_4 	NumInternalContention 	0
scalar IntersectionExampleScenario.node[38].nic.mac1609_4 	totalBusyTime 	0
scalar IntersectionExampleScenario.node[38].veinsmobility 	startTime 	175.75
scalar IntersectionExampleScenario.node[38].veinsmobility 	totalTime 	48
scalar IntersectionExampleScenario.node[38].veinsmobility 	stopTime 	224
scalar IntersectionExampleScenario.node[38].veinsmobility 	minSpeed 	2.769238948822
scalar IntersectionExampleScenario.node[38].veinsmobility 	maxSpeed 	14.761749267578
scalar IntersectionExampleScenario.node[38].veinsmobility 	totalDistance 	575.13407897949
scalar IntersectionExampleScenario.node[38].veinsmobility 	totalCO2Emission 	132.04251225284
scalar IntersectionExampleScenario.node[39].appl 	VehicleRemoved 	0
scalar IntersectionExampleScenario.node[39].appl 	ArrivedAtDest 	1
scalar IntersectionExampleScenario.node[39].appl 	IntersectionEnterTime 	177.75
scalar IntersectionExampleScenario.node[39].appl 	IntersectionExitTime 	208.86266232628
scalar IntersectionExampleScenario.node[39].appl 	NumberOfCollisions 	0
scalar IntersectionExampleScenario.node[39].nic.phy80211p 	busyTime 	0
scalar IntersectionExampleScenario.node[39].nic.mac1609_4 	ReceivedUnicastPackets 	0
scalar IntersectionExampleScenario.node[39].nic.mac1609_4 	ReceivedBroadcasts 	0
scalar IntersectionExampleScenario.node[39].nic.mac1609_4 	SentPackets 	0
scalar IntersectionExampleScenario.node[39].nic.mac1609_4 	SNIRLostPackets 	0
scalar IntersectionExampleScenario.node[39].nic.mac1609_4 	RXTXLostPackets 	0
scalar IntersectionExampleScenario.node[39].nic.mac1609_4 	TotalLostPackets 	0
scalar IntersectionExampleScenario.node[39].nic.mac1609_4 	DroppedPacketsInMac 	0
scalar IntersectionExampleScenario.node[39].nic.mac1609_4 	TooLittleTime 	0
scalar IntersectionExampleScenario.node[39].nic.mac1609_4 	TimesIntoBackoff 	0
[...]
scalar IntersectionExampleScenario.node[511].veinsmobility 	totalDistance 	472.75192166716
scalar IntersectionExampleScenario.node[511].veinsmobility 	totalCO2Emission 	145.51403879849
scalar IntersectionExampleScenario.node[514].appl 	VehicleRemoved 	0
scalar IntersectionExampleScenario.node[514].appl 	ArrivedAtDest 	0
scalar IntersectionExampleScenario.node[514].appl 	IntersectionEnterTime 	1765.5
scalar IntersectionExampleScenario.node[514].appl 	IntersectionExitTime 	-1
scalar IntersectionExampleScenario.node[514].appl 	NumberOfCollisions 	0
scalar IntersectionExampleScenario.node[514].nic.phy80211p 	busyTime 	0
scalar IntersectionExampleScenario.node[514].nic.mac1609_4 	ReceivedUnicastPackets 	0
scalar IntersectionExampleScenario.node[514].nic.mac1609_4 	ReceivedBroadcasts 	0
scalar IntersectionExampleScenario.node[514].nic.mac1609_4 	SentPackets 	0
scalar IntersectionExampleScenario.node[514].nic.mac1609_4 	SNIRLostPackets 	0
scalar IntersectionExampleScenario.node[514].nic.mac1609_4 	RXTXLostPackets 	0
scalar IntersectionExampleScenario.node[514].nic.mac1609_4 	TotalLostPackets 	0
scalar IntersectionExampleScenario.node[514].nic.mac1609_4 	DroppedPacketsInMac 	0
scalar IntersectionExampleScenario.node[514].nic.mac1609_4 	TooLittleTime 	0
scalar IntersectionExampleScenario.node[514].nic.mac1609_4 	TimesIntoBackoff 	0
scalar IntersectionExampleScenario.node[514].nic.mac1609_4 	SlotsBackoff 	0
scalar IntersectionExampleScenario.node[514].nic.mac1609_4 	NumInternalContention 	0
scalar IntersectionExampleScenario.node[514].nic.mac1609_4 	totalBusyTime 	0
scalar IntersectionExampleScenario.node[514].veinsmobility 	startTime 	1765.5
scalar IntersectionExampleScenario.node[514].veinsmobility 	totalTime 	34.5
scalar IntersectionExampleScenario.node[514].veinsmobility 	stopTime 	1800
scalar IntersectionExampleScenario.node[514].veinsmobility 	minSpeed 	0
scalar IntersectionExampleScenario.node[514].veinsmobility 	maxSpeed 	15.02499961853
scalar IntersectionExampleScenario.node[514].veinsmobility 	totalDistance 	309.17322649112
scalar IntersectionExampleScenario.node[514].veinsmobility 	totalCO2Emission 	88.060481899029
scalar IntersectionExampleScenario.node[515].appl 	VehicleRemoved 	0
scalar IntersectionExampleScenario.node[515].appl 	ArrivedAtDest 	0
scalar IntersectionExampleScenario.node[515].appl 	IntersectionEnterTime 	1775.75
scalar IntersectionExampleScenario.node[515].appl 	IntersectionExitTime 	-1
scalar IntersectionExampleScenario.node[515].appl 	NumberOfCollisions 	0
scalar IntersectionExampleScenario.node[515].nic.phy80211p 	busyTime 	0
scalar IntersectionExampleScenario.node[515].nic.mac1609_4 	ReceivedUnicastPackets 	0
scalar IntersectionExampleScenario.node[515].nic.mac1609_4 	ReceivedBroadcasts 	0
scalar IntersectionExampleScenario.node[515].nic.mac1609_4 	SentPackets 	0
scalar IntersectionExampleScenario.node[515].nic.mac1609_4 	SNIRLostPackets 	0
scalar IntersectionExampleScenario.node[515].nic.mac1609_4 	RXTXLostPackets 	0
scalar IntersectionExampleScenario.node[515].nic.mac1609_4 	TotalLostPackets 	0
scalar IntersectionExampleScenario.node[515].nic.mac1609_4 	DroppedPacketsInMac 	0
scalar IntersectionExampleScenario.node[515].nic.mac1609_4 	TooLittleTime 	0
scalar IntersectionExampleScenario.node[515].nic.mac1609_4 	TimesIntoBackoff 	0
scalar IntersectionExampleScenario.node[515].nic.mac1609_4 	SlotsBackoff 	0
scalar IntersectionExampleScenario.node[515].nic.mac1609_4 	NumInternalContention 	0
scalar IntersectionExampleScenario.node[515].nic.mac1609_4 	totalBusyTime 	0
scalar IntersectionExampleScenario.node[515].veinsmobility 	startTime 	1775.75
scalar IntersectionExampleScenario.node[515].veinsmobility 	totalTime 	24.25
scalar IntersectionExampleScenario.node[515].veinsmobility 	stopTime 	1800
scalar IntersectionExampleScenario.node[515].veinsmobility 	minSpeed 	0
scalar IntersectionExampleScenario.node[515].veinsmobility 	maxSpeed 	15.02499961853
scalar IntersectionExampleScenario.node[515].veinsmobility 	totalDistance 	287.42188262939
scalar IntersectionExampleScenario.node[515].veinsmobility 	totalCO2Emission 	67.893089828374
scalar IntersectionExampleScenario.node[516].appl 	VehicleRemoved 	0
scalar IntersectionExampleScenario.node[516].appl 	ArrivedAtDest 	0
scalar IntersectionExampleScenario.node[516].appl 	IntersectionEnterTime 	1776.5
scalar IntersectionExampleScenario.node[516].appl 	IntersectionExitTime 	-1
scalar IntersectionExampleScenario.node[516].appl 	NumberOfCollisions 	0
scalar IntersectionExampleScenario.node[516].nic.phy80211p 	busyTime 	0
scalar IntersectionExampleScenario.node[516].nic.mac1609_4 	ReceivedUnicastPackets 	0
scalar IntersectionExampleScenario.node[516].nic.mac1609_4 	ReceivedBroadcasts 	0
scalar IntersectionExampleScenario.node[516].nic.mac1609_4 	SentPackets 	0
scalar IntersectionExampleScenario.node[516].nic.mac1609_4 	SNIRLostPackets 	0
scalar IntersectionExampleScenario.node[516].nic.mac1609_4 	RXTXLostPackets 	0
scalar IntersectionExampleScenario.node[516].nic.mac1609_4 	TotalLostPackets 	0
scalar IntersectionExampleScenario.node[516].nic.mac1609_4 	DroppedPacketsInMac 	0
scalar IntersectionExampleScenario.node[516].nic.mac1609_4 	TooLittleTime 	0
scalar IntersectionExampleScenario.node[516].nic.mac1609_4 	TimesIntoBackoff 	0
scalar IntersectionExampleScenario.node[516].nic.mac1609_4 	SlotsBackoff 	0
scalar IntersectionExampleScenario.node[516].nic.mac1609_4 	NumInternalContention 	0
scalar IntersectionExampleScenario.node[516].nic.mac1609_4 	totalBusyTime 	0
scalar IntersectionExampleScenario.node[516].veinsmobility 	startTime 	1776.5
scalar IntersectionExampleScenario.node[516].veinsmobility 	totalTime 	23.5
scalar IntersectionExampleScenario.node[516].veinsmobility 	stopTime 	1800
scalar IntersectionExampleScenario.node[516].veinsmobility 	minSpeed 	0
scalar IntersectionExampleScenario.node[516].veinsmobility 	maxSpeed 	15.64999961853
scalar IntersectionExampleScenario.node[516].veinsmobility 	totalDistance 	287.42188262939
scalar IntersectionExampleScenario.node[516].veinsmobility 	totalCO2Emission 	67.049354411092
scalar IntersectionExampleScenario.node[517].appl 	VehicleRemoved 	0
scalar IntersectionExampleScenario.node[517].appl 	ArrivedAtDest 	0
scalar IntersectionExampleScenario.node[517].appl 	IntersectionEnterTime 	1777.25
scalar IntersectionExampleScenario.node[517].appl 	IntersectionExitTime 	-1
scalar IntersectionExampleScenario.node[517].appl 	NumberOfCollisions 	0
scalar IntersectionExampleScenario.node[517].nic.phy80211p 	busyTime 	0
scalar IntersectionExampleScenario.node[517].nic.mac1609_4 	ReceivedUnicastPackets 	0
scalar IntersectionExampleScenario.node[517].nic.mac1609_4 	ReceivedBroadcasts 	0
scalar IntersectionExampleScenario.node[517].nic.mac1609_4 	SentPackets 	0
scalar IntersectionExampleScenario.node[517].nic.mac1609_4 	SNIRLostPackets 	0
scalar IntersectionExampleScenario.node[517].nic.mac1609_4 	RXTXLostPackets 	0
scalar IntersectionExampleScenario.node[517].nic.mac1609_4 	TotalLostPackets 	0
scalar IntersectionExampleScenario.node[517].nic.mac1609_4 	DroppedPacketsInMac 	0
scalar IntersectionExampleScenario.node[517].nic.mac1609_4 	TooLittleTime 	0
scalar IntersectionExampleScenario.node[517].nic.mac1609_4 	TimesIntoBackoff 	0
scalar IntersectionExampleScenario.node[517].nic.mac1609_4 	SlotsBackoff 	0
scalar IntersectionExampleScenario.node[517].nic.mac1609_4 	NumInternalContention 	0
scalar IntersectionExampleScenario.node[517].nic.mac1609_4 	totalBusyTime 	0
scalar IntersectionExampleScenario.node[517].veinsmobility 	startTime 	1777.25
scalar IntersectionExampleScenario.node[517].veinsmobility 	totalTime 	22.75
scalar IntersectionExampleScenario.node[517].veinsmobility 	stopTime 	1800
scalar IntersectionExampleScenario.node[517].veinsmobility 	minSpeed 	2.8223378658295
scalar IntersectionExampleScenario.node[517].veinsmobility 	maxSpeed 	15.237701416016
scalar IntersectionExampleScenario.node[517].veinsmobility 	totalDistance 	296.37286376953
scalar IntersectionExampleScenario.node[517].veinsmobility 	totalCO2Emission 	67.359146475112
scalar IntersectionExampleScenario.node[518].appl 	VehicleRemoved 	0
scalar IntersectionExampleScenario.node[518].appl 	ArrivedAtDest 	0
scalar IntersectionExampleScenario.node[518].appl 	IntersectionEnterTime 	1781.75
scalar IntersectionExampleScenario.node[518].appl 	IntersectionExitTime 	-1
scalar IntersectionExampleScenario.node[518].appl 	NumberOfCollisions 	0
scalar IntersectionExampleScenario.node[518].nic.phy80211p 	busyTime 	0
scalar IntersectionExampleScenario.node[518].nic.mac1609_4 	ReceivedUnicastPackets 	0
scalar IntersectionExampleScenario.node[518].nic.mac1609_4 	ReceivedBroadcasts 	0
scalar IntersectionExampleScenario.node[518].nic.mac1609_4 	SentPackets 	0
scalar IntersectionExampleScenario.node[518].nic.mac1609_4 	SNIRLostPackets 	0
scalar IntersectionExampleScenario.node[518].nic.mac1609_4 	RXTXLostPackets 	0
scalar IntersectionExampleScenario.node[518].nic.mac1609_4 	TotalLostPackets 	0
scalar IntersectionExampleScenario.node[518].nic.mac1609_4 	DroppedPacketsInMac 	0
scalar IntersectionExampleScenario.node[518].nic.mac1609_4 	TooLittleTime 	0
scalar IntersectionExampleScenario.node[518].nic.mac1609_4 	TimesIntoBackoff 	0
scalar IntersectionExampleScenario.node[518].nic.mac1609_4 	SlotsBackoff 	0
scalar IntersectionExampleScenario.node[518].nic.mac1609_4 	NumInternalContention 	0
scalar IntersectionExampleScenario.node[518].nic.mac1609_4 	totalBusyTime 	0
scalar IntersectionExampleScenario.node[518].veinsmobility 	startTime 	1781.75
scalar IntersectionExampleScenario.node[518].veinsmobility 	totalTime 	18.25
scalar IntersectionExampleScenario.node[518].veinsmobility 	stopTime 	1800
scalar IntersectionExampleScenario.node[518].veinsmobility 	minSpeed 	5.6500000953674
scalar IntersectionExampleScenario.node[518].veinsmobility 	maxSpeed 	15.02499961853
scalar IntersectionExampleScenario.node[518].veinsmobility 	totalDistance 	241.32604217529
scalar IntersectionExampleScenario.node[518].veinsmobility 	totalCO2Emission 	57.524697513189
scalar IntersectionExampleScenario.node[519].appl 	VehicleRemoved 	0
scalar IntersectionExampleScenario.node[519].appl 	ArrivedAtDest 	0
scalar IntersectionExampleScenario.node[519].appl 	IntersectionEnterTime 	1781.75
scalar IntersectionExampleScenario.node[519].appl 	IntersectionExitTime 	-1
scalar IntersectionExampleScenario.node[519].appl 	NumberOfCollisions 	0
scalar IntersectionExampleScenario.node[519].nic.phy80211p 	busyTime 	0
scalar IntersectionExampleScenario.node[519].nic.mac1609_4 	ReceivedUnicastPackets 	0
scalar IntersectionExampleScenario.node[519].nic.mac1609_4 	ReceivedBroadcasts 	0
scalar IntersectionExampleScenario.node[519].nic.mac1609_4 	SentPackets 	0
scalar IntersectionExampleScenario.node[519].nic.mac1609_4 	SNIRLostPackets 	0
scalar IntersectionExampleScenario.node[519].nic.mac1609_4 	RXTXLostPackets 	0
scalar IntersectionExampleScenario.node[519].nic.mac1609_4 	TotalLostPackets 	0
scalar IntersectionExampleScenario.node[519].nic.mac1609_4 	DroppedPacketsInMac 	0
scalar IntersectionExampleScenario.node[519].nic.mac1609_4 	TooLittleTime 	0
scalar IntersectionExampleScenario.node[519].nic.mac1609_4 	TimesIntoBackoff 	0
scalar IntersectionExampleScenario.node[519].nic.mac1609_4 	SlotsBackoff 	0
scalar IntersectionExampleScenario.node[519].nic.mac1609_4 	NumInternalContention 	0
scalar IntersectionExampleScenario.node[519].nic.mac1609_4 	totalBusyTime 	0
scalar IntersectionExampleScenario.node[519].veinsmobility 	startTime 	1781.75
scalar IntersectionExampleScenario.node[519].veinsmobility 	totalTime 	18.25
scalar IntersectionExampleScenario.node[519].veinsmobility 	stopTime 	1800
scalar IntersectionExampleScenario.node[519].veinsmobility 	minSpeed 	5.6500000953674
scalar IntersectionExampleScenario.node[519].veinsmobility 	maxSpeed 	15.64999961853
scalar IntersectionExampleScenario.node[519].veinsmobility 	totalDistance 	255.57604980469
scalar IntersectionExampleScenario.node[519].veinsmobility 	totalCO2Emission 	67.155398735065
scalar IntersectionExampleScenario.node[520].appl 	VehicleRemoved 	0
scalar IntersectionExampleScenario.node[520].appl 	ArrivedAtDest 	0
scalar IntersectionExampleScenario.node[520].appl 	IntersectionEnterTime 	1789.5
scalar IntersectionExampleScenario.node[520].appl 	IntersectionExitTime 	-1
scalar IntersectionExampleScenario.node[520].appl 	NumberOfCollisions 	0
scalar IntersectionExampleScenario.node[520].nic.phy80211p 	busyTime 	0
scalar IntersectionExampleScenario.node[520].nic.mac1609_4 	ReceivedUnicastPackets 	0
scalar IntersectionExampleScenario.node[520].nic.mac1609_4 	ReceivedBroadcasts 	0
scalar IntersectionExampleScenario.node[520].nic.mac1609_4 	SentPackets 	0
scalar IntersectionExampleScenario.node[520].nic.mac1609_4 	SNIRLostPackets 	0
scalar IntersectionExampleScenario.node[520].nic.mac1609_4 	RXTXLostPackets 	0
scalar IntersectionExampleScenario.node[520].nic.mac1609_4 	TotalLostPackets 	0
scalar IntersectionExampleScenario.node[520].nic.mac1609_4 	DroppedPacketsInMac 	0
scalar IntersectionExampleScenario.node[520].nic.mac1609_4 	TooLittleTime 	0
scalar IntersectionExampleScenario.node[520].nic.mac1609_4 	TimesIntoBackoff 	0
scalar IntersectionExampleScenario.node[520].nic.mac1609_4 	SlotsBackoff 	0
scalar IntersectionExampleScenario.node[520].nic.mac1609_4 	NumInternalContention 	0
scalar IntersectionExampleScenario.node[520].nic.mac1609_4 	totalBusyTime 	0
scalar IntersectionExampleScenario.node[520].veinsmobility 	startTime 	1789.5
scalar IntersectionExampleScenario.node[520].veinsmobility 	totalTime 	10.5
scalar IntersectionExampleScenario.node[520].veinsmobility 	stopTime 	1800
scalar IntersectionExampleScenario.node[520].veinsmobility 	minSpeed 	5.6500000953674
scalar IntersectionExampleScenario.node[520].veinsmobility 	maxSpeed 	15.02499961853
scalar IntersectionExampleScenario.node[520].veinsmobility 	totalDistance 	137.51092529297
scalar IntersectionExampleScenario.node[520].veinsmobility 	totalCO2Emission 	44.425354582942
scalar IntersectionExampleScenario.node[521].appl 	VehicleRemoved 	0
scalar IntersectionExampleScenario.node[521].appl 	ArrivedAtDest 	0
scalar IntersectionExampleScenario.node[521].appl 	IntersectionEnterTime 	1792
scalar IntersectionExampleScenario.node[521].appl 	IntersectionExitTime 	-1
scalar IntersectionExampleScenario.node[521].appl 	NumberOfCollisions 	0
scalar IntersectionExampleScenario.node[521].nic.phy80211p 	busyTime 	0
scalar IntersectionExampleScenario.node[521].nic.mac1609_4 	ReceivedUnicastPackets 	0
scalar IntersectionExampleScenario.node[521].nic.mac1609_4 	ReceivedBroadcasts 	0
scalar IntersectionExampleScenario.node[521].nic.mac1609_4 	SentPackets 	0
scalar IntersectionExampleScenario.node[521].nic.mac1609_4 	SNIRLostPackets 	0
scalar IntersectionExampleScenario.node[521].nic.mac1609_4 	RXTXLostPackets 	0
scalar IntersectionExampleScenario.node[521].nic.mac1609_4 	TotalLostPackets 	0
scalar IntersectionExampleScenario.node[521].nic.mac1609_4 	DroppedPacketsInMac 	0
scalar IntersectionExampleScenario.node[521].nic.mac1609_4 	TooLittleTime 	0
scalar IntersectionExampleScenario.node[521].nic.mac1609_4 	TimesIntoBackoff 	0
scalar IntersectionExampleScenario.node[521].nic.mac1609_4 	SlotsBackoff 	0
scalar IntersectionExampleScenario.node[521].nic.mac1609_4 	NumInternalContention 	0
scalar IntersectionExampleScenario.node[521].nic.mac1609_4 	totalBusyTime 	0
scalar IntersectionExampleScenario.node[521].veinsmobility 	startTime 	1792
scalar IntersectionExampleScenario.node[521].veinsmobility 	totalTime 	8
scalar IntersectionExampleScenario.node[521].veinsmobility 	stopTime 	1800
scalar IntersectionExampleScenario.node[521].veinsmobility 	minSpeed 	5.6500000953674
scalar IntersectionExampleScenario.node[521].veinsmobility 	maxSpeed 	14.39999961853
scalar IntersectionExampleScenario.node[521].veinsmobility 	totalDistance 	97.28466796875
scalar IntersectionExampleScenario.node[521].veinsmobility 	totalCO2Emission 	36.318958977245
scalar IntersectionExampleScenario.node[522].appl 	VehicleRemoved 	0
scalar IntersectionExampleScenario.node[522].appl 	ArrivedAtDest 	0
scalar IntersectionExampleScenario.node[522].appl 	IntersectionEnterTime 	1793
scalar IntersectionExampleScenario.node[522].appl 	IntersectionExitTime 	-1
scalar IntersectionExampleScenario.node[522].appl 	NumberOfCollisions 	0
scalar IntersectionExampleScenario.node[522].nic.phy80211p 	busyTime 	0
scalar IntersectionExampleScenario.node[522].nic.mac1609_4 	ReceivedUnicastPackets 	0
scalar IntersectionExampleScenario.node[522].nic.mac1609_4 	ReceivedBroadcasts 	0
scalar IntersectionExampleScenario.node[522].nic.mac1609_4 	SentPackets 	0
scalar IntersectionExampleScenario.node[522].nic.mac1609_4 	SNIRLostPackets 	0
scalar IntersectionExampleScenario.node[522].nic.mac1609_4 	RXTXLostPackets 	0
scalar IntersectionExampleScenario.node[522].nic.mac1609_4 	TotalLostPackets 	0
scalar IntersectionExampleScenario.node[522].nic.mac1609_4 	DroppedPacketsInMac 	0
scalar IntersectionExampleScenario.node[522].nic.mac1609_4 	TooLittleTime 	0
scalar IntersectionExampleScenario.node[522].nic.mac1609_4 	TimesIntoBackoff 	0
scalar IntersectionExampleScenario.node[522].nic.mac1609_4 	SlotsBackoff 	0
scalar IntersectionExampleScenario.node[522].nic.mac1609_4 	NumInternalContention 	0
scalar IntersectionExampleScenario.node[522].nic.mac1609_4 	totalBusyTime 	0
scalar IntersectionExampleScenario.node[522].veinsmobility 	startTime 	1793
scalar IntersectionExampleScenario.node[522].veinsmobility 	totalTime 	7
scalar IntersectionExampleScenario.node[522].veinsmobility 	stopTime 	1800
scalar IntersectionExampleScenario.node[522].veinsmobility 	minSpeed 	5.6500000953674
scalar IntersectionExampleScenario.node[522].veinsmobility 	maxSpeed 	15.272563934326
scalar IntersectionExampleScenario.node[522].veinsmobility 	totalDistance 	84.70556640625
scalar IntersectionExampleScenario.node[522].veinsmobility 	totalCO2Emission 	37.907824010839
scalar IntersectionExampleScenario.node[523].appl 	VehicleRemoved 	0
scalar IntersectionExampleScenario.node[523].appl 	ArrivedAtDest 	0
scalar IntersectionExampleScenario.node[523].appl 	IntersectionEnterTime 	1794
scalar IntersectionExampleScenario.node[523].appl 	IntersectionExitTime 	-1
scalar IntersectionExampleScenario.node[523].appl 	NumberOfCollisions 	0
scalar IntersectionExampleScenario.node[523].nic.phy80211p 	busyTime 	0
scalar IntersectionExampleScenario.node[523].nic.mac1609_4 	ReceivedUnicastPackets 	0
scalar IntersectionExampleScenario.node[523].nic.mac1609_4 	ReceivedBroadcasts 	0
scalar IntersectionExampleScenario.node[523].nic.mac1609_4 	SentPackets 	0
scalar IntersectionExampleScenario.node[523].nic.mac1609_4 	SNIRLostPackets 	0
scalar IntersectionExampleScenario.node[523].nic.mac1609_4 	RXTXLostPackets 	0
scalar IntersectionExampleScenario.node[523].nic.mac1609_4 	TotalLostPackets 	0
scalar IntersectionExampleScenario.node[523].nic.mac1609_4 	DroppedPacketsInMac 	0
scalar IntersectionExampleScenario.node[523].nic.mac1609_4 	TooLittleTime 	0
scalar IntersectionExampleScenario.node[523].nic.mac1609_4 	TimesIntoBackoff 	0
scalar IntersectionExampleScenario.node[523].nic.mac1609_4 	SlotsBackoff 	0
scalar IntersectionExampleScenario.node[523].nic.mac1609_4 	NumInternalContention 	0
scalar IntersectionExampleScenario.node[523].nic.mac1609_4 	totalBusyTime 	0
scalar IntersectionExampleScenario.node[523].veinsmobility 	startTime 	1794
scalar IntersectionExampleScenario.node[523].veinsmobility 	totalTime 	6
scalar IntersectionExampleScenario.node[523].veinsmobility 	stopTime 	1800
scalar IntersectionExampleScenario.node[523].veinsmobility 	minSpeed 	5.6500000953674
scalar IntersectionExampleScenario.node[523].veinsmobility 	maxSpeed 	15.02499961853
scalar IntersectionExampleScenario.node[523].veinsmobility 	totalDistance 	69.986366271973
scalar IntersectionExampleScenario.node[523].veinsmobility 	totalCO2Emission 	34.509009248402
