version 2
run nodebug-40-20200606-19:00:10-22420
attr configname nodebug
attr datetime 20200606-19:00:10
attr experiment nodebug
attr inifile omnetpp.ini
attr iterationvars ""
attr iterationvars2 $repetition=40
attr measurement ""
attr network "\"org.car2x.veins.modules.application.ExtTraCIScenarioManagerLaunchd.IntersectionExampleScenario\""
attr processid 22420
attr repetition 40
attr replication #40
attr resultdir results
attr runnumber 40
attr seedset 40
param **.coreDebug false
param **.debug false
param *.**.nic.mac1609_4.bitrate 18Mbps
param *.**.nic.mac1609_4.txPower 20mW
param *.**.nic.mac1609_4.useServiceChannel false
param *.**.nic.phy80211p.analogueModels "xmldoc(\"config.xml\")"
param *.**.nic.phy80211p.decider "xmldoc(\"config.xml\")"
param *.**.nic.phy80211p.sensitivity -89dBm
param *.**.nic.phy80211p.thermalNoise -110dBm
param *.**.nic.phy80211p.usePropagationDelay true
param *.**.nic.phy80211p.useThermalNoise true
param *.annotations.draw false
param *.connectionManager.alpha 2.0
param *.connectionManager.carrierFrequency "5.890e9 Hz"
param *.connectionManager.pMax 20mW
param *.connectionManager.sat -89dBm
param *.connectionManager.sendDirect true
param *.manager.autoShutdown true
param *.manager.host "\"localhost\""
param *.manager.launchConfig "xmldoc(\"paramics.launchd.xml\")"
param *.manager.margin 25
param *.manager.moduleDisplayString "\"\""
param *.manager.moduleName "\"node\""
param *.manager.moduleType "\"org.car2x.veins.nodes.Car\""
param *.manager.port 9999
param *.manager.updateInterval 250ms
param *.node[*0].veinsmobility.accidentCount 0
param *.node[*0].veinsmobility.accidentDuration 30s
param *.node[*0].veinsmobility.accidentStart 75s
param *.node[*].appl.LiderSelectZoneRadio 55.0
param *.node[*].appl.ShareDataZoneRadio 110.0
param *.node[*].appl.TiempoSemaforo 30.0
param *.node[*].appl.beaconInterval 1s
param *.node[*].appl.beaconPriority 3
param *.node[*].appl.dataOnSch false
param *.node[*].appl.dataPriority 2
param *.node[*].appl.debug false
param *.node[*].appl.headerLength "256 bit"
param *.node[*].appl.maxOffset 0.005s
param *.node[*].appl.sendBeacons false
param *.node[*].appl.sendData true
param *.node[*].applType "\"Dummy\""
param *.node[*].mobilityType "\"TraCIMobility\""
param *.node[*].mobilityType.debug true
param *.node[*].veinsmobility.x 0
param *.node[*].veinsmobility.y 0
param *.node[*].veinsmobility.z 1.895
param *.node[*].veinsmobilityType "\"org.car2x.veins.modules.mobility.traci.TraCIMobility\""
param *.node[*].veinsmobilityType.debug true
param *.playgroundSizeX 8500m
param *.playgroundSizeY 8500m
param *.playgroundSizeZ 50m
param *.world.use2D false
param *.world.useTorus false

scalar IntersectionExampleScenario.node[0].appl 	VehicleRemoved 	0
scalar IntersectionExampleScenario.node[0].appl 	ArrivedAtDest 	1
scalar IntersectionExampleScenario.node[0].appl 	IntersectionEnterTime 	5
scalar IntersectionExampleScenario.node[0].appl 	IntersectionExitTime 	28.035913148487
scalar IntersectionExampleScenario.node[0].appl 	NumberOfCollisions 	0
scalar IntersectionExampleScenario.node[0].nic.phy80211p 	busyTime 	0
scalar IntersectionExampleScenario.node[0].nic.mac1609_4 	ReceivedUnicastPackets 	0
scalar IntersectionExampleScenario.node[0].nic.mac1609_4 	ReceivedBroadcasts 	0
scalar IntersectionExampleScenario.node[0].nic.mac1609_4 	SentPackets 	0
scalar IntersectionExampleScenario.node[0].nic.mac1609_4 	SNIRLostPackets 	0
scalar IntersectionExampleScenario.node[0].nic.mac1609_4 	RXTXLostPackets 	0
scalar IntersectionExampleScenario.node[0].nic.mac1609_4 	TotalLostPackets 	0
scalar IntersectionExampleScenario.node[0].nic.mac1609_4 	DroppedPacketsInMac 	0
scalar IntersectionExampleScenario.node[0].nic.mac1609_4 	TooLittleTime 	0
scalar IntersectionExampleScenario.node[0].nic.mac1609_4 	TimesIntoBackoff 	0
scalar IntersectionExampleScenario.node[0].nic.mac1609_4 	SlotsBackoff 	0
scalar IntersectionExampleScenario.node[0].nic.mac1609_4 	NumInternalContention 	0
scalar IntersectionExampleScenario.node[0].nic.mac1609_4 	totalBusyTime 	0
scalar IntersectionExampleScenario.node[0].veinsmobility 	startTime 	5
scalar IntersectionExampleScenario.node[0].veinsmobility 	totalTime 	39.25
scalar IntersectionExampleScenario.node[0].veinsmobility 	stopTime 	44.5
scalar IntersectionExampleScenario.node[0].veinsmobility 	minSpeed 	5.6500000953674
scalar IntersectionExampleScenario.node[0].veinsmobility 	maxSpeed 	15.5
scalar IntersectionExampleScenario.node[0].veinsmobility 	totalDistance 	552.04515075684
scalar IntersectionExampleScenario.node[0].veinsmobility 	totalCO2Emission 	116.05476691069
scalar IntersectionExampleScenario.node[2].appl 	VehicleRemoved 	0
scalar IntersectionExampleScenario.node[2].appl 	ArrivedAtDest 	1
scalar IntersectionExampleScenario.node[2].appl 	IntersectionEnterTime 	8.75
scalar IntersectionExampleScenario.node[2].appl 	IntersectionExitTime 	31.325102011004
scalar IntersectionExampleScenario.node[2].appl 	NumberOfCollisions 	0
scalar IntersectionExampleScenario.node[2].nic.phy80211p 	busyTime 	0
scalar IntersectionExampleScenario.node[2].nic.mac1609_4 	ReceivedUnicastPackets 	0
scalar IntersectionExampleScenario.node[2].nic.mac1609_4 	ReceivedBroadcasts 	0
scalar IntersectionExampleScenario.node[2].nic.mac1609_4 	SentPackets 	0
scalar IntersectionExampleScenario.node[2].nic.mac1609_4 	SNIRLostPackets 	0
scalar IntersectionExampleScenario.node[2].nic.mac1609_4 	RXTXLostPackets 	0
scalar IntersectionExampleScenario.node[2].nic.mac1609_4 	TotalLostPackets 	0
scalar IntersectionExampleScenario.node[2].nic.mac1609_4 	DroppedPacketsInMac 	0
scalar IntersectionExampleScenario.node[2].nic.mac1609_4 	TooLittleTime 	0
scalar IntersectionExampleScenario.node[2].nic.mac1609_4 	TimesIntoBackoff 	0
scalar IntersectionExampleScenario.node[2].nic.mac1609_4 	SlotsBackoff 	0
scalar IntersectionExampleScenario.node[2].nic.mac1609_4 	NumInternalContention 	0
scalar IntersectionExampleScenario.node[2].nic.mac1609_4 	totalBusyTime 	0
scalar IntersectionExampleScenario.node[2].veinsmobility 	startTime 	8.75
scalar IntersectionExampleScenario.node[2].veinsmobility 	totalTime 	38.25
scalar IntersectionExampleScenario.node[2].veinsmobility 	stopTime 	47.25
scalar IntersectionExampleScenario.node[2].veinsmobility 	minSpeed 	5.6500000953674
scalar IntersectionExampleScenario.node[2].veinsmobility 	maxSpeed 	16.89999961853
scalar IntersectionExampleScenario.node[2].veinsmobility 	totalDistance 	543.92549091694
scalar IntersectionExampleScenario.node[2].veinsmobility 	totalCO2Emission 	134.05088984846
scalar IntersectionExampleScenario.node[1].appl 	VehicleRemoved 	0
scalar IntersectionExampleScenario.node[1].appl 	ArrivedAtDest 	1
scalar IntersectionExampleScenario.node[1].appl 	IntersectionEnterTime 	7.5
scalar IntersectionExampleScenario.node[1].appl 	IntersectionExitTime 	31.327976526431
scalar IntersectionExampleScenario.node[1].appl 	NumberOfCollisions 	0
scalar IntersectionExampleScenario.node[1].nic.phy80211p 	busyTime 	0
scalar IntersectionExampleScenario.node[1].nic.mac1609_4 	ReceivedUnicastPackets 	0
scalar IntersectionExampleScenario.node[1].nic.mac1609_4 	ReceivedBroadcasts 	0
scalar IntersectionExampleScenario.node[1].nic.mac1609_4 	SentPackets 	0
scalar IntersectionExampleScenario.node[1].nic.mac1609_4 	SNIRLostPackets 	0
scalar IntersectionExampleScenario.node[1].nic.mac1609_4 	RXTXLostPackets 	0
scalar IntersectionExampleScenario.node[1].nic.mac1609_4 	TotalLostPackets 	0
scalar IntersectionExampleScenario.node[1].nic.mac1609_4 	DroppedPacketsInMac 	0
scalar IntersectionExampleScenario.node[1].nic.mac1609_4 	TooLittleTime 	0
scalar IntersectionExampleScenario.node[1].nic.mac1609_4 	TimesIntoBackoff 	0
scalar IntersectionExampleScenario.node[1].nic.mac1609_4 	SlotsBackoff 	0
scalar IntersectionExampleScenario.node[1].nic.mac1609_4 	NumInternalContention 	0
scalar IntersectionExampleScenario.node[1].nic.mac1609_4 	totalBusyTime 	0
scalar IntersectionExampleScenario.node[1].veinsmobility 	startTime 	7.5
scalar IntersectionExampleScenario.node[1].veinsmobility 	totalTime 	39.75
scalar IntersectionExampleScenario.node[1].veinsmobility 	stopTime 	47.5
scalar IntersectionExampleScenario.node[1].veinsmobility 	minSpeed 	5.6500000953674
scalar IntersectionExampleScenario.node[1].veinsmobility 	maxSpeed 	15.5
scalar IntersectionExampleScenario.node[1].veinsmobility 	totalDistance 	569.76029968262
scalar IntersectionExampleScenario.node[1].veinsmobility 	totalCO2Emission 	119.27308864184
scalar IntersectionExampleScenario.node[3].appl 	VehicleRemoved 	0
scalar IntersectionExampleScenario.node[3].appl 	ArrivedAtDest 	1
scalar IntersectionExampleScenario.node[3].appl 	IntersectionEnterTime 	11
scalar IntersectionExampleScenario.node[3].appl 	IntersectionExitTime 	34.363033402013
scalar IntersectionExampleScenario.node[3].appl 	NumberOfCollisions 	0
scalar IntersectionExampleScenario.node[3].nic.phy80211p 	busyTime 	0
scalar IntersectionExampleScenario.node[3].nic.mac1609_4 	ReceivedUnicastPackets 	0
scalar IntersectionExampleScenario.node[3].nic.mac1609_4 	ReceivedBroadcasts 	0
scalar IntersectionExampleScenario.node[3].nic.mac1609_4 	SentPackets 	0
scalar IntersectionExampleScenario.node[3].nic.mac1609_4 	SNIRLostPackets 	0
scalar IntersectionExampleScenario.node[3].nic.mac1609_4 	RXTXLostPackets 	0
scalar IntersectionExampleScenario.node[3].nic.mac1609_4 	TotalLostPackets 	0
scalar IntersectionExampleScenario.node[3].nic.mac1609_4 	DroppedPacketsInMac 	0
scalar IntersectionExampleScenario.node[3].nic.mac1609_4 	TooLittleTime 	0
scalar IntersectionExampleScenario.node[3].nic.mac1609_4 	TimesIntoBackoff 	0
scalar IntersectionExampleScenario.node[3].nic.mac1609_4 	SlotsBackoff 	0
scalar IntersectionExampleScenario.node[3].nic.mac1609_4 	NumInternalContention 	0
scalar IntersectionExampleScenario.node[3].nic.mac1609_4 	totalBusyTime 	0
scalar IntersectionExampleScenario.node[3].veinsmobility 	startTime 	11
scalar IntersectionExampleScenario.node[3].veinsmobility 	totalTime 	38.75
scalar IntersectionExampleScenario.node[3].veinsmobility 	stopTime 	50
scalar IntersectionExampleScenario.node[3].veinsmobility 	minSpeed 	5.6500000953674
scalar IntersectionExampleScenario.node[3].veinsmobility 	maxSpeed 	16.061191558838
scalar IntersectionExampleScenario.node[3].veinsmobility 	totalDistance 	571.6047668457
scalar IntersectionExampleScenario.node[3].veinsmobility 	totalCO2Emission 	124.72707953254
scalar IntersectionExampleScenario.node[5].appl 	VehicleRemoved 	0
scalar IntersectionExampleScenario.node[5].appl 	ArrivedAtDest 	1
scalar IntersectionExampleScenario.node[5].appl 	IntersectionEnterTime 	13
scalar IntersectionExampleScenario.node[5].appl 	IntersectionExitTime 	39.369674888963
scalar IntersectionExampleScenario.node[5].appl 	NumberOfCollisions 	0
scalar IntersectionExampleScenario.node[5].nic.phy80211p 	busyTime 	0
scalar IntersectionExampleScenario.node[5].nic.mac1609_4 	ReceivedUnicastPackets 	0
scalar IntersectionExampleScenario.node[5].nic.mac1609_4 	ReceivedBroadcasts 	0
scalar IntersectionExampleScenario.node[5].nic.mac1609_4 	SentPackets 	0
scalar IntersectionExampleScenario.node[5].nic.mac1609_4 	SNIRLostPackets 	0
scalar IntersectionExampleScenario.node[5].nic.mac1609_4 	RXTXLostPackets 	0
scalar IntersectionExampleScenario.node[5].nic.mac1609_4 	TotalLostPackets 	0
scalar IntersectionExampleScenario.node[5].nic.mac1609_4 	DroppedPacketsInMac 	0
scalar IntersectionExampleScenario.node[5].nic.mac1609_4 	TooLittleTime 	0
scalar IntersectionExampleScenario.node[5].nic.mac1609_4 	TimesIntoBackoff 	0
scalar IntersectionExampleScenario.node[5].nic.mac1609_4 	SlotsBackoff 	0
scalar IntersectionExampleScenario.node[5].nic.mac1609_4 	NumInternalContention 	0
scalar IntersectionExampleScenario.node[5].nic.mac1609_4 	totalBusyTime 	0
scalar IntersectionExampleScenario.node[5].veinsmobility 	startTime 	13
scalar IntersectionExampleScenario.node[5].veinsmobility 	totalTime 	41.5
scalar IntersectionExampleScenario.node[5].veinsmobility 	stopTime 	54.75
scalar IntersectionExampleScenario.node[5].veinsmobility 	minSpeed 	0
scalar IntersectionExampleScenario.node[5].veinsmobility 	maxSpeed 	16.27499961853
scalar IntersectionExampleScenario.node[5].veinsmobility 	totalDistance 	551.21347808838
scalar IntersectionExampleScenario.node[5].veinsmobility 	totalCO2Emission 	140.0841607762
scalar IntersectionExampleScenario.node[7].appl 	VehicleRemoved 	0
scalar IntersectionExampleScenario.node[7].appl 	ArrivedAtDest 	1
scalar IntersectionExampleScenario.node[7].appl 	IntersectionEnterTime 	15
scalar IntersectionExampleScenario.node[7].appl 	IntersectionExitTime 	40.295286986395
scalar IntersectionExampleScenario.node[7].appl 	NumberOfCollisions 	0
scalar IntersectionExampleScenario.node[7].nic.phy80211p 	busyTime 	0
scalar IntersectionExampleScenario.node[7].nic.mac1609_4 	ReceivedUnicastPackets 	0
scalar IntersectionExampleScenario.node[7].nic.mac1609_4 	ReceivedBroadcasts 	0
scalar IntersectionExampleScenario.node[7].nic.mac1609_4 	SentPackets 	0
scalar IntersectionExampleScenario.node[7].nic.mac1609_4 	SNIRLostPackets 	0
scalar IntersectionExampleScenario.node[7].nic.mac1609_4 	RXTXLostPackets 	0
scalar IntersectionExampleScenario.node[7].nic.mac1609_4 	TotalLostPackets 	0
scalar IntersectionExampleScenario.node[7].nic.mac1609_4 	DroppedPacketsInMac 	0
scalar IntersectionExampleScenario.node[7].nic.mac1609_4 	TooLittleTime 	0
scalar IntersectionExampleScenario.node[7].nic.mac1609_4 	TimesIntoBackoff 	0
scalar IntersectionExampleScenario.node[7].nic.mac1609_4 	SlotsBackoff 	0
scalar IntersectionExampleScenario.node[7].nic.mac1609_4 	NumInternalContention 	0
scalar IntersectionExampleScenario.node[7].nic.mac1609_4 	totalBusyTime 	0
scalar IntersectionExampleScenario.node[7].veinsmobility 	startTime 	15
scalar IntersectionExampleScenario.node[7].veinsmobility 	totalTime 	42
scalar IntersectionExampleScenario.node[7].veinsmobility 	stopTime 	57.25
scalar IntersectionExampleScenario.node[7].veinsmobility 	minSpeed 	5.6500000953674
scalar IntersectionExampleScenario.node[7].veinsmobility 	maxSpeed 	15.875
scalar IntersectionExampleScenario.node[7].veinsmobility 	totalDistance 	564.1891426181
scalar IntersectionExampleScenario.node[7].veinsmobility 	totalCO2Emission 	131.80778611724
scalar IntersectionExampleScenario.node[9].appl 	VehicleRemoved 	0
scalar IntersectionExampleScenario.node[9].appl 	ArrivedAtDest 	1
scalar IntersectionExampleScenario.node[9].appl 	IntersectionEnterTime 	22.75
scalar IntersectionExampleScenario.node[9].appl 	IntersectionExitTime 	46.280004775705
scalar IntersectionExampleScenario.node[9].appl 	NumberOfCollisions 	0
scalar IntersectionExampleScenario.node[9].nic.phy80211p 	busyTime 	0
scalar IntersectionExampleScenario.node[9].nic.mac1609_4 	ReceivedUnicastPackets 	0
scalar IntersectionExampleScenario.node[9].nic.mac1609_4 	ReceivedBroadcasts 	0
scalar IntersectionExampleScenario.node[9].nic.mac1609_4 	SentPackets 	0
scalar IntersectionExampleScenario.node[9].nic.mac1609_4 	SNIRLostPackets 	0
scalar IntersectionExampleScenario.node[9].nic.mac1609_4 	RXTXLostPackets 	0
scalar IntersectionExampleScenario.node[9].nic.mac1609_4 	TotalLostPackets 	0
scalar IntersectionExampleScenario.node[9].nic.mac1609_4 	DroppedPacketsInMac 	0
scalar IntersectionExampleScenario.node[9].nic.mac1609_4 	TooLittleTime 	0
scalar IntersectionExampleScenario.node[9].nic.mac1609_4 	TimesIntoBackoff 	0
scalar IntersectionExampleScenario.node[9].nic.mac1609_4 	SlotsBackoff 	0
scalar IntersectionExampleScenario.node[9].nic.mac1609_4 	NumInternalContention 	0
scalar IntersectionExampleScenario.node[9].nic.mac1609_4 	totalBusyTime 	0
scalar IntersectionExampleScenario.node[9].veinsmobility 	startTime 	22.75
scalar IntersectionExampleScenario.node[9].veinsmobility 	totalTime 	40
scalar IntersectionExampleScenario.node[9].veinsmobility 	stopTime 	63
scalar IntersectionExampleScenario.node[9].veinsmobility 	minSpeed 	5.6500000953674
scalar IntersectionExampleScenario.node[9].veinsmobility 	maxSpeed 	15.375
scalar IntersectionExampleScenario.node[9].veinsmobility 	totalDistance 	549.46560175116
scalar IntersectionExampleScenario.node[9].veinsmobility 	totalCO2Emission 	121.85890787754
scalar IntersectionExampleScenario.node[4].appl 	VehicleRemoved 	0
scalar IntersectionExampleScenario.node[4].appl 	ArrivedAtDest 	1
scalar IntersectionExampleScenario.node[4].appl 	IntersectionEnterTime 	11.75
scalar IntersectionExampleScenario.node[4].appl 	IntersectionExitTime 	50.27528102856
scalar IntersectionExampleScenario.node[4].appl 	NumberOfCollisions 	0
scalar IntersectionExampleScenario.node[4].nic.phy80211p 	busyTime 	0
scalar IntersectionExampleScenario.node[4].nic.mac1609_4 	ReceivedUnicastPackets 	0
scalar IntersectionExampleScenario.node[4].nic.mac1609_4 	ReceivedBroadcasts 	0
scalar IntersectionExampleScenario.node[4].nic.mac1609_4 	SentPackets 	0
scalar IntersectionExampleScenario.node[4].nic.mac1609_4 	SNIRLostPackets 	0
scalar IntersectionExampleScenario.node[4].nic.mac1609_4 	RXTXLostPackets 	0
scalar IntersectionExampleScenario.node[4].nic.mac1609_4 	TotalLostPackets 	0
scalar IntersectionExampleScenario.node[4].nic.mac1609_4 	DroppedPacketsInMac 	0
scalar IntersectionExampleScenario.node[4].nic.mac1609_4 	TooLittleTime 	0
scalar IntersectionExampleScenario.node[4].nic.mac1609_4 	TimesIntoBackoff 	0
scalar IntersectionExampleScenario.node[4].nic.mac1609_4 	SlotsBackoff 	0
scalar IntersectionExampleScenario.node[4].nic.mac1609_4 	NumInternalContention 	0
scalar IntersectionExampleScenario.node[4].nic.mac1609_4 	totalBusyTime 	0
scalar IntersectionExampleScenario.node[4].veinsmobility 	startTime 	11.75
scalar IntersectionExampleScenario.node[4].veinsmobility 	totalTime 	53.75
scalar IntersectionExampleScenario.node[4].veinsmobility 	stopTime 	65.75
scalar IntersectionExampleScenario.node[4].veinsmobility 	minSpeed 	0
scalar IntersectionExampleScenario.node[4].veinsmobility 	maxSpeed 	16.625
scalar IntersectionExampleScenario.node[4].veinsmobility 	totalDistance 	551.36252702823
scalar IntersectionExampleScenario.node[4].veinsmobility 	totalCO2Emission 	154.62064754822
scalar IntersectionExampleScenario.node[10].appl 	VehicleRemoved 	0
scalar IntersectionExampleScenario.node[10].appl 	ArrivedAtDest 	1
scalar IntersectionExampleScenario.node[10].appl 	IntersectionEnterTime 	23
scalar IntersectionExampleScenario.node[10].appl 	IntersectionExitTime 	52.100936292351
scalar IntersectionExampleScenario.node[10].appl 	NumberOfCollisions 	0
scalar IntersectionExampleScenario.node[10].nic.phy80211p 	busyTime 	0
scalar IntersectionExampleScenario.node[10].nic.mac1609_4 	ReceivedUnicastPackets 	0
scalar IntersectionExampleScenario.node[10].nic.mac1609_4 	ReceivedBroadcasts 	0
scalar IntersectionExampleScenario.node[10].nic.mac1609_4 	SentPackets 	0
scalar IntersectionExampleScenario.node[10].nic.mac1609_4 	SNIRLostPackets 	0
scalar IntersectionExampleScenario.node[10].nic.mac1609_4 	RXTXLostPackets 	0
scalar IntersectionExampleScenario.node[10].nic.mac1609_4 	TotalLostPackets 	0
scalar IntersectionExampleScenario.node[10].nic.mac1609_4 	DroppedPacketsInMac 	0
scalar IntersectionExampleScenario.node[10].nic.mac1609_4 	TooLittleTime 	0
scalar IntersectionExampleScenario.node[10].nic.mac1609_4 	TimesIntoBackoff 	0
scalar IntersectionExampleScenario.node[10].nic.mac1609_4 	SlotsBackoff 	0
scalar IntersectionExampleScenario.node[10].nic.mac1609_4 	NumInternalContention 	0
scalar IntersectionExampleScenario.node[10].nic.mac1609_4 	totalBusyTime 	0
scalar IntersectionExampleScenario.node[10].veinsmobility 	startTime 	23
scalar IntersectionExampleScenario.node[10].veinsmobility 	totalTime 	45.75
scalar IntersectionExampleScenario.node[10].veinsmobility 	stopTime 	69
scalar IntersectionExampleScenario.node[10].veinsmobility 	minSpeed 	3.4625067710876
scalar IntersectionExampleScenario.node[10].veinsmobility 	maxSpeed 	15.64999961853
scalar IntersectionExampleScenario.node[10].veinsmobility 	totalDistance 	545.62849137999
scalar IntersectionExampleScenario.node[10].veinsmobility 	totalCO2Emission 	136.60688330084
scalar IntersectionExampleScenario.node[13].appl 	VehicleRemoved 	0
scalar IntersectionExampleScenario.node[13].appl 	ArrivedAtDest 	1
scalar IntersectionExampleScenario.node[13].appl 	IntersectionEnterTime 	26.5
scalar IntersectionExampleScenario.node[13].appl 	IntersectionExitTime 	54.3619396266
scalar IntersectionExampleScenario.node[13].appl 	NumberOfCollisions 	0
scalar IntersectionExampleScenario.node[13].nic.phy80211p 	busyTime 	0
scalar IntersectionExampleScenario.node[13].nic.mac1609_4 	ReceivedUnicastPackets 	0
scalar IntersectionExampleScenario.node[13].nic.mac1609_4 	ReceivedBroadcasts 	0
scalar IntersectionExampleScenario.node[13].nic.mac1609_4 	SentPackets 	0
scalar IntersectionExampleScenario.node[13].nic.mac1609_4 	SNIRLostPackets 	0
scalar IntersectionExampleScenario.node[13].nic.mac1609_4 	RXTXLostPackets 	0
scalar IntersectionExampleScenario.node[13].nic.mac1609_4 	TotalLostPackets 	0
scalar IntersectionExampleScenario.node[13].nic.mac1609_4 	DroppedPacketsInMac 	0
scalar IntersectionExampleScenario.node[13].nic.mac1609_4 	TooLittleTime 	0
scalar IntersectionExampleScenario.node[13].nic.mac1609_4 	TimesIntoBackoff 	0
scalar IntersectionExampleScenario.node[13].nic.mac1609_4 	SlotsBackoff 	0
scalar IntersectionExampleScenario.node[13].nic.mac1609_4 	NumInternalContention 	0
scalar IntersectionExampleScenario.node[13].nic.mac1609_4 	totalBusyTime 	0
scalar IntersectionExampleScenario.node[13].veinsmobility 	startTime 	26.5
scalar IntersectionExampleScenario.node[13].veinsmobility 	totalTime 	44
scalar IntersectionExampleScenario.node[13].veinsmobility 	stopTime 	70.75
scalar IntersectionExampleScenario.node[13].veinsmobility 	minSpeed 	3.9301633834839
scalar IntersectionExampleScenario.node[13].veinsmobility 	maxSpeed 	15.02499961853
scalar IntersectionExampleScenario.node[13].veinsmobility 	totalDistance 	541.32371520996
scalar IntersectionExampleScenario.node[13].veinsmobility 	totalCO2Emission 	136.72261094175
scalar IntersectionExampleScenario.node[11].appl 	VehicleRemoved 	0
scalar IntersectionExampleScenario.node[11].appl 	ArrivedAtDest 	1
scalar IntersectionExampleScenario.node[11].appl 	IntersectionEnterTime 	26
scalar IntersectionExampleScenario.node[11].appl 	IntersectionExitTime 	56.000049453229
scalar IntersectionExampleScenario.node[11].appl 	NumberOfCollisions 	0
scalar IntersectionExampleScenario.node[11].nic.phy80211p 	busyTime 	0
scalar IntersectionExampleScenario.node[11].nic.mac1609_4 	ReceivedUnicastPackets 	0
scalar IntersectionExampleScenario.node[11].nic.mac1609_4 	ReceivedBroadcasts 	0
scalar IntersectionExampleScenario.node[11].nic.mac1609_4 	SentPackets 	0
scalar IntersectionExampleScenario.node[11].nic.mac1609_4 	SNIRLostPackets 	0
scalar IntersectionExampleScenario.node[11].nic.mac1609_4 	RXTXLostPackets 	0
scalar IntersectionExampleScenario.node[11].nic.mac1609_4 	TotalLostPackets 	0
scalar IntersectionExampleScenario.node[11].nic.mac1609_4 	DroppedPacketsInMac 	0
scalar IntersectionExampleScenario.node[11].nic.mac1609_4 	TooLittleTime 	0
scalar IntersectionExampleScenario.node[11].nic.mac1609_4 	TimesIntoBackoff 	0
scalar IntersectionExampleScenario.node[11].nic.mac1609_4 	SlotsBackoff 	0
scalar IntersectionExampleScenario.node[11].nic.mac1609_4 	NumInternalContention 	0
scalar IntersectionExampleScenario.node[11].nic.mac1609_4 	totalBusyTime 	0
scalar IntersectionExampleScenario.node[11].veinsmobility 	startTime 	26
scalar IntersectionExampleScenario.node[11].veinsmobility 	totalTime 	45.75
scalar IntersectionExampleScenario.node[11].veinsmobility 	stopTime 	72
scalar IntersectionExampleScenario.node[11].veinsmobility 	minSpeed 	4.4615020751953
scalar IntersectionExampleScenario.node[11].veinsmobility 	maxSpeed 	16.190095901489
scalar IntersectionExampleScenario.node[11].veinsmobility 	totalDistance 	564.3614654541
scalar IntersectionExampleScenario.node[11].veinsmobility 	totalCO2Emission 	145.28510149592
scalar IntersectionExampleScenario.node[6].appl 	VehicleRemoved 	0
scalar IntersectionExampleScenario.node[6].appl 	ArrivedAtDest 	1
scalar IntersectionExampleScenario.node[6].appl 	IntersectionEnterTime 	14
scalar IntersectionExampleScenario.node[6].appl 	IntersectionExitTime 	60.854379336088
scalar IntersectionExampleScenario.node[6].appl 	NumberOfCollisions 	0
scalar IntersectionExampleScenario.node[6].nic.phy80211p 	busyTime 	0
scalar IntersectionExampleScenario.node[6].nic.mac1609_4 	ReceivedUnicastPackets 	0
scalar IntersectionExampleScenario.node[6].nic.mac1609_4 	ReceivedBroadcasts 	0
scalar IntersectionExampleScenario.node[6].nic.mac1609_4 	SentPackets 	0
scalar IntersectionExampleScenario.node[6].nic.mac1609_4 	SNIRLostPackets 	0
scalar IntersectionExampleScenario.node[6].nic.mac1609_4 	RXTXLostPackets 	0
scalar IntersectionExampleScenario.node[6].nic.mac1609_4 	TotalLostPackets 	0
scalar IntersectionExampleScenario.node[6].nic.mac1609_4 	DroppedPacketsInMac 	0
scalar IntersectionExampleScenario.node[6].nic.mac1609_4 	TooLittleTime 	0
scalar IntersectionExampleScenario.node[6].nic.mac1609_4 	TimesIntoBackoff 	0
scalar IntersectionExampleScenario.node[6].nic.mac1609_4 	SlotsBackoff 	0
scalar IntersectionExampleScenario.node[6].nic.mac1609_4 	NumInternalContention 	0
scalar IntersectionExampleScenario.node[6].nic.mac1609_4 	totalBusyTime 	0
scalar IntersectionExampleScenario.node[6].veinsmobility 	startTime 	14
scalar IntersectionExampleScenario.node[6].veinsmobility 	totalTime 	62.75
scalar IntersectionExampleScenario.node[6].veinsmobility 	stopTime 	77
scalar IntersectionExampleScenario.node[6].veinsmobility 	minSpeed 	0
scalar IntersectionExampleScenario.node[6].veinsmobility 	maxSpeed 	16
scalar IntersectionExampleScenario.node[6].veinsmobility 	totalDistance 	573.39377718401
scalar IntersectionExampleScenario.node[6].veinsmobility 	totalCO2Emission 	160.56607267689
scalar IntersectionExampleScenario.node[8].appl 	VehicleRemoved 	0
scalar IntersectionExampleScenario.node[8].appl 	ArrivedAtDest 	1
scalar IntersectionExampleScenario.node[8].appl 	IntersectionEnterTime 	20.75
scalar IntersectionExampleScenario.node[8].appl 	IntersectionExitTime 	63.518123793387
scalar IntersectionExampleScenario.node[8].appl 	NumberOfCollisions 	0
scalar IntersectionExampleScenario.node[8].nic.phy80211p 	busyTime 	0
scalar IntersectionExampleScenario.node[8].nic.mac1609_4 	ReceivedUnicastPackets 	0
scalar IntersectionExampleScenario.node[8].nic.mac1609_4 	ReceivedBroadcasts 	0
scalar IntersectionExampleScenario.node[8].nic.mac1609_4 	SentPackets 	0
scalar IntersectionExampleScenario.node[8].nic.mac1609_4 	SNIRLostPackets 	0
scalar IntersectionExampleScenario.node[8].nic.mac1609_4 	RXTXLostPackets 	0
scalar IntersectionExampleScenario.node[8].nic.mac1609_4 	TotalLostPackets 	0
scalar IntersectionExampleScenario.node[8].nic.mac1609_4 	DroppedPacketsInMac 	0
scalar IntersectionExampleScenario.node[8].nic.mac1609_4 	TooLittleTime 	0
scalar IntersectionExampleScenario.node[8].nic.mac1609_4 	TimesIntoBackoff 	0
scalar IntersectionExampleScenario.node[8].nic.mac1609_4 	SlotsBackoff 	0
scalar IntersectionExampleScenario.node[8].nic.mac1609_4 	NumInternalContention 	0
scalar IntersectionExampleScenario.node[8].nic.mac1609_4 	totalBusyTime 	0
scalar IntersectionExampleScenario.node[8].veinsmobility 	startTime 	20.75
scalar IntersectionExampleScenario.node[8].veinsmobility 	totalTime 	58.5
scalar IntersectionExampleScenario.node[8].veinsmobility 	stopTime 	79.5
scalar IntersectionExampleScenario.node[8].veinsmobility 	minSpeed 	0
scalar IntersectionExampleScenario.node[8].veinsmobility 	maxSpeed 	16.89999961853
scalar IntersectionExampleScenario.node[8].veinsmobility 	totalDistance 	545.46601251917
scalar IntersectionExampleScenario.node[8].veinsmobility 	totalCO2Emission 	160.14592370209
scalar IntersectionExampleScenario.node[15].appl 	VehicleRemoved 	0
scalar IntersectionExampleScenario.node[15].appl 	ArrivedAtDest 	1
scalar IntersectionExampleScenario.node[15].appl 	IntersectionEnterTime 	39.25
scalar IntersectionExampleScenario.node[15].appl 	IntersectionExitTime 	64.307234996551
scalar IntersectionExampleScenario.node[15].appl 	NumberOfCollisions 	0
scalar IntersectionExampleScenario.node[15].nic.phy80211p 	busyTime 	0
scalar IntersectionExampleScenario.node[15].nic.mac1609_4 	ReceivedUnicastPackets 	0
scalar IntersectionExampleScenario.node[15].nic.mac1609_4 	ReceivedBroadcasts 	0
scalar IntersectionExampleScenario.node[15].nic.mac1609_4 	SentPackets 	0
scalar IntersectionExampleScenario.node[15].nic.mac1609_4 	SNIRLostPackets 	0
scalar IntersectionExampleScenario.node[15].nic.mac1609_4 	RXTXLostPackets 	0
scalar IntersectionExampleScenario.node[15].nic.mac1609_4 	TotalLostPackets 	0
scalar IntersectionExampleScenario.node[15].nic.mac1609_4 	DroppedPacketsInMac 	0
scalar IntersectionExampleScenario.node[15].nic.mac1609_4 	TooLittleTime 	0
scalar IntersectionExampleScenario.node[15].nic.mac1609_4 	TimesIntoBackoff 	0
scalar IntersectionExampleScenario.node[15].nic.mac1609_4 	SlotsBackoff 	0
scalar IntersectionExampleScenario.node[15].nic.mac1609_4 	NumInternalContention 	0
scalar IntersectionExampleScenario.node[15].nic.mac1609_4 	totalBusyTime 	0
scalar IntersectionExampleScenario.node[15].veinsmobility 	startTime 	39.25
scalar IntersectionExampleScenario.node[15].veinsmobility 	totalTime 	41.25
scalar IntersectionExampleScenario.node[15].veinsmobility 	stopTime 	80.75
scalar IntersectionExampleScenario.node[15].veinsmobility 	minSpeed 	5.6500000953674
scalar IntersectionExampleScenario.node[15].veinsmobility 	maxSpeed 	16.27499961853
scalar IntersectionExampleScenario.node[15].veinsmobility 	totalDistance 	543.24142742259
scalar IntersectionExampleScenario.node[15].veinsmobility 	totalCO2Emission 	142.0213699489
scalar IntersectionExampleScenario.node[12].appl 	VehicleRemoved 	0
scalar IntersectionExampleScenario.node[12].appl 	ArrivedAtDest 	1
scalar IntersectionExampleScenario.node[12].appl 	IntersectionEnterTime 	26.5
scalar IntersectionExampleScenario.node[12].appl 	IntersectionExitTime 	74.288902289845
scalar IntersectionExampleScenario.node[12].appl 	NumberOfCollisions 	0
scalar IntersectionExampleScenario.node[12].nic.phy80211p 	busyTime 	0
scalar IntersectionExampleScenario.node[12].nic.mac1609_4 	ReceivedUnicastPackets 	0
scalar IntersectionExampleScenario.node[12].nic.mac1609_4 	ReceivedBroadcasts 	0
scalar IntersectionExampleScenario.node[12].nic.mac1609_4 	SentPackets 	0
scalar IntersectionExampleScenario.node[12].nic.mac1609_4 	SNIRLostPackets 	0
scalar IntersectionExampleScenario.node[12].nic.mac1609_4 	RXTXLostPackets 	0
scalar IntersectionExampleScenario.node[12].nic.mac1609_4 	TotalLostPackets 	0
scalar IntersectionExampleScenario.node[12].nic.mac1609_4 	DroppedPacketsInMac 	0
scalar IntersectionExampleScenario.node[12].nic.mac1609_4 	TooLittleTime 	0
scalar IntersectionExampleScenario.node[12].nic.mac1609_4 	TimesIntoBackoff 	0
scalar IntersectionExampleScenario.node[12].nic.mac1609_4 	SlotsBackoff 	0
scalar IntersectionExampleScenario.node[12].nic.mac1609_4 	NumInternalContention 	0
scalar IntersectionExampleScenario.node[12].nic.mac1609_4 	totalBusyTime 	0
scalar IntersectionExampleScenario.node[12].veinsmobility 	startTime 	26.5
scalar IntersectionExampleScenario.node[12].veinsmobility 	totalTime 	63.5
scalar IntersectionExampleScenario.node[12].veinsmobility 	stopTime 	90.25
scalar IntersectionExampleScenario.node[12].veinsmobility 	minSpeed 	0
scalar IntersectionExampleScenario.node[12].veinsmobility 	maxSpeed 	16
scalar IntersectionExampleScenario.node[12].veinsmobility 	totalDistance 	556.82562364688
scalar IntersectionExampleScenario.node[12].veinsmobility 	totalCO2Emission 	158.00718451938
scalar IntersectionExampleScenario.node[14].appl 	VehicleRemoved 	0
scalar IntersectionExampleScenario.node[14].appl 	ArrivedAtDest 	1
scalar IntersectionExampleScenario.node[14].appl 	IntersectionEnterTime 	32.75
scalar IntersectionExampleScenario.node[14].appl 	IntersectionExitTime 	76.849543028366
scalar IntersectionExampleScenario.node[14].appl 	NumberOfCollisions 	0
scalar IntersectionExampleScenario.node[14].nic.phy80211p 	busyTime 	0
scalar IntersectionExampleScenario.node[14].nic.mac1609_4 	ReceivedUnicastPackets 	0
scalar IntersectionExampleScenario.node[14].nic.mac1609_4 	ReceivedBroadcasts 	0
scalar IntersectionExampleScenario.node[14].nic.mac1609_4 	SentPackets 	0
scalar IntersectionExampleScenario.node[14].nic.mac1609_4 	SNIRLostPackets 	0
scalar IntersectionExampleScenario.node[14].nic.mac1609_4 	RXTXLostPackets 	0
scalar IntersectionExampleScenario.node[14].nic.mac1609_4 	TotalLostPackets 	0
scalar IntersectionExampleScenario.node[14].nic.mac1609_4 	DroppedPacketsInMac 	0
scalar IntersectionExampleScenario.node[14].nic.mac1609_4 	TooLittleTime 	0
scalar IntersectionExampleScenario.node[14].nic.mac1609_4 	TimesIntoBackoff 	0
scalar IntersectionExampleScenario.node[14].nic.mac1609_4 	SlotsBackoff 	0
scalar IntersectionExampleScenario.node[14].nic.mac1609_4 	NumInternalContention 	0
scalar IntersectionExampleScenario.node[14].nic.mac1609_4 	totalBusyTime 	0
scalar IntersectionExampleScenario.node[14].veinsmobility 	startTime 	32.75
scalar IntersectionExampleScenario.node[14].veinsmobility 	totalTime 	60.25
scalar IntersectionExampleScenario.node[14].veinsmobility 	stopTime 	93.25
scalar IntersectionExampleScenario.node[14].veinsmobility 	minSpeed 	0
scalar IntersectionExampleScenario.node[14].veinsmobility 	maxSpeed 	15.64999961853
scalar IntersectionExampleScenario.node[14].veinsmobility 	totalDistance 	550.99165647316
scalar IntersectionExampleScenario.node[14].veinsmobility 	totalCO2Emission 	149.99246797194
scalar IntersectionExampleScenario.node[16].appl 	VehicleRemoved 	0
scalar IntersectionExampleScenario.node[16].appl 	ArrivedAtDest 	1
scalar IntersectionExampleScenario.node[16].appl 	IntersectionEnterTime 	54.25
scalar IntersectionExampleScenario.node[16].appl 	IntersectionExitTime 	78.873164492135
scalar IntersectionExampleScenario.node[16].appl 	NumberOfCollisions 	0
scalar IntersectionExampleScenario.node[16].nic.phy80211p 	busyTime 	0
scalar IntersectionExampleScenario.node[16].nic.mac1609_4 	ReceivedUnicastPackets 	0
scalar IntersectionExampleScenario.node[16].nic.mac1609_4 	ReceivedBroadcasts 	0
scalar IntersectionExampleScenario.node[16].nic.mac1609_4 	SentPackets 	0
scalar IntersectionExampleScenario.node[16].nic.mac1609_4 	SNIRLostPackets 	0
scalar IntersectionExampleScenario.node[16].nic.mac1609_4 	RXTXLostPackets 	0
scalar IntersectionExampleScenario.node[16].nic.mac1609_4 	TotalLostPackets 	0
scalar IntersectionExampleScenario.node[16].nic.mac1609_4 	DroppedPacketsInMac 	0
scalar IntersectionExampleScenario.node[16].nic.mac1609_4 	TooLittleTime 	0
scalar IntersectionExampleScenario.node[16].nic.mac1609_4 	TimesIntoBackoff 	0
scalar IntersectionExampleScenario.node[16].nic.mac1609_4 	SlotsBackoff 	0
scalar IntersectionExampleScenario.node[16].nic.mac1609_4 	NumInternalContention 	0
scalar IntersectionExampleScenario.node[16].nic.mac1609_4 	totalBusyTime 	0
scalar IntersectionExampleScenario.node[16].veinsmobility 	startTime 	54.25
scalar IntersectionExampleScenario.node[16].veinsmobility 	totalTime 	40
scalar IntersectionExampleScenario.node[16].veinsmobility 	stopTime 	94.5
scalar IntersectionExampleScenario.node[16].veinsmobility 	minSpeed 	5.6500000953674
scalar IntersectionExampleScenario.node[16].veinsmobility 	maxSpeed 	16.27499961853
scalar IntersectionExampleScenario.node[16].veinsmobility 	totalDistance 	553.77512359619
scalar IntersectionExampleScenario.node[16].veinsmobility 	totalCO2Emission 	140.39417090056
scalar IntersectionExampleScenario.node[17].appl 	VehicleRemoved 	0
scalar IntersectionExampleScenario.node[17].appl 	ArrivedAtDest 	1
scalar IntersectionExampleScenario.node[17].appl 	IntersectionEnterTime 	57.5
scalar IntersectionExampleScenario.node[17].appl 	IntersectionExitTime 	81.51114502261
scalar IntersectionExampleScenario.node[17].appl 	NumberOfCollisions 	0
scalar IntersectionExampleScenario.node[17].nic.phy80211p 	busyTime 	0
scalar IntersectionExampleScenario.node[17].nic.mac1609_4 	ReceivedUnicastPackets 	0
scalar IntersectionExampleScenario.node[17].nic.mac1609_4 	ReceivedBroadcasts 	0
scalar IntersectionExampleScenario.node[17].nic.mac1609_4 	SentPackets 	0
scalar IntersectionExampleScenario.node[17].nic.mac1609_4 	SNIRLostPackets 	0
scalar IntersectionExampleScenario.node[17].nic.mac1609_4 	RXTXLostPackets 	0
scalar IntersectionExampleScenario.node[17].nic.mac1609_4 	TotalLostPackets 	0
scalar IntersectionExampleScenario.node[17].nic.mac1609_4 	DroppedPacketsInMac 	0
scalar IntersectionExampleScenario.node[17].nic.mac1609_4 	TooLittleTime 	0
scalar IntersectionExampleScenario.node[17].nic.mac1609_4 	TimesIntoBackoff 	0
scalar IntersectionExampleScenario.node[17].nic.mac1609_4 	SlotsBackoff 	0
scalar IntersectionExampleScenario.node[17].nic.mac1609_4 	NumInternalContention 	0
scalar IntersectionExampleScenario.node[17].nic.mac1609_4 	totalBusyTime 	0
scalar IntersectionExampleScenario.node[17].veinsmobility 	startTime 	57.5
scalar IntersectionExampleScenario.node[17].veinsmobility 	totalTime 	40
scalar IntersectionExampleScenario.node[17].veinsmobility 	stopTime 	97.75
scalar IntersectionExampleScenario.node[17].veinsmobility 	minSpeed 	5.6500000953674
scalar IntersectionExampleScenario.node[17].veinsmobility 	maxSpeed 	16.27499961853
scalar IntersectionExampleScenario.node[17].veinsmobility 	totalDistance 	562.62711882257
scalar IntersectionExampleScenario.node[17].veinsmobility 	totalCO2Emission 	131.27143725976
scalar IntersectionExampleScenario.node[20].appl 	VehicleRemoved 	0
scalar IntersectionExampleScenario.node[20].appl 	ArrivedAtDest 	1
scalar IntersectionExampleScenario.node[20].appl 	IntersectionEnterTime 	70.5
scalar IntersectionExampleScenario.node[20].appl 	IntersectionExitTime 	95.556963722367
scalar IntersectionExampleScenario.node[20].appl 	NumberOfCollisions 	0
scalar IntersectionExampleScenario.node[20].nic.phy80211p 	busyTime 	0
scalar IntersectionExampleScenario.node[20].nic.mac1609_4 	ReceivedUnicastPackets 	0
scalar IntersectionExampleScenario.node[20].nic.mac1609_4 	ReceivedBroadcasts 	0
scalar IntersectionExampleScenario.node[20].nic.mac1609_4 	SentPackets 	0
scalar IntersectionExampleScenario.node[20].nic.mac1609_4 	SNIRLostPackets 	0
scalar IntersectionExampleScenario.node[20].nic.mac1609_4 	RXTXLostPackets 	0
scalar IntersectionExampleScenario.node[20].nic.mac1609_4 	TotalLostPackets 	0
scalar IntersectionExampleScenario.node[20].nic.mac1609_4 	DroppedPacketsInMac 	0
scalar IntersectionExampleScenario.node[20].nic.mac1609_4 	TooLittleTime 	0
scalar IntersectionExampleScenario.node[20].nic.mac1609_4 	TimesIntoBackoff 	0
scalar IntersectionExampleScenario.node[20].nic.mac1609_4 	SlotsBackoff 	0
scalar IntersectionExampleScenario.node[20].nic.mac1609_4 	NumInternalContention 	0
scalar IntersectionExampleScenario.node[20].nic.mac1609_4 	totalBusyTime 	0
scalar IntersectionExampleScenario.node[20].veinsmobility 	startTime 	70.5
scalar IntersectionExampleScenario.node[20].veinsmobility 	totalTime 	40.75
scalar IntersectionExampleScenario.node[20].veinsmobility 	stopTime 	111.5
scalar IntersectionExampleScenario.node[20].veinsmobility 	minSpeed 	0
scalar IntersectionExampleScenario.node[20].veinsmobility 	maxSpeed 	17.125
scalar IntersectionExampleScenario.node[20].veinsmobility 	totalDistance 	546.21556760222
scalar IntersectionExampleScenario.node[20].veinsmobility 	totalCO2Emission 	144.81242430834
scalar IntersectionExampleScenario.node[22].appl 	VehicleRemoved 	0
scalar IntersectionExampleScenario.node[22].appl 	ArrivedAtDest 	1
scalar IntersectionExampleScenario.node[22].appl 	IntersectionEnterTime 	72
scalar IntersectionExampleScenario.node[22].appl 	IntersectionExitTime 	95.561646143033
scalar IntersectionExampleScenario.node[22].appl 	NumberOfCollisions 	0
scalar IntersectionExampleScenario.node[22].nic.phy80211p 	busyTime 	0
scalar IntersectionExampleScenario.node[22].nic.mac1609_4 	ReceivedUnicastPackets 	0
scalar IntersectionExampleScenario.node[22].nic.mac1609_4 	ReceivedBroadcasts 	0
scalar IntersectionExampleScenario.node[22].nic.mac1609_4 	SentPackets 	0
scalar IntersectionExampleScenario.node[22].nic.mac1609_4 	SNIRLostPackets 	0
scalar IntersectionExampleScenario.node[22].nic.mac1609_4 	RXTXLostPackets 	0
scalar IntersectionExampleScenario.node[22].nic.mac1609_4 	TotalLostPackets 	0
scalar IntersectionExampleScenario.node[22].nic.mac1609_4 	DroppedPacketsInMac 	0
scalar IntersectionExampleScenario.node[22].nic.mac1609_4 	TooLittleTime 	0
scalar IntersectionExampleScenario.node[22].nic.mac1609_4 	TimesIntoBackoff 	0
scalar IntersectionExampleScenario.node[22].nic.mac1609_4 	SlotsBackoff 	0
scalar IntersectionExampleScenario.node[22].nic.mac1609_4 	NumInternalContention 	0
scalar IntersectionExampleScenario.node[22].nic.mac1609_4 	totalBusyTime 	0
scalar IntersectionExampleScenario.node[22].veinsmobility 	startTime 	72
scalar IntersectionExampleScenario.node[22].veinsmobility 	totalTime 	39.75
scalar IntersectionExampleScenario.node[22].veinsmobility 	stopTime 	112
scalar IntersectionExampleScenario.node[22].veinsmobility 	minSpeed 	5.6500000953674
scalar IntersectionExampleScenario.node[22].veinsmobility 	maxSpeed 	16.27499961853
scalar IntersectionExampleScenario.node[22].veinsmobility 	totalDistance 	543.79905413332
scalar IntersectionExampleScenario.node[22].veinsmobility 	totalCO2Emission 	131.32877860611
scalar IntersectionExampleScenario.node[24].appl 	VehicleRemoved 	0
scalar IntersectionExampleScenario.node[24].appl 	ArrivedAtDest 	1
scalar IntersectionExampleScenario.node[24].appl 	IntersectionEnterTime 	78.75
scalar IntersectionExampleScenario.node[24].appl 	IntersectionExitTime 	101.06495556163
scalar IntersectionExampleScenario.node[24].appl 	NumberOfCollisions 	0
scalar IntersectionExampleScenario.node[24].nic.phy80211p 	busyTime 	0
scalar IntersectionExampleScenario.node[24].nic.mac1609_4 	ReceivedUnicastPackets 	0
scalar IntersectionExampleScenario.node[24].nic.mac1609_4 	ReceivedBroadcasts 	0
scalar IntersectionExampleScenario.node[24].nic.mac1609_4 	SentPackets 	0
scalar IntersectionExampleScenario.node[24].nic.mac1609_4 	SNIRLostPackets 	0
scalar IntersectionExampleScenario.node[24].nic.mac1609_4 	RXTXLostPackets 	0
scalar IntersectionExampleScenario.node[24].nic.mac1609_4 	TotalLostPackets 	0
scalar IntersectionExampleScenario.node[24].nic.mac1609_4 	DroppedPacketsInMac 	0
scalar IntersectionExampleScenario.node[24].nic.mac1609_4 	TooLittleTime 	0
scalar IntersectionExampleScenario.node[24].nic.mac1609_4 	TimesIntoBackoff 	0
scalar IntersectionExampleScenario.node[24].nic.mac1609_4 	SlotsBackoff 	0
scalar IntersectionExampleScenario.node[24].nic.mac1609_4 	NumInternalContention 	0
scalar IntersectionExampleScenario.node[24].nic.mac1609_4 	totalBusyTime 	0
scalar IntersectionExampleScenario.node[24].veinsmobility 	startTime 	78.75
scalar IntersectionExampleScenario.node[24].veinsmobility 	totalTime 	37.75
scalar IntersectionExampleScenario.node[24].veinsmobility 	stopTime 	116.75
scalar IntersectionExampleScenario.node[24].veinsmobility 	minSpeed 	5.6500000953674
scalar IntersectionExampleScenario.node[24].veinsmobility 	maxSpeed 	16.27499961853
scalar IntersectionExampleScenario.node[24].veinsmobility 	totalDistance 	550.72306060791
scalar IntersectionExampleScenario.node[24].veinsmobility 	totalCO2Emission 	120.69625105285
scalar IntersectionExampleScenario.node[25].appl 	VehicleRemoved 	0
scalar IntersectionExampleScenario.node[25].appl 	ArrivedAtDest 	1
scalar IntersectionExampleScenario.node[25].appl 	IntersectionEnterTime 	84.25
scalar IntersectionExampleScenario.node[25].appl 	IntersectionExitTime 	106.25052804611
scalar IntersectionExampleScenario.node[25].appl 	NumberOfCollisions 	0
scalar IntersectionExampleScenario.node[25].nic.phy80211p 	busyTime 	0
scalar IntersectionExampleScenario.node[25].nic.mac1609_4 	ReceivedUnicastPackets 	0
scalar IntersectionExampleScenario.node[25].nic.mac1609_4 	ReceivedBroadcasts 	0
scalar IntersectionExampleScenario.node[25].nic.mac1609_4 	SentPackets 	0
scalar IntersectionExampleScenario.node[25].nic.mac1609_4 	SNIRLostPackets 	0
scalar IntersectionExampleScenario.node[25].nic.mac1609_4 	RXTXLostPackets 	0
scalar IntersectionExampleScenario.node[25].nic.mac1609_4 	TotalLostPackets 	0
scalar IntersectionExampleScenario.node[25].nic.mac1609_4 	DroppedPacketsInMac 	0
scalar IntersectionExampleScenario.node[25].nic.mac1609_4 	TooLittleTime 	0
scalar IntersectionExampleScenario.node[25].nic.mac1609_4 	TimesIntoBackoff 	0
scalar IntersectionExampleScenario.node[25].nic.mac1609_4 	SlotsBackoff 	0
scalar IntersectionExampleScenario.node[25].nic.mac1609_4 	NumInternalContention 	0
scalar IntersectionExampleScenario.node[25].nic.mac1609_4 	totalBusyTime 	0
scalar IntersectionExampleScenario.node[25].veinsmobility 	startTime 	84.25
scalar IntersectionExampleScenario.node[25].veinsmobility 	totalTime 	37.25
scalar IntersectionExampleScenario.node[25].veinsmobility 	stopTime 	121.75
scalar IntersectionExampleScenario.node[25].veinsmobility 	minSpeed 	5.6500000953674
scalar IntersectionExampleScenario.node[25].veinsmobility 	maxSpeed 	16.27499961853
scalar IntersectionExampleScenario.node[25].veinsmobility 	totalDistance 	551.74674224854
scalar IntersectionExampleScenario.node[25].veinsmobility 	totalCO2Emission 	122.72925242157
scalar IntersectionExampleScenario.node[18].appl 	VehicleRemoved 	0
scalar IntersectionExampleScenario.node[18].appl 	ArrivedAtDest 	1
scalar IntersectionExampleScenario.node[18].appl 	IntersectionEnterTime 	59.5
scalar IntersectionExampleScenario.node[18].appl 	IntersectionExitTime 	109.28113215009
scalar IntersectionExampleScenario.node[18].appl 	NumberOfCollisions 	0
scalar IntersectionExampleScenario.node[18].nic.phy80211p 	busyTime 	0
scalar IntersectionExampleScenario.node[18].nic.mac1609_4 	ReceivedUnicastPackets 	0
scalar IntersectionExampleScenario.node[18].nic.mac1609_4 	ReceivedBroadcasts 	0
scalar IntersectionExampleScenario.node[18].nic.mac1609_4 	SentPackets 	0
scalar IntersectionExampleScenario.node[18].nic.mac1609_4 	SNIRLostPackets 	0
scalar IntersectionExampleScenario.node[18].nic.mac1609_4 	RXTXLostPackets 	0
scalar IntersectionExampleScenario.node[18].nic.mac1609_4 	TotalLostPackets 	0
scalar IntersectionExampleScenario.node[18].nic.mac1609_4 	DroppedPacketsInMac 	0
scalar IntersectionExampleScenario.node[18].nic.mac1609_4 	TooLittleTime 	0
scalar IntersectionExampleScenario.node[18].nic.mac1609_4 	TimesIntoBackoff 	0
scalar IntersectionExampleScenario.node[18].nic.mac1609_4 	SlotsBackoff 	0
scalar IntersectionExampleScenario.node[18].nic.mac1609_4 	NumInternalContention 	0
scalar IntersectionExampleScenario.node[18].nic.mac1609_4 	totalBusyTime 	0
scalar IntersectionExampleScenario.node[18].veinsmobility 	startTime 	59.5
scalar IntersectionExampleScenario.node[18].veinsmobility 	totalTime 	65.75
scalar IntersectionExampleScenario.node[18].veinsmobility 	stopTime 	125.5
scalar IntersectionExampleScenario.node[18].veinsmobility 	minSpeed 	0
scalar IntersectionExampleScenario.node[18].veinsmobility 	maxSpeed 	15.64999961853
scalar IntersectionExampleScenario.node[18].veinsmobility 	totalDistance 	573.13714708438
scalar IntersectionExampleScenario.node[18].veinsmobility 	totalCO2Emission 	161.04752194168
scalar IntersectionExampleScenario.node[19].appl 	VehicleRemoved 	0
scalar IntersectionExampleScenario.node[19].appl 	ArrivedAtDest 	1
scalar IntersectionExampleScenario.node[19].appl 	IntersectionEnterTime 	61
scalar IntersectionExampleScenario.node[19].appl 	IntersectionExitTime 	111.52342650606
scalar IntersectionExampleScenario.node[19].appl 	NumberOfCollisions 	0
scalar IntersectionExampleScenario.node[19].nic.phy80211p 	busyTime 	0
scalar IntersectionExampleScenario.node[19].nic.mac1609_4 	ReceivedUnicastPackets 	0
scalar IntersectionExampleScenario.node[19].nic.mac1609_4 	ReceivedBroadcasts 	0
scalar IntersectionExampleScenario.node[19].nic.mac1609_4 	SentPackets 	0
scalar IntersectionExampleScenario.node[19].nic.mac1609_4 	SNIRLostPackets 	0
scalar IntersectionExampleScenario.node[19].nic.mac1609_4 	RXTXLostPackets 	0
scalar IntersectionExampleScenario.node[19].nic.mac1609_4 	TotalLostPackets 	0
scalar IntersectionExampleScenario.node[19].nic.mac1609_4 	DroppedPacketsInMac 	0
scalar IntersectionExampleScenario.node[19].nic.mac1609_4 	TooLittleTime 	0
scalar IntersectionExampleScenario.node[19].nic.mac1609_4 	TimesIntoBackoff 	0
scalar IntersectionExampleScenario.node[19].nic.mac1609_4 	SlotsBackoff 	0
scalar IntersectionExampleScenario.node[19].nic.mac1609_4 	NumInternalContention 	0
scalar IntersectionExampleScenario.node[19].nic.mac1609_4 	totalBusyTime 	0
scalar IntersectionExampleScenario.node[19].veinsmobility 	startTime 	61
scalar IntersectionExampleScenario.node[19].veinsmobility 	totalTime 	66.75
scalar IntersectionExampleScenario.node[19].veinsmobility 	stopTime 	128
scalar IntersectionExampleScenario.node[19].veinsmobility 	minSpeed 	0
scalar IntersectionExampleScenario.node[19].veinsmobility 	maxSpeed 	15.395290374756
scalar IntersectionExampleScenario.node[19].veinsmobility 	totalDistance 	581.44320185632
scalar IntersectionExampleScenario.node[19].veinsmobility 	totalCO2Emission 	162.21204332073
scalar IntersectionExampleScenario.node[21].appl 	VehicleRemoved 	0
scalar IntersectionExampleScenario.node[21].appl 	ArrivedAtDest 	1
scalar IntersectionExampleScenario.node[21].appl 	IntersectionEnterTime 	70.75
scalar IntersectionExampleScenario.node[21].appl 	IntersectionExitTime 	113.7979457789
scalar IntersectionExampleScenario.node[21].appl 	NumberOfCollisions 	0
scalar IntersectionExampleScenario.node[21].nic.phy80211p 	busyTime 	0
scalar IntersectionExampleScenario.node[21].nic.mac1609_4 	ReceivedUnicastPackets 	0
scalar IntersectionExampleScenario.node[21].nic.mac1609_4 	ReceivedBroadcasts 	0
scalar IntersectionExampleScenario.node[21].nic.mac1609_4 	SentPackets 	0
scalar IntersectionExampleScenario.node[21].nic.mac1609_4 	SNIRLostPackets 	0
scalar IntersectionExampleScenario.node[21].nic.mac1609_4 	RXTXLostPackets 	0
scalar IntersectionExampleScenario.node[21].nic.mac1609_4 	TotalLostPackets 	0
scalar IntersectionExampleScenario.node[21].nic.mac1609_4 	DroppedPacketsInMac 	0
scalar IntersectionExampleScenario.node[21].nic.mac1609_4 	TooLittleTime 	0
scalar IntersectionExampleScenario.node[21].nic.mac1609_4 	TimesIntoBackoff 	0
scalar IntersectionExampleScenario.node[21].nic.mac1609_4 	SlotsBackoff 	0
scalar IntersectionExampleScenario.node[21].nic.mac1609_4 	NumInternalContention 	0
scalar IntersectionExampleScenario.node[21].nic.mac1609_4 	totalBusyTime 	0
scalar IntersectionExampleScenario.node[21].veinsmobility 	startTime 	70.75
scalar IntersectionExampleScenario.node[21].veinsmobility 	totalTime 	59.25
scalar IntersectionExampleScenario.node[21].veinsmobility 	stopTime 	130.25
scalar IntersectionExampleScenario.node[21].veinsmobility 	minSpeed 	0
scalar IntersectionExampleScenario.node[21].veinsmobility 	maxSpeed 	15.64999961853
scalar IntersectionExampleScenario.node[21].veinsmobility 	totalDistance 	551.43707694114
scalar IntersectionExampleScenario.node[21].veinsmobility 	totalCO2Emission 	148.82044812388
scalar IntersectionExampleScenario.node[28].appl 	VehicleRemoved 	0
scalar IntersectionExampleScenario.node[28].appl 	ArrivedAtDest 	1
scalar IntersectionExampleScenario.node[28].appl 	IntersectionEnterTime 	92.25
scalar IntersectionExampleScenario.node[28].appl 	IntersectionExitTime 	116.87129717832
scalar IntersectionExampleScenario.node[28].appl 	NumberOfCollisions 	0
scalar IntersectionExampleScenario.node[28].nic.phy80211p 	busyTime 	0
scalar IntersectionExampleScenario.node[28].nic.mac1609_4 	ReceivedUnicastPackets 	0
scalar IntersectionExampleScenario.node[28].nic.mac1609_4 	ReceivedBroadcasts 	0
scalar IntersectionExampleScenario.node[28].nic.mac1609_4 	SentPackets 	0
scalar IntersectionExampleScenario.node[28].nic.mac1609_4 	SNIRLostPackets 	0
scalar IntersectionExampleScenario.node[28].nic.mac1609_4 	RXTXLostPackets 	0
scalar IntersectionExampleScenario.node[28].nic.mac1609_4 	TotalLostPackets 	0
scalar IntersectionExampleScenario.node[28].nic.mac1609_4 	DroppedPacketsInMac 	0
scalar IntersectionExampleScenario.node[28].nic.mac1609_4 	TooLittleTime 	0
scalar IntersectionExampleScenario.node[28].nic.mac1609_4 	TimesIntoBackoff 	0
scalar IntersectionExampleScenario.node[28].nic.mac1609_4 	SlotsBackoff 	0
scalar IntersectionExampleScenario.node[28].nic.mac1609_4 	NumInternalContention 	0
scalar IntersectionExampleScenario.node[28].nic.mac1609_4 	totalBusyTime 	0
scalar IntersectionExampleScenario.node[28].veinsmobility 	startTime 	92.25
scalar IntersectionExampleScenario.node[28].veinsmobility 	totalTime 	40.75
scalar IntersectionExampleScenario.node[28].veinsmobility 	stopTime 	133.25
scalar IntersectionExampleScenario.node[28].veinsmobility 	minSpeed 	5.6500000953674
scalar IntersectionExampleScenario.node[28].veinsmobility 	maxSpeed 	15.64999961853
scalar IntersectionExampleScenario.node[28].veinsmobility 	totalDistance 	550.83584640239
scalar IntersectionExampleScenario.node[28].veinsmobility 	totalCO2Emission 	134.68850109649
scalar IntersectionExampleScenario.node[23].appl 	VehicleRemoved 	0
scalar IntersectionExampleScenario.node[23].appl 	ArrivedAtDest 	1
scalar IntersectionExampleScenario.node[23].appl 	IntersectionEnterTime 	75.5
scalar IntersectionExampleScenario.node[23].appl 	IntersectionExitTime 	119.56553158554
scalar IntersectionExampleScenario.node[23].appl 	NumberOfCollisions 	0
scalar IntersectionExampleScenario.node[23].nic.phy80211p 	busyTime 	0
scalar IntersectionExampleScenario.node[23].nic.mac1609_4 	ReceivedUnicastPackets 	0
scalar IntersectionExampleScenario.node[23].nic.mac1609_4 	ReceivedBroadcasts 	0
scalar IntersectionExampleScenario.node[23].nic.mac1609_4 	SentPackets 	0
scalar IntersectionExampleScenario.node[23].nic.mac1609_4 	SNIRLostPackets 	0
scalar IntersectionExampleScenario.node[23].nic.mac1609_4 	RXTXLostPackets 	0
scalar IntersectionExampleScenario.node[23].nic.mac1609_4 	TotalLostPackets 	0
scalar IntersectionExampleScenario.node[23].nic.mac1609_4 	DroppedPacketsInMac 	0
scalar IntersectionExampleScenario.node[23].nic.mac1609_4 	TooLittleTime 	0
scalar IntersectionExampleScenario.node[23].nic.mac1609_4 	TimesIntoBackoff 	0
scalar IntersectionExampleScenario.node[23].nic.mac1609_4 	SlotsBackoff 	0
scalar IntersectionExampleScenario.node[23].nic.mac1609_4 	NumInternalContention 	0
scalar IntersectionExampleScenario.node[23].nic.mac1609_4 	totalBusyTime 	0
scalar IntersectionExampleScenario.node[23].veinsmobility 	startTime 	75.5
scalar IntersectionExampleScenario.node[23].veinsmobility 	totalTime 	61.5
scalar IntersectionExampleScenario.node[23].veinsmobility 	stopTime 	137.25
scalar IntersectionExampleScenario.node[23].veinsmobility 	minSpeed 	0
scalar IntersectionExampleScenario.node[23].veinsmobility 	maxSpeed 	15.02499961853
scalar IntersectionExampleScenario.node[23].veinsmobility 	totalDistance 	546.21668149382
scalar IntersectionExampleScenario.node[23].veinsmobility 	totalCO2Emission 	148.02005538394
scalar IntersectionExampleScenario.node[30].appl 	VehicleRemoved 	0
scalar IntersectionExampleScenario.node[30].appl 	ArrivedAtDest 	1
scalar IntersectionExampleScenario.node[30].appl 	IntersectionEnterTime 	99
scalar IntersectionExampleScenario.node[30].appl 	IntersectionExitTime 	123.82397086025
scalar IntersectionExampleScenario.node[30].appl 	NumberOfCollisions 	0
scalar IntersectionExampleScenario.node[30].nic.phy80211p 	busyTime 	0
scalar IntersectionExampleScenario.node[30].nic.mac1609_4 	ReceivedUnicastPackets 	0
scalar IntersectionExampleScenario.node[30].nic.mac1609_4 	ReceivedBroadcasts 	0
scalar IntersectionExampleScenario.node[30].nic.mac1609_4 	SentPackets 	0
scalar IntersectionExampleScenario.node[30].nic.mac1609_4 	SNIRLostPackets 	0
scalar IntersectionExampleScenario.node[30].nic.mac1609_4 	RXTXLostPackets 	0
scalar IntersectionExampleScenario.node[30].nic.mac1609_4 	TotalLostPackets 	0
scalar IntersectionExampleScenario.node[30].nic.mac1609_4 	DroppedPacketsInMac 	0
scalar IntersectionExampleScenario.node[30].nic.mac1609_4 	TooLittleTime 	0
scalar IntersectionExampleScenario.node[30].nic.mac1609_4 	TimesIntoBackoff 	0
scalar IntersectionExampleScenario.node[30].nic.mac1609_4 	SlotsBackoff 	0
scalar IntersectionExampleScenario.node[30].nic.mac1609_4 	NumInternalContention 	0
scalar IntersectionExampleScenario.node[30].nic.mac1609_4 	totalBusyTime 	0
scalar IntersectionExampleScenario.node[30].veinsmobility 	startTime 	99
scalar IntersectionExampleScenario.node[30].veinsmobility 	totalTime 	41.5
scalar IntersectionExampleScenario.node[30].veinsmobility 	stopTime 	140.75
scalar IntersectionExampleScenario.node[30].veinsmobility 	minSpeed 	5.6500000953674
scalar IntersectionExampleScenario.node[30].veinsmobility 	maxSpeed 	15.64999961853
scalar IntersectionExampleScenario.node[30].veinsmobility 	totalDistance 	545.36056448783
scalar IntersectionExampleScenario.node[30].veinsmobility 	totalCO2Emission 	138.94122656722
scalar IntersectionExampleScenario.node[31].appl 	VehicleRemoved 	0
scalar IntersectionExampleScenario.node[31].appl 	ArrivedAtDest 	1
scalar IntersectionExampleScenario.node[31].appl 	IntersectionEnterTime 	99.75
scalar IntersectionExampleScenario.node[31].appl 	IntersectionExitTime 	126.57652508884
scalar IntersectionExampleScenario.node[31].appl 	NumberOfCollisions 	0
scalar IntersectionExampleScenario.node[31].nic.phy80211p 	busyTime 	0
scalar IntersectionExampleScenario.node[31].nic.mac1609_4 	ReceivedUnicastPackets 	0
scalar IntersectionExampleScenario.node[31].nic.mac1609_4 	ReceivedBroadcasts 	0
scalar IntersectionExampleScenario.node[31].nic.mac1609_4 	SentPackets 	0
scalar IntersectionExampleScenario.node[31].nic.mac1609_4 	SNIRLostPackets 	0
scalar IntersectionExampleScenario.node[31].nic.mac1609_4 	RXTXLostPackets 	0
scalar IntersectionExampleScenario.node[31].nic.mac1609_4 	TotalLostPackets 	0
scalar IntersectionExampleScenario.node[31].nic.mac1609_4 	DroppedPacketsInMac 	0
scalar IntersectionExampleScenario.node[31].nic.mac1609_4 	TooLittleTime 	0
scalar IntersectionExampleScenario.node[31].nic.mac1609_4 	TimesIntoBackoff 	0
scalar IntersectionExampleScenario.node[31].nic.mac1609_4 	SlotsBackoff 	0
scalar IntersectionExampleScenario.node[31].nic.mac1609_4 	NumInternalContention 	0
scalar IntersectionExampleScenario.node[31].nic.mac1609_4 	totalBusyTime 	0
scalar IntersectionExampleScenario.node[31].veinsmobility 	startTime 	99.75
scalar IntersectionExampleScenario.node[31].veinsmobility 	totalTime 	43.75
scalar IntersectionExampleScenario.node[31].veinsmobility 	stopTime 	143.75
scalar IntersectionExampleScenario.node[31].veinsmobility 	minSpeed 	5.6500000953674
scalar IntersectionExampleScenario.node[31].veinsmobility 	maxSpeed 	15.262582778931
scalar IntersectionExampleScenario.node[31].veinsmobility 	totalDistance 	568.10416664081
scalar IntersectionExampleScenario.node[31].veinsmobility 	totalCO2Emission 	131.34736964225
scalar IntersectionExampleScenario.node[33].appl 	VehicleRemoved 	0
scalar IntersectionExampleScenario.node[33].appl 	ArrivedAtDest 	1
scalar IntersectionExampleScenario.node[33].appl 	IntersectionEnterTime 	103.75
scalar IntersectionExampleScenario.node[33].appl 	IntersectionExitTime 	131.29987259998
scalar IntersectionExampleScenario.node[33].appl 	NumberOfCollisions 	0
scalar IntersectionExampleScenario.node[33].nic.phy80211p 	busyTime 	0
scalar IntersectionExampleScenario.node[33].nic.mac1609_4 	ReceivedUnicastPackets 	0
scalar IntersectionExampleScenario.node[33].nic.mac1609_4 	ReceivedBroadcasts 	0
scalar IntersectionExampleScenario.node[33].nic.mac1609_4 	SentPackets 	0
scalar IntersectionExampleScenario.node[33].nic.mac1609_4 	SNIRLostPackets 	0
scalar IntersectionExampleScenario.node[33].nic.mac1609_4 	RXTXLostPackets 	0
scalar IntersectionExampleScenario.node[33].nic.mac1609_4 	TotalLostPackets 	0
scalar IntersectionExampleScenario.node[33].nic.mac1609_4 	DroppedPacketsInMac 	0
scalar IntersectionExampleScenario.node[33].nic.mac1609_4 	TooLittleTime 	0
scalar IntersectionExampleScenario.node[33].nic.mac1609_4 	TimesIntoBackoff 	0
scalar IntersectionExampleScenario.node[33].nic.mac1609_4 	SlotsBackoff 	0
scalar IntersectionExampleScenario.node[33].nic.mac1609_4 	NumInternalContention 	0
scalar IntersectionExampleScenario.node[33].nic.mac1609_4 	totalBusyTime 	0
scalar IntersectionExampleScenario.node[33].veinsmobility 	startTime 	103.75
scalar IntersectionExampleScenario.node[33].veinsmobility 	totalTime 	43
scalar IntersectionExampleScenario.node[33].veinsmobility 	stopTime 	147
scalar IntersectionExampleScenario.node[33].veinsmobility 	minSpeed 	0
scalar IntersectionExampleScenario.node[33].veinsmobility 	maxSpeed 	16.27499961853
scalar IntersectionExampleScenario.node[33].veinsmobility 	totalDistance 	551.20802415958
scalar IntersectionExampleScenario.node[33].veinsmobility 	totalCO2Emission 	141.5182714423
scalar IntersectionExampleScenario.node[26].appl 	VehicleRemoved 	0
scalar IntersectionExampleScenario.node[26].appl 	ArrivedAtDest 	1
scalar IntersectionExampleScenario.node[26].appl 	IntersectionEnterTime 	85
scalar IntersectionExampleScenario.node[26].appl 	IntersectionExitTime 	130.80051660715
scalar IntersectionExampleScenario.node[26].appl 	NumberOfCollisions 	0
scalar IntersectionExampleScenario.node[26].nic.phy80211p 	busyTime 	0
scalar IntersectionExampleScenario.node[26].nic.mac1609_4 	ReceivedUnicastPackets 	0
scalar IntersectionExampleScenario.node[26].nic.mac1609_4 	ReceivedBroadcasts 	0
scalar IntersectionExampleScenario.node[26].nic.mac1609_4 	SentPackets 	0
scalar IntersectionExampleScenario.node[26].nic.mac1609_4 	SNIRLostPackets 	0
scalar IntersectionExampleScenario.node[26].nic.mac1609_4 	RXTXLostPackets 	0
scalar IntersectionExampleScenario.node[26].nic.mac1609_4 	TotalLostPackets 	0
scalar IntersectionExampleScenario.node[26].nic.mac1609_4 	DroppedPacketsInMac 	0
scalar IntersectionExampleScenario.node[26].nic.mac1609_4 	TooLittleTime 	0
scalar IntersectionExampleScenario.node[26].nic.mac1609_4 	TimesIntoBackoff 	0
scalar IntersectionExampleScenario.node[26].nic.mac1609_4 	SlotsBackoff 	0
scalar IntersectionExampleScenario.node[26].nic.mac1609_4 	NumInternalContention 	0
scalar IntersectionExampleScenario.node[26].nic.mac1609_4 	totalBusyTime 	0
scalar IntersectionExampleScenario.node[26].veinsmobility 	startTime 	85
scalar IntersectionExampleScenario.node[26].veinsmobility 	totalTime 	62
scalar IntersectionExampleScenario.node[26].veinsmobility 	stopTime 	147.25
scalar IntersectionExampleScenario.node[26].veinsmobility 	minSpeed 	0
scalar IntersectionExampleScenario.node[26].veinsmobility 	maxSpeed 	15.64999961853
scalar IntersectionExampleScenario.node[26].veinsmobility 	totalDistance 	550.35448580217
scalar IntersectionExampleScenario.node[26].veinsmobility 	totalCO2Emission 	154.85295845341
scalar IntersectionExampleScenario.node[27].appl 	VehicleRemoved 	0
scalar IntersectionExampleScenario.node[27].appl 	ArrivedAtDest 	1
scalar IntersectionExampleScenario.node[27].appl 	IntersectionEnterTime 	89
scalar IntersectionExampleScenario.node[27].appl 	IntersectionExitTime 	132.34348229435
scalar IntersectionExampleScenario.node[27].appl 	NumberOfCollisions 	0
scalar IntersectionExampleScenario.node[27].nic.phy80211p 	busyTime 	0
scalar IntersectionExampleScenario.node[27].nic.mac1609_4 	ReceivedUnicastPackets 	0
scalar IntersectionExampleScenario.node[27].nic.mac1609_4 	ReceivedBroadcasts 	0
scalar IntersectionExampleScenario.node[27].nic.mac1609_4 	SentPackets 	0
scalar IntersectionExampleScenario.node[27].nic.mac1609_4 	SNIRLostPackets 	0
scalar IntersectionExampleScenario.node[27].nic.mac1609_4 	RXTXLostPackets 	0
scalar IntersectionExampleScenario.node[27].nic.mac1609_4 	TotalLostPackets 	0
scalar IntersectionExampleScenario.node[27].nic.mac1609_4 	DroppedPacketsInMac 	0
scalar IntersectionExampleScenario.node[27].nic.mac1609_4 	TooLittleTime 	0
scalar IntersectionExampleScenario.node[27].nic.mac1609_4 	TimesIntoBackoff 	0
scalar IntersectionExampleScenario.node[27].nic.mac1609_4 	SlotsBackoff 	0
scalar IntersectionExampleScenario.node[27].nic.mac1609_4 	NumInternalContention 	0
scalar IntersectionExampleScenario.node[27].nic.mac1609_4 	totalBusyTime 	0
scalar IntersectionExampleScenario.node[27].veinsmobility 	startTime 	89
scalar IntersectionExampleScenario.node[27].veinsmobility 	totalTime 	59.5
scalar IntersectionExampleScenario.node[27].veinsmobility 	stopTime 	148.75
scalar IntersectionExampleScenario.node[27].veinsmobility 	minSpeed 	0
scalar IntersectionExampleScenario.node[27].veinsmobility 	maxSpeed 	15.5
scalar IntersectionExampleScenario.node[27].veinsmobility 	totalDistance 	559.43040466309
scalar IntersectionExampleScenario.node[27].veinsmobility 	totalCO2Emission 	150.46413779917
scalar IntersectionExampleScenario.node[29].appl 	VehicleRemoved 	0
scalar IntersectionExampleScenario.node[29].appl 	ArrivedAtDest 	1
scalar IntersectionExampleScenario.node[29].appl 	IntersectionEnterTime 	95
scalar IntersectionExampleScenario.node[29].appl 	IntersectionExitTime 	134.32487405589
scalar IntersectionExampleScenario.node[29].appl 	NumberOfCollisions 	0
scalar IntersectionExampleScenario.node[29].nic.phy80211p 	busyTime 	0
scalar IntersectionExampleScenario.node[29].nic.mac1609_4 	ReceivedUnicastPackets 	0
scalar IntersectionExampleScenario.node[29].nic.mac1609_4 	ReceivedBroadcasts 	0
scalar IntersectionExampleScenario.node[29].nic.mac1609_4 	SentPackets 	0
scalar IntersectionExampleScenario.node[29].nic.mac1609_4 	SNIRLostPackets 	0
scalar IntersectionExampleScenario.node[29].nic.mac1609_4 	RXTXLostPackets 	0
scalar IntersectionExampleScenario.node[29].nic.mac1609_4 	TotalLostPackets 	0
scalar IntersectionExampleScenario.node[29].nic.mac1609_4 	DroppedPacketsInMac 	0
scalar IntersectionExampleScenario.node[29].nic.mac1609_4 	TooLittleTime 	0
scalar IntersectionExampleScenario.node[29].nic.mac1609_4 	TimesIntoBackoff 	0
scalar IntersectionExampleScenario.node[29].nic.mac1609_4 	SlotsBackoff 	0
scalar IntersectionExampleScenario.node[29].nic.mac1609_4 	NumInternalContention 	0
scalar IntersectionExampleScenario.node[29].nic.mac1609_4 	totalBusyTime 	0
scalar IntersectionExampleScenario.node[29].veinsmobility 	startTime 	95
scalar IntersectionExampleScenario.node[29].veinsmobility 	totalTime 	54.75
scalar IntersectionExampleScenario.node[29].veinsmobility 	stopTime 	150
scalar IntersectionExampleScenario.node[29].veinsmobility 	minSpeed 	0
scalar IntersectionExampleScenario.node[29].veinsmobility 	maxSpeed 	16.377737045288
scalar IntersectionExampleScenario.node[29].veinsmobility 	totalDistance 	550.12631384892
scalar IntersectionExampleScenario.node[29].veinsmobility 	totalCO2Emission 	152.32240541393
scalar IntersectionExampleScenario.node[35].appl 	VehicleRemoved 	0
scalar IntersectionExampleScenario.node[35].appl 	ArrivedAtDest 	1
scalar IntersectionExampleScenario.node[35].appl 	IntersectionEnterTime 	114.75
scalar IntersectionExampleScenario.node[35].appl 	IntersectionExitTime 	137.32414812103
scalar IntersectionExampleScenario.node[35].appl 	NumberOfCollisions 	0
scalar IntersectionExampleScenario.node[35].nic.phy80211p 	busyTime 	0
scalar IntersectionExampleScenario.node[35].nic.mac1609_4 	ReceivedUnicastPackets 	0
scalar IntersectionExampleScenario.node[35].nic.mac1609_4 	ReceivedBroadcasts 	0
scalar IntersectionExampleScenario.node[35].nic.mac1609_4 	SentPackets 	0
scalar IntersectionExampleScenario.node[35].nic.mac1609_4 	SNIRLostPackets 	0
scalar IntersectionExampleScenario.node[35].nic.mac1609_4 	RXTXLostPackets 	0
scalar IntersectionExampleScenario.node[35].nic.mac1609_4 	TotalLostPackets 	0
scalar IntersectionExampleScenario.node[35].nic.mac1609_4 	DroppedPacketsInMac 	0
scalar IntersectionExampleScenario.node[35].nic.mac1609_4 	TooLittleTime 	0
scalar IntersectionExampleScenario.node[35].nic.mac1609_4 	TimesIntoBackoff 	0
scalar IntersectionExampleScenario.node[35].nic.mac1609_4 	SlotsBackoff 	0
scalar IntersectionExampleScenario.node[35].nic.mac1609_4 	NumInternalContention 	0
scalar IntersectionExampleScenario.node[35].nic.mac1609_4 	totalBusyTime 	0
scalar IntersectionExampleScenario.node[35].veinsmobility 	startTime 	114.75
scalar IntersectionExampleScenario.node[35].veinsmobility 	totalTime 	37.75
scalar IntersectionExampleScenario.node[35].veinsmobility 	stopTime 	152.75
scalar IntersectionExampleScenario.node[35].veinsmobility 	minSpeed 	5.6500000953674
scalar IntersectionExampleScenario.node[35].veinsmobility 	maxSpeed 	16.441619873047
scalar IntersectionExampleScenario.node[35].veinsmobility 	totalDistance 	553.02691650391
scalar IntersectionExampleScenario.node[35].veinsmobility 	totalCO2Emission 	135.27203172562
scalar IntersectionExampleScenario.node[32].appl 	VehicleRemoved 	0
scalar IntersectionExampleScenario.node[32].appl 	ArrivedAtDest 	1
scalar IntersectionExampleScenario.node[32].appl 	IntersectionEnterTime 	100
scalar IntersectionExampleScenario.node[32].appl 	IntersectionExitTime 	143.51363159405
scalar IntersectionExampleScenario.node[32].appl 	NumberOfCollisions 	0
scalar IntersectionExampleScenario.node[32].nic.phy80211p 	busyTime 	0
scalar IntersectionExampleScenario.node[32].nic.mac1609_4 	ReceivedUnicastPackets 	0
scalar IntersectionExampleScenario.node[32].nic.mac1609_4 	ReceivedBroadcasts 	0
scalar IntersectionExampleScenario.node[32].nic.mac1609_4 	SentPackets 	0
scalar IntersectionExampleScenario.node[32].nic.mac1609_4 	SNIRLostPackets 	0
scalar IntersectionExampleScenario.node[32].nic.mac1609_4 	RXTXLostPackets 	0
scalar IntersectionExampleScenario.node[32].nic.mac1609_4 	TotalLostPackets 	0
scalar IntersectionExampleScenario.node[32].nic.mac1609_4 	DroppedPacketsInMac 	0
scalar IntersectionExampleScenario.node[32].nic.mac1609_4 	TooLittleTime 	0
scalar IntersectionExampleScenario.node[32].nic.mac1609_4 	TimesIntoBackoff 	0
scalar IntersectionExampleScenario.node[32].nic.mac1609_4 	SlotsBackoff 	0
scalar IntersectionExampleScenario.node[32].nic.mac1609_4 	NumInternalContention 	0
scalar IntersectionExampleScenario.node[32].nic.mac1609_4 	totalBusyTime 	0
scalar IntersectionExampleScenario.node[32].veinsmobility 	startTime 	100
scalar IntersectionExampleScenario.node[32].veinsmobility 	totalTime 	60.75
scalar IntersectionExampleScenario.node[32].veinsmobility 	stopTime 	161
scalar IntersectionExampleScenario.node[32].veinsmobility 	minSpeed 	0
scalar IntersectionExampleScenario.node[32].veinsmobility 	maxSpeed 	15.02499961853
scalar IntersectionExampleScenario.node[32].veinsmobility 	totalDistance 	543.13827420623
scalar IntersectionExampleScenario.node[32].veinsmobility 	totalCO2Emission 	147.36286469783
scalar IntersectionExampleScenario.node[34].appl 	VehicleRemoved 	0
scalar IntersectionExampleScenario.node[34].appl 	ArrivedAtDest 	1
scalar IntersectionExampleScenario.node[34].appl 	IntersectionEnterTime 	109
scalar IntersectionExampleScenario.node[34].appl 	IntersectionExitTime 	145.3568060541
scalar IntersectionExampleScenario.node[34].appl 	NumberOfCollisions 	0
scalar IntersectionExampleScenario.node[34].nic.phy80211p 	busyTime 	0
scalar IntersectionExampleScenario.node[34].nic.mac1609_4 	ReceivedUnicastPackets 	0
scalar IntersectionExampleScenario.node[34].nic.mac1609_4 	ReceivedBroadcasts 	0
scalar IntersectionExampleScenario.node[34].nic.mac1609_4 	SentPackets 	0
scalar IntersectionExampleScenario.node[34].nic.mac1609_4 	SNIRLostPackets 	0
scalar IntersectionExampleScenario.node[34].nic.mac1609_4 	RXTXLostPackets 	0
scalar IntersectionExampleScenario.node[34].nic.mac1609_4 	TotalLostPackets 	0
scalar IntersectionExampleScenario.node[34].nic.mac1609_4 	DroppedPacketsInMac 	0
scalar IntersectionExampleScenario.node[34].nic.mac1609_4 	TooLittleTime 	0
scalar IntersectionExampleScenario.node[34].nic.mac1609_4 	TimesIntoBackoff 	0
scalar IntersectionExampleScenario.node[34].nic.mac1609_4 	SlotsBackoff 	0
scalar IntersectionExampleScenario.node[34].nic.mac1609_4 	NumInternalContention 	0
scalar IntersectionExampleScenario.node[34].nic.mac1609_4 	totalBusyTime 	0
scalar IntersectionExampleScenario.node[34].veinsmobility 	startTime 	109
scalar IntersectionExampleScenario.node[34].veinsmobility 	totalTime 	52.5
scalar IntersectionExampleScenario.node[34].veinsmobility 	stopTime 	161.75
scalar IntersectionExampleScenario.node[34].veinsmobility 	minSpeed 	0
scalar IntersectionExampleScenario.node[34].veinsmobility 	maxSpeed 	16
scalar IntersectionExampleScenario.node[34].veinsmobility 	totalDistance 	552.61808138738
scalar IntersectionExampleScenario.node[34].veinsmobility 	totalCO2Emission 	143.27269611942
scalar IntersectionExampleScenario.node[38].appl 	VehicleRemoved 	0
scalar IntersectionExampleScenario.node[38].appl 	ArrivedAtDest 	1
scalar IntersectionExampleScenario.node[38].appl 	IntersectionEnterTime 	131.25
scalar IntersectionExampleScenario.node[38].appl 	IntersectionExitTime 	154.76404590125
scalar IntersectionExampleScenario.node[38].appl 	NumberOfCollisions 	0
scalar IntersectionExampleScenario.node[38].nic.phy80211p 	busyTime 	0
scalar IntersectionExampleScenario.node[38].nic.mac1609_4 	ReceivedUnicastPackets 	0
scalar IntersectionExampleScenario.node[38].nic.mac1609_4 	ReceivedBroadcasts 	0
scalar IntersectionExampleScenario.node[38].nic.mac1609_4 	SentPackets 	0
scalar IntersectionExampleScenario.node[38].nic.mac1609_4 	SNIRLostPackets 	0
scalar IntersectionExampleScenario.node[38].nic.mac1609_4 	RXTXLostPackets 	0
scalar IntersectionExampleScenario.node[38].nic.mac1609_4 	TotalLostPackets 	0
scalar IntersectionExampleScenario.node[38].nic.mac1609_4 	DroppedPacketsInMac 	0
scalar IntersectionExampleScenario.node[38].nic.mac1609_4 	TooLittleTime 	0
scalar IntersectionExampleScenario.node[38].nic.mac1609_4 	TimesIntoBackoff 	0
scalar IntersectionExampleScenario.node[38].nic.mac1609_4 	SlotsBackoff 	0
scalar IntersectionExampleScenario.node[38].nic.mac1609_4 	NumInternalContention 	0
scalar IntersectionExampleScenario.node[38].nic.mac1609_4 	totalBusyTime 	0
scalar IntersectionExampleScenario.node[38].veinsmobility 	startTime 	131.25
scalar IntersectionExampleScenario.node[38].veinsmobility 	totalTime 	40
scalar IntersectionExampleScenario.node[38].veinsmobility 	stopTime 	171.5
scalar IntersectionExampleScenario.node[38].veinsmobility 	minSpeed 	5.6500000953674
scalar IntersectionExampleScenario.node[38].veinsmobility 	maxSpeed 	15.875
scalar IntersectionExampleScenario.node[38].veinsmobility 	totalDistance 	545.52742779701
scalar IntersectionExampleScenario.node[38].veinsmobility 	totalCO2Emission 	130.51133799506
scalar IntersectionExampleScenario.node[36].appl 	VehicleRemoved 	0
scalar IntersectionExampleScenario.node[36].appl 	ArrivedAtDest 	1
scalar IntersectionExampleScenario.node[36].appl 	IntersectionEnterTime 	120.5
scalar IntersectionExampleScenario.node[36].appl 	IntersectionExitTime 	165.60641935433
scalar IntersectionExampleScenario.node[36].appl 	NumberOfCollisions 	0
scalar IntersectionExampleScenario.node[36].nic.phy80211p 	busyTime 	0
scalar IntersectionExampleScenario.node[36].nic.mac1609_4 	ReceivedUnicastPackets 	0
scalar IntersectionExampleScenario.node[36].nic.mac1609_4 	ReceivedBroadcasts 	0
scalar IntersectionExampleScenario.node[36].nic.mac1609_4 	SentPackets 	0
scalar IntersectionExampleScenario.node[36].nic.mac1609_4 	SNIRLostPackets 	0
scalar IntersectionExampleScenario.node[36].nic.mac1609_4 	RXTXLostPackets 	0
scalar IntersectionExampleScenario.node[36].nic.mac1609_4 	TotalLostPackets 	0
scalar IntersectionExampleScenario.node[36].nic.mac1609_4 	DroppedPacketsInMac 	0
scalar IntersectionExampleScenario.node[36].nic.mac1609_4 	TooLittleTime 	0
scalar IntersectionExampleScenario.node[36].nic.mac1609_4 	TimesIntoBackoff 	0
scalar IntersectionExampleScenario.node[36].nic.mac1609_4 	SlotsBackoff 	0
scalar IntersectionExampleScenario.node[36].nic.mac1609_4 	NumInternalContention 	0
scalar IntersectionExampleScenario.node[36].nic.mac1609_4 	totalBusyTime 	0
scalar IntersectionExampleScenario.node[36].veinsmobility 	startTime 	120.5
scalar IntersectionExampleScenario.node[36].veinsmobility 	totalTime 	62.5
scalar IntersectionExampleScenario.node[36].veinsmobility 	stopTime 	183.25
scalar IntersectionExampleScenario.node[36].veinsmobility 	minSpeed 	0
scalar IntersectionExampleScenario.node[36].veinsmobility 	maxSpeed 	15.02499961853
scalar IntersectionExampleScenario.node[36].veinsmobility 	totalDistance 	546.78791715056
scalar IntersectionExampleScenario.node[36].veinsmobility 	totalCO2Emission 	149.91211529131
scalar IntersectionExampleScenario.node[39].appl 	VehicleRemoved 	0
scalar IntersectionExampleScenario.node[39].appl 	ArrivedAtDest 	1
scalar IntersectionExampleScenario.node[39].appl 	IntersectionEnterTime 	140.5
scalar IntersectionExampleScenario.node[39].appl 	IntersectionExitTime 	168.1174123993
scalar IntersectionExampleScenario.node[39].appl 	NumberOfCollisions 	0
scalar IntersectionExampleScenario.node[39].nic.phy80211p 	busyTime 	0
scalar IntersectionExampleScenario.node[39].nic.mac1609_4 	ReceivedUnicastPackets 	0
scalar IntersectionExampleScenario.node[39].nic.mac1609_4 	ReceivedBroadcasts 	0
scalar IntersectionExampleScenario.node[39].nic.mac1609_4 	SentPackets 	0
scalar IntersectionExampleScenario.node[39].nic.mac1609_4 	SNIRLostPackets 	0
scalar IntersectionExampleScenario.node[39].nic.mac1609_4 	RXTXLostPackets 	0
scalar IntersectionExampleScenario.node[39].nic.mac1609_4 	TotalLostPackets 	0
scalar IntersectionExampleScenario.node[39].nic.mac1609_4 	DroppedPacketsInMac 	0
scalar IntersectionExampleScenario.node[39].nic.mac1609_4 	TooLittleTime 	0
scalar IntersectionExampleScenario.node[39].nic.mac1609_4 	TimesIntoBackoff 	0
scalar IntersectionExampleScenario.node[39].nic.mac1609_4 	SlotsBackoff 	0
scalar IntersectionExampleScenario.node[39].nic.mac1609_4 	NumInternalContention 	0
scalar IntersectionExampleScenario.node[39].nic.mac1609_4 	totalBusyTime 	0
scalar IntersectionExampleScenario.node[39].veinsmobility 	startTime 	140.5
scalar IntersectionExampleScenario.node[39].veinsmobility 	totalTime 	43.5
scalar IntersectionExampleScenario.node[39].veinsmobility 	stopTime 	184.25
scalar IntersectionExampleScenario.node[39].veinsmobility 	minSpeed 	4.2962355613708
scalar IntersectionExampleScenario.node[39].veinsmobility 	maxSpeed 	16.27499961853
scalar IntersectionExampleScenario.node[39].veinsmobility 	totalDistance 	550.87992889683
scalar IntersectionExampleScenario.node[39].veinsmobility 	totalCO2Emission 	137.25616598479
scalar IntersectionExampleScenario.node[40].appl 	VehicleRemoved 	0
scalar IntersectionExampleScenario.node[40].appl 	ArrivedAtDest 	1
scalar IntersectionExampleScenario.node[40].appl 	IntersectionEnterTime 	147.75
scalar IntersectionExampleScenario.node[40].appl 	IntersectionExitTime 	170.60741103705
scalar IntersectionExampleScenario.node[40].appl 	NumberOfCollisions 	0
scalar IntersectionExampleScenario.node[40].nic.phy80211p 	busyTime 	0
scalar IntersectionExampleScenario.node[40].nic.mac1609_4 	ReceivedUnicastPackets 	0
scalar IntersectionExampleScenario.node[40].nic.mac1609_4 	ReceivedBroadcasts 	0
scalar IntersectionExampleScenario.node[40].nic.mac1609_4 	SentPackets 	0
scalar IntersectionExampleScenario.node[40].nic.mac1609_4 	SNIRLostPackets 	0
scalar IntersectionExampleScenario.node[40].nic.mac1609_4 	RXTXLostPackets 	0
scalar IntersectionExampleScenario.node[40].nic.mac1609_4 	TotalLostPackets 	0
scalar IntersectionExampleScenario.node[40].nic.mac1609_4 	DroppedPacketsInMac 	0
scalar IntersectionExampleScenario.node[40].nic.mac1609_4 	TooLittleTime 	0
scalar IntersectionExampleScenario.node[40].nic.mac1609_4 	TimesIntoBackoff 	0
[...]
scalar IntersectionExampleScenario.node[470].veinsmobility 	totalCO2Emission 	109.02216461046
scalar IntersectionExampleScenario.node[471].appl 	VehicleRemoved 	0
scalar IntersectionExampleScenario.node[471].appl 	ArrivedAtDest 	0
scalar IntersectionExampleScenario.node[471].appl 	IntersectionEnterTime 	1766.5
scalar IntersectionExampleScenario.node[471].appl 	IntersectionExitTime 	1796.0131359625
scalar IntersectionExampleScenario.node[471].appl 	NumberOfCollisions 	0
scalar IntersectionExampleScenario.node[471].nic.phy80211p 	busyTime 	0
scalar IntersectionExampleScenario.node[471].nic.mac1609_4 	ReceivedUnicastPackets 	0
scalar IntersectionExampleScenario.node[471].nic.mac1609_4 	ReceivedBroadcasts 	0
scalar IntersectionExampleScenario.node[471].nic.mac1609_4 	SentPackets 	0
scalar IntersectionExampleScenario.node[471].nic.mac1609_4 	SNIRLostPackets 	0
scalar IntersectionExampleScenario.node[471].nic.mac1609_4 	RXTXLostPackets 	0
scalar IntersectionExampleScenario.node[471].nic.mac1609_4 	TotalLostPackets 	0
scalar IntersectionExampleScenario.node[471].nic.mac1609_4 	DroppedPacketsInMac 	0
scalar IntersectionExampleScenario.node[471].nic.mac1609_4 	TooLittleTime 	0
scalar IntersectionExampleScenario.node[471].nic.mac1609_4 	TimesIntoBackoff 	0
scalar IntersectionExampleScenario.node[471].nic.mac1609_4 	SlotsBackoff 	0
scalar IntersectionExampleScenario.node[471].nic.mac1609_4 	NumInternalContention 	0
scalar IntersectionExampleScenario.node[471].nic.mac1609_4 	totalBusyTime 	0
scalar IntersectionExampleScenario.node[471].veinsmobility 	startTime 	1766.5
scalar IntersectionExampleScenario.node[471].veinsmobility 	totalTime 	33.5
scalar IntersectionExampleScenario.node[471].veinsmobility 	stopTime 	1800
scalar IntersectionExampleScenario.node[471].veinsmobility 	minSpeed 	3.7581603527069
scalar IntersectionExampleScenario.node[471].veinsmobility 	maxSpeed 	15.64999961853
scalar IntersectionExampleScenario.node[471].veinsmobility 	totalDistance 	370.52149200439
scalar IntersectionExampleScenario.node[471].veinsmobility 	totalCO2Emission 	109.24445242851
scalar IntersectionExampleScenario.node[472].appl 	VehicleRemoved 	0
scalar IntersectionExampleScenario.node[472].appl 	ArrivedAtDest 	0
scalar IntersectionExampleScenario.node[472].appl 	IntersectionEnterTime 	1775.5
scalar IntersectionExampleScenario.node[472].appl 	IntersectionExitTime 	-1
scalar IntersectionExampleScenario.node[472].appl 	NumberOfCollisions 	0
scalar IntersectionExampleScenario.node[472].nic.phy80211p 	busyTime 	0
scalar IntersectionExampleScenario.node[472].nic.mac1609_4 	ReceivedUnicastPackets 	0
scalar IntersectionExampleScenario.node[472].nic.mac1609_4 	ReceivedBroadcasts 	0
scalar IntersectionExampleScenario.node[472].nic.mac1609_4 	SentPackets 	0
scalar IntersectionExampleScenario.node[472].nic.mac1609_4 	SNIRLostPackets 	0
scalar IntersectionExampleScenario.node[472].nic.mac1609_4 	RXTXLostPackets 	0
scalar IntersectionExampleScenario.node[472].nic.mac1609_4 	TotalLostPackets 	0
scalar IntersectionExampleScenario.node[472].nic.mac1609_4 	DroppedPacketsInMac 	0
scalar IntersectionExampleScenario.node[472].nic.mac1609_4 	TooLittleTime 	0
scalar IntersectionExampleScenario.node[472].nic.mac1609_4 	TimesIntoBackoff 	0
scalar IntersectionExampleScenario.node[472].nic.mac1609_4 	SlotsBackoff 	0
scalar IntersectionExampleScenario.node[472].nic.mac1609_4 	NumInternalContention 	0
scalar IntersectionExampleScenario.node[472].nic.mac1609_4 	totalBusyTime 	0
scalar IntersectionExampleScenario.node[472].veinsmobility 	startTime 	1775.5
scalar IntersectionExampleScenario.node[472].veinsmobility 	totalTime 	24.5
scalar IntersectionExampleScenario.node[472].veinsmobility 	stopTime 	1800
scalar IntersectionExampleScenario.node[472].veinsmobility 	minSpeed 	4.8090109825134
scalar IntersectionExampleScenario.node[472].veinsmobility 	maxSpeed 	15.64999961853
scalar IntersectionExampleScenario.node[472].veinsmobility 	totalDistance 	278.36087036133
scalar IntersectionExampleScenario.node[472].veinsmobility 	totalCO2Emission 	73.100220770046
scalar IntersectionExampleScenario.node[473].appl 	VehicleRemoved 	0
scalar IntersectionExampleScenario.node[473].appl 	ArrivedAtDest 	0
scalar IntersectionExampleScenario.node[473].appl 	IntersectionEnterTime 	1778.75
scalar IntersectionExampleScenario.node[473].appl 	IntersectionExitTime 	-1
scalar IntersectionExampleScenario.node[473].appl 	NumberOfCollisions 	0
scalar IntersectionExampleScenario.node[473].nic.phy80211p 	busyTime 	0
scalar IntersectionExampleScenario.node[473].nic.mac1609_4 	ReceivedUnicastPackets 	0
scalar IntersectionExampleScenario.node[473].nic.mac1609_4 	ReceivedBroadcasts 	0
scalar IntersectionExampleScenario.node[473].nic.mac1609_4 	SentPackets 	0
scalar IntersectionExampleScenario.node[473].nic.mac1609_4 	SNIRLostPackets 	0
scalar IntersectionExampleScenario.node[473].nic.mac1609_4 	RXTXLostPackets 	0
scalar IntersectionExampleScenario.node[473].nic.mac1609_4 	TotalLostPackets 	0
scalar IntersectionExampleScenario.node[473].nic.mac1609_4 	DroppedPacketsInMac 	0
scalar IntersectionExampleScenario.node[473].nic.mac1609_4 	TooLittleTime 	0
scalar IntersectionExampleScenario.node[473].nic.mac1609_4 	TimesIntoBackoff 	0
scalar IntersectionExampleScenario.node[473].nic.mac1609_4 	SlotsBackoff 	0
scalar IntersectionExampleScenario.node[473].nic.mac1609_4 	NumInternalContention 	0
scalar IntersectionExampleScenario.node[473].nic.mac1609_4 	totalBusyTime 	0
scalar IntersectionExampleScenario.node[473].veinsmobility 	startTime 	1778.75
scalar IntersectionExampleScenario.node[473].veinsmobility 	totalTime 	21.25
scalar IntersectionExampleScenario.node[473].veinsmobility 	stopTime 	1800
scalar IntersectionExampleScenario.node[473].veinsmobility 	minSpeed 	5.0198860168457
scalar IntersectionExampleScenario.node[473].veinsmobility 	maxSpeed 	15.64999961853
scalar IntersectionExampleScenario.node[473].veinsmobility 	totalDistance 	283.84284210205
scalar IntersectionExampleScenario.node[473].veinsmobility 	totalCO2Emission 	64.625182212904
scalar IntersectionExampleScenario.node[474].appl 	VehicleRemoved 	0
scalar IntersectionExampleScenario.node[474].appl 	ArrivedAtDest 	0
scalar IntersectionExampleScenario.node[474].appl 	IntersectionEnterTime 	1780.25
scalar IntersectionExampleScenario.node[474].appl 	IntersectionExitTime 	-1
scalar IntersectionExampleScenario.node[474].appl 	NumberOfCollisions 	0
scalar IntersectionExampleScenario.node[474].nic.phy80211p 	busyTime 	0
scalar IntersectionExampleScenario.node[474].nic.mac1609_4 	ReceivedUnicastPackets 	0
scalar IntersectionExampleScenario.node[474].nic.mac1609_4 	ReceivedBroadcasts 	0
scalar IntersectionExampleScenario.node[474].nic.mac1609_4 	SentPackets 	0
scalar IntersectionExampleScenario.node[474].nic.mac1609_4 	SNIRLostPackets 	0
scalar IntersectionExampleScenario.node[474].nic.mac1609_4 	RXTXLostPackets 	0
scalar IntersectionExampleScenario.node[474].nic.mac1609_4 	TotalLostPackets 	0
scalar IntersectionExampleScenario.node[474].nic.mac1609_4 	DroppedPacketsInMac 	0
scalar IntersectionExampleScenario.node[474].nic.mac1609_4 	TooLittleTime 	0
scalar IntersectionExampleScenario.node[474].nic.mac1609_4 	TimesIntoBackoff 	0
scalar IntersectionExampleScenario.node[474].nic.mac1609_4 	SlotsBackoff 	0
scalar IntersectionExampleScenario.node[474].nic.mac1609_4 	NumInternalContention 	0
scalar IntersectionExampleScenario.node[474].nic.mac1609_4 	totalBusyTime 	0
scalar IntersectionExampleScenario.node[474].veinsmobility 	startTime 	1780.25
scalar IntersectionExampleScenario.node[474].veinsmobility 	totalTime 	19.75
scalar IntersectionExampleScenario.node[474].veinsmobility 	stopTime 	1800
scalar IntersectionExampleScenario.node[474].veinsmobility 	minSpeed 	5.6500000953674
scalar IntersectionExampleScenario.node[474].veinsmobility 	maxSpeed 	15.02499961853
scalar IntersectionExampleScenario.node[474].veinsmobility 	totalDistance 	268.06430053711
scalar IntersectionExampleScenario.node[474].veinsmobility 	totalCO2Emission 	60.736955099927
scalar IntersectionExampleScenario.node[475].appl 	VehicleRemoved 	0
scalar IntersectionExampleScenario.node[475].appl 	ArrivedAtDest 	0
scalar IntersectionExampleScenario.node[475].appl 	IntersectionEnterTime 	1783
scalar IntersectionExampleScenario.node[475].appl 	IntersectionExitTime 	-1
scalar IntersectionExampleScenario.node[475].appl 	NumberOfCollisions 	0
scalar IntersectionExampleScenario.node[475].nic.phy80211p 	busyTime 	0
scalar IntersectionExampleScenario.node[475].nic.mac1609_4 	ReceivedUnicastPackets 	0
scalar IntersectionExampleScenario.node[475].nic.mac1609_4 	ReceivedBroadcasts 	0
scalar IntersectionExampleScenario.node[475].nic.mac1609_4 	SentPackets 	0
scalar IntersectionExampleScenario.node[475].nic.mac1609_4 	SNIRLostPackets 	0
scalar IntersectionExampleScenario.node[475].nic.mac1609_4 	RXTXLostPackets 	0
scalar IntersectionExampleScenario.node[475].nic.mac1609_4 	TotalLostPackets 	0
scalar IntersectionExampleScenario.node[475].nic.mac1609_4 	DroppedPacketsInMac 	0
scalar IntersectionExampleScenario.node[475].nic.mac1609_4 	TooLittleTime 	0
scalar IntersectionExampleScenario.node[475].nic.mac1609_4 	TimesIntoBackoff 	0
scalar IntersectionExampleScenario.node[475].nic.mac1609_4 	SlotsBackoff 	0
scalar IntersectionExampleScenario.node[475].nic.mac1609_4 	NumInternalContention 	0
scalar IntersectionExampleScenario.node[475].nic.mac1609_4 	totalBusyTime 	0
scalar IntersectionExampleScenario.node[475].veinsmobility 	startTime 	1783
scalar IntersectionExampleScenario.node[475].veinsmobility 	totalTime 	17
scalar IntersectionExampleScenario.node[475].veinsmobility 	stopTime 	1800
scalar IntersectionExampleScenario.node[475].veinsmobility 	minSpeed 	5.6500000953674
scalar IntersectionExampleScenario.node[475].veinsmobility 	maxSpeed 	14.53900718689
scalar IntersectionExampleScenario.node[475].veinsmobility 	totalDistance 	223.01257324219
scalar IntersectionExampleScenario.node[475].veinsmobility 	totalCO2Emission 	58.287692900346
scalar IntersectionExampleScenario.node[476].appl 	VehicleRemoved 	0
scalar IntersectionExampleScenario.node[476].appl 	ArrivedAtDest 	0
scalar IntersectionExampleScenario.node[476].appl 	IntersectionEnterTime 	1786
scalar IntersectionExampleScenario.node[476].appl 	IntersectionExitTime 	-1
scalar IntersectionExampleScenario.node[476].appl 	NumberOfCollisions 	0
scalar IntersectionExampleScenario.node[476].nic.phy80211p 	busyTime 	0
scalar IntersectionExampleScenario.node[476].nic.mac1609_4 	ReceivedUnicastPackets 	0
scalar IntersectionExampleScenario.node[476].nic.mac1609_4 	ReceivedBroadcasts 	0
scalar IntersectionExampleScenario.node[476].nic.mac1609_4 	SentPackets 	0
scalar IntersectionExampleScenario.node[476].nic.mac1609_4 	SNIRLostPackets 	0
scalar IntersectionExampleScenario.node[476].nic.mac1609_4 	RXTXLostPackets 	0
scalar IntersectionExampleScenario.node[476].nic.mac1609_4 	TotalLostPackets 	0
scalar IntersectionExampleScenario.node[476].nic.mac1609_4 	DroppedPacketsInMac 	0
scalar IntersectionExampleScenario.node[476].nic.mac1609_4 	TooLittleTime 	0
scalar IntersectionExampleScenario.node[476].nic.mac1609_4 	TimesIntoBackoff 	0
scalar IntersectionExampleScenario.node[476].nic.mac1609_4 	SlotsBackoff 	0
scalar IntersectionExampleScenario.node[476].nic.mac1609_4 	NumInternalContention 	0
scalar IntersectionExampleScenario.node[476].nic.mac1609_4 	totalBusyTime 	0
scalar IntersectionExampleScenario.node[476].veinsmobility 	startTime 	1786
scalar IntersectionExampleScenario.node[476].veinsmobility 	totalTime 	14
scalar IntersectionExampleScenario.node[476].veinsmobility 	stopTime 	1800
scalar IntersectionExampleScenario.node[476].veinsmobility 	minSpeed 	5.6500000953674
scalar IntersectionExampleScenario.node[476].veinsmobility 	maxSpeed 	15.64999961853
scalar IntersectionExampleScenario.node[476].veinsmobility 	totalDistance 	193.9508972168
scalar IntersectionExampleScenario.node[476].veinsmobility 	totalCO2Emission 	53.828733767706
scalar IntersectionExampleScenario.node[477].appl 	VehicleRemoved 	0
scalar IntersectionExampleScenario.node[477].appl 	ArrivedAtDest 	0
scalar IntersectionExampleScenario.node[477].appl 	IntersectionEnterTime 	1786.25
scalar IntersectionExampleScenario.node[477].appl 	IntersectionExitTime 	-1
scalar IntersectionExampleScenario.node[477].appl 	NumberOfCollisions 	0
scalar IntersectionExampleScenario.node[477].nic.phy80211p 	busyTime 	0
scalar IntersectionExampleScenario.node[477].nic.mac1609_4 	ReceivedUnicastPackets 	0
scalar IntersectionExampleScenario.node[477].nic.mac1609_4 	ReceivedBroadcasts 	0
scalar IntersectionExampleScenario.node[477].nic.mac1609_4 	SentPackets 	0
scalar IntersectionExampleScenario.node[477].nic.mac1609_4 	SNIRLostPackets 	0
scalar IntersectionExampleScenario.node[477].nic.mac1609_4 	RXTXLostPackets 	0
scalar IntersectionExampleScenario.node[477].nic.mac1609_4 	TotalLostPackets 	0
scalar IntersectionExampleScenario.node[477].nic.mac1609_4 	DroppedPacketsInMac 	0
scalar IntersectionExampleScenario.node[477].nic.mac1609_4 	TooLittleTime 	0
scalar IntersectionExampleScenario.node[477].nic.mac1609_4 	TimesIntoBackoff 	0
scalar IntersectionExampleScenario.node[477].nic.mac1609_4 	SlotsBackoff 	0
scalar IntersectionExampleScenario.node[477].nic.mac1609_4 	NumInternalContention 	0
scalar IntersectionExampleScenario.node[477].nic.mac1609_4 	totalBusyTime 	0
scalar IntersectionExampleScenario.node[477].veinsmobility 	startTime 	1786.25
scalar IntersectionExampleScenario.node[477].veinsmobility 	totalTime 	13.75
scalar IntersectionExampleScenario.node[477].veinsmobility 	stopTime 	1800
scalar IntersectionExampleScenario.node[477].veinsmobility 	minSpeed 	5.6500000953674
scalar IntersectionExampleScenario.node[477].veinsmobility 	maxSpeed 	15.617646217346
scalar IntersectionExampleScenario.node[477].veinsmobility 	totalDistance 	174.70928955078
scalar IntersectionExampleScenario.node[477].veinsmobility 	totalCO2Emission 	53.469903036496
scalar IntersectionExampleScenario.node[478].appl 	VehicleRemoved 	0
scalar IntersectionExampleScenario.node[478].appl 	ArrivedAtDest 	0
scalar IntersectionExampleScenario.node[478].appl 	IntersectionEnterTime 	1787.5
scalar IntersectionExampleScenario.node[478].appl 	IntersectionExitTime 	-1
scalar IntersectionExampleScenario.node[478].appl 	NumberOfCollisions 	0
scalar IntersectionExampleScenario.node[478].nic.phy80211p 	busyTime 	0
scalar IntersectionExampleScenario.node[478].nic.mac1609_4 	ReceivedUnicastPackets 	0
scalar IntersectionExampleScenario.node[478].nic.mac1609_4 	ReceivedBroadcasts 	0
scalar IntersectionExampleScenario.node[478].nic.mac1609_4 	SentPackets 	0
scalar IntersectionExampleScenario.node[478].nic.mac1609_4 	SNIRLostPackets 	0
scalar IntersectionExampleScenario.node[478].nic.mac1609_4 	RXTXLostPackets 	0
scalar IntersectionExampleScenario.node[478].nic.mac1609_4 	TotalLostPackets 	0
scalar IntersectionExampleScenario.node[478].nic.mac1609_4 	DroppedPacketsInMac 	0
scalar IntersectionExampleScenario.node[478].nic.mac1609_4 	TooLittleTime 	0
scalar IntersectionExampleScenario.node[478].nic.mac1609_4 	TimesIntoBackoff 	0
scalar IntersectionExampleScenario.node[478].nic.mac1609_4 	SlotsBackoff 	0
scalar IntersectionExampleScenario.node[478].nic.mac1609_4 	NumInternalContention 	0
scalar IntersectionExampleScenario.node[478].nic.mac1609_4 	totalBusyTime 	0
scalar IntersectionExampleScenario.node[478].veinsmobility 	startTime 	1787.5
scalar IntersectionExampleScenario.node[478].veinsmobility 	totalTime 	12.5
scalar IntersectionExampleScenario.node[478].veinsmobility 	stopTime 	1800
scalar IntersectionExampleScenario.node[478].veinsmobility 	minSpeed 	5.6500000953674
scalar IntersectionExampleScenario.node[478].veinsmobility 	maxSpeed 	15.833383560181
scalar IntersectionExampleScenario.node[478].veinsmobility 	totalDistance 	170.93481445312
scalar IntersectionExampleScenario.node[478].veinsmobility 	totalCO2Emission 	51.275834695701
scalar IntersectionExampleScenario.node[479].appl 	VehicleRemoved 	0
scalar IntersectionExampleScenario.node[479].appl 	ArrivedAtDest 	0
scalar IntersectionExampleScenario.node[479].appl 	IntersectionEnterTime 	1790.75
scalar IntersectionExampleScenario.node[479].appl 	IntersectionExitTime 	-1
scalar IntersectionExampleScenario.node[479].appl 	NumberOfCollisions 	0
scalar IntersectionExampleScenario.node[479].nic.phy80211p 	busyTime 	0
scalar IntersectionExampleScenario.node[479].nic.mac1609_4 	ReceivedUnicastPackets 	0
scalar IntersectionExampleScenario.node[479].nic.mac1609_4 	ReceivedBroadcasts 	0
scalar IntersectionExampleScenario.node[479].nic.mac1609_4 	SentPackets 	0
scalar IntersectionExampleScenario.node[479].nic.mac1609_4 	SNIRLostPackets 	0
scalar IntersectionExampleScenario.node[479].nic.mac1609_4 	RXTXLostPackets 	0
scalar IntersectionExampleScenario.node[479].nic.mac1609_4 	TotalLostPackets 	0
scalar IntersectionExampleScenario.node[479].nic.mac1609_4 	DroppedPacketsInMac 	0
scalar IntersectionExampleScenario.node[479].nic.mac1609_4 	TooLittleTime 	0
scalar IntersectionExampleScenario.node[479].nic.mac1609_4 	TimesIntoBackoff 	0
scalar IntersectionExampleScenario.node[479].nic.mac1609_4 	SlotsBackoff 	0
scalar IntersectionExampleScenario.node[479].nic.mac1609_4 	NumInternalContention 	0
scalar IntersectionExampleScenario.node[479].nic.mac1609_4 	totalBusyTime 	0
scalar IntersectionExampleScenario.node[479].veinsmobility 	startTime 	1790.75
scalar IntersectionExampleScenario.node[479].veinsmobility 	totalTime 	9.25
scalar IntersectionExampleScenario.node[479].veinsmobility 	stopTime 	1800
scalar IntersectionExampleScenario.node[479].veinsmobility 	minSpeed 	5.6500000953674
scalar IntersectionExampleScenario.node[479].veinsmobility 	maxSpeed 	15.02499961853
scalar IntersectionExampleScenario.node[479].veinsmobility 	totalDistance 	116.55615234375
scalar IntersectionExampleScenario.node[479].veinsmobility 	totalCO2Emission 	39.953861049496
scalar IntersectionExampleScenario.node[480].appl 	VehicleRemoved 	0
scalar IntersectionExampleScenario.node[480].appl 	ArrivedAtDest 	0
scalar IntersectionExampleScenario.node[480].appl 	IntersectionEnterTime 	1794
scalar IntersectionExampleScenario.node[480].appl 	IntersectionExitTime 	-1
scalar IntersectionExampleScenario.node[480].appl 	NumberOfCollisions 	0
scalar IntersectionExampleScenario.node[480].nic.phy80211p 	busyTime 	0
scalar IntersectionExampleScenario.node[480].nic.mac1609_4 	ReceivedUnicastPackets 	0
scalar IntersectionExampleScenario.node[480].nic.mac1609_4 	ReceivedBroadcasts 	0
scalar IntersectionExampleScenario.node[480].nic.mac1609_4 	SentPackets 	0
scalar IntersectionExampleScenario.node[480].nic.mac1609_4 	SNIRLostPackets 	0
scalar IntersectionExampleScenario.node[480].nic.mac1609_4 	RXTXLostPackets 	0
scalar IntersectionExampleScenario.node[480].nic.mac1609_4 	TotalLostPackets 	0
scalar IntersectionExampleScenario.node[480].nic.mac1609_4 	DroppedPacketsInMac 	0
scalar IntersectionExampleScenario.node[480].nic.mac1609_4 	TooLittleTime 	0
scalar IntersectionExampleScenario.node[480].nic.mac1609_4 	TimesIntoBackoff 	0
scalar IntersectionExampleScenario.node[480].nic.mac1609_4 	SlotsBackoff 	0
scalar IntersectionExampleScenario.node[480].nic.mac1609_4 	NumInternalContention 	0
scalar IntersectionExampleScenario.node[480].nic.mac1609_4 	totalBusyTime 	0
scalar IntersectionExampleScenario.node[480].veinsmobility 	startTime 	1794
scalar IntersectionExampleScenario.node[480].veinsmobility 	totalTime 	6
scalar IntersectionExampleScenario.node[480].veinsmobility 	stopTime 	1800
scalar IntersectionExampleScenario.node[480].veinsmobility 	minSpeed 	5.6500000953674
scalar IntersectionExampleScenario.node[480].veinsmobility 	maxSpeed 	15.64999961853
scalar IntersectionExampleScenario.node[480].veinsmobility 	totalDistance 	70.92578125
scalar IntersectionExampleScenario.node[480].veinsmobility 	totalCO2Emission 	36.237330687592
