version 2
run nodebug-27-20200606-18:48:34-22420
attr configname nodebug
attr datetime 20200606-18:48:34
attr experiment nodebug
attr inifile omnetpp.ini
attr iterationvars ""
attr iterationvars2 $repetition=27
attr measurement ""
attr network "\"org.car2x.veins.modules.application.ExtTraCIScenarioManagerLaunchd.IntersectionExampleScenario\""
attr processid 22420
attr repetition 27
attr replication #27
attr resultdir results
attr runnumber 27
attr seedset 27
param **.coreDebug false
param **.debug false
param *.**.nic.mac1609_4.bitrate 18Mbps
param *.**.nic.mac1609_4.txPower 20mW
param *.**.nic.mac1609_4.useServiceChannel false
param *.**.nic.phy80211p.analogueModels "xmldoc(\"config.xml\")"
param *.**.nic.phy80211p.decider "xmldoc(\"config.xml\")"
param *.**.nic.phy80211p.sensitivity -89dBm
param *.**.nic.phy80211p.thermalNoise -110dBm
param *.**.nic.phy80211p.usePropagationDelay true
param *.**.nic.phy80211p.useThermalNoise true
param *.annotations.draw false
param *.connectionManager.alpha 2.0
param *.connectionManager.carrierFrequency "5.890e9 Hz"
param *.connectionManager.pMax 20mW
param *.connectionManager.sat -89dBm
param *.connectionManager.sendDirect true
param *.manager.autoShutdown true
param *.manager.host "\"localhost\""
param *.manager.launchConfig "xmldoc(\"paramics.launchd.xml\")"
param *.manager.margin 25
param *.manager.moduleDisplayString "\"\""
param *.manager.moduleName "\"node\""
param *.manager.moduleType "\"org.car2x.veins.nodes.Car\""
param *.manager.port 9999
param *.manager.updateInterval 250ms
param *.node[*0].veinsmobility.accidentCount 0
param *.node[*0].veinsmobility.accidentDuration 30s
param *.node[*0].veinsmobility.accidentStart 75s
param *.node[*].appl.LiderSelectZoneRadio 55.0
param *.node[*].appl.ShareDataZoneRadio 110.0
param *.node[*].appl.TiempoSemaforo 30.0
param *.node[*].appl.beaconInterval 1s
param *.node[*].appl.beaconPriority 3
param *.node[*].appl.dataOnSch false
param *.node[*].appl.dataPriority 2
param *.node[*].appl.debug false
param *.node[*].appl.headerLength "256 bit"
param *.node[*].appl.maxOffset 0.005s
param *.node[*].appl.sendBeacons false
param *.node[*].appl.sendData true
param *.node[*].applType "\"Dummy\""
param *.node[*].mobilityType "\"TraCIMobility\""
param *.node[*].mobilityType.debug true
param *.node[*].veinsmobility.x 0
param *.node[*].veinsmobility.y 0
param *.node[*].veinsmobility.z 1.895
param *.node[*].veinsmobilityType "\"org.car2x.veins.modules.mobility.traci.TraCIMobility\""
param *.node[*].veinsmobilityType.debug true
param *.playgroundSizeX 8500m
param *.playgroundSizeY 8500m
param *.playgroundSizeZ 50m
param *.world.use2D false
param *.world.useTorus false

scalar IntersectionExampleScenario.node[0].appl 	VehicleRemoved 	0
scalar IntersectionExampleScenario.node[0].appl 	ArrivedAtDest 	1
scalar IntersectionExampleScenario.node[0].appl 	IntersectionEnterTime 	2.75
scalar IntersectionExampleScenario.node[0].appl 	IntersectionExitTime 	26.108500399772
scalar IntersectionExampleScenario.node[0].appl 	NumberOfCollisions 	0
scalar IntersectionExampleScenario.node[0].nic.phy80211p 	busyTime 	0
scalar IntersectionExampleScenario.node[0].nic.mac1609_4 	ReceivedUnicastPackets 	0
scalar IntersectionExampleScenario.node[0].nic.mac1609_4 	ReceivedBroadcasts 	0
scalar IntersectionExampleScenario.node[0].nic.mac1609_4 	SentPackets 	0
scalar IntersectionExampleScenario.node[0].nic.mac1609_4 	SNIRLostPackets 	0
scalar IntersectionExampleScenario.node[0].nic.mac1609_4 	RXTXLostPackets 	0
scalar IntersectionExampleScenario.node[0].nic.mac1609_4 	TotalLostPackets 	0
scalar IntersectionExampleScenario.node[0].nic.mac1609_4 	DroppedPacketsInMac 	0
scalar IntersectionExampleScenario.node[0].nic.mac1609_4 	TooLittleTime 	0
scalar IntersectionExampleScenario.node[0].nic.mac1609_4 	TimesIntoBackoff 	0
scalar IntersectionExampleScenario.node[0].nic.mac1609_4 	SlotsBackoff 	0
scalar IntersectionExampleScenario.node[0].nic.mac1609_4 	NumInternalContention 	0
scalar IntersectionExampleScenario.node[0].nic.mac1609_4 	totalBusyTime 	0
scalar IntersectionExampleScenario.node[0].veinsmobility 	startTime 	2.75
scalar IntersectionExampleScenario.node[0].veinsmobility 	totalTime 	39.75
scalar IntersectionExampleScenario.node[0].veinsmobility 	stopTime 	42.75
scalar IntersectionExampleScenario.node[0].veinsmobility 	minSpeed 	5.6500000953674
scalar IntersectionExampleScenario.node[0].veinsmobility 	maxSpeed 	16.27499961853
scalar IntersectionExampleScenario.node[0].veinsmobility 	totalDistance 	546.57134167821
scalar IntersectionExampleScenario.node[0].veinsmobility 	totalCO2Emission 	130.33976519817
scalar IntersectionExampleScenario.node[2].appl 	VehicleRemoved 	0
scalar IntersectionExampleScenario.node[2].appl 	ArrivedAtDest 	1
scalar IntersectionExampleScenario.node[2].appl 	IntersectionEnterTime 	11.5
scalar IntersectionExampleScenario.node[2].appl 	IntersectionExitTime 	34.607251589157
scalar IntersectionExampleScenario.node[2].appl 	NumberOfCollisions 	0
scalar IntersectionExampleScenario.node[2].nic.phy80211p 	busyTime 	0
scalar IntersectionExampleScenario.node[2].nic.mac1609_4 	ReceivedUnicastPackets 	0
scalar IntersectionExampleScenario.node[2].nic.mac1609_4 	ReceivedBroadcasts 	0
scalar IntersectionExampleScenario.node[2].nic.mac1609_4 	SentPackets 	0
scalar IntersectionExampleScenario.node[2].nic.mac1609_4 	SNIRLostPackets 	0
scalar IntersectionExampleScenario.node[2].nic.mac1609_4 	RXTXLostPackets 	0
scalar IntersectionExampleScenario.node[2].nic.mac1609_4 	TotalLostPackets 	0
scalar IntersectionExampleScenario.node[2].nic.mac1609_4 	DroppedPacketsInMac 	0
scalar IntersectionExampleScenario.node[2].nic.mac1609_4 	TooLittleTime 	0
scalar IntersectionExampleScenario.node[2].nic.mac1609_4 	TimesIntoBackoff 	0
scalar IntersectionExampleScenario.node[2].nic.mac1609_4 	SlotsBackoff 	0
scalar IntersectionExampleScenario.node[2].nic.mac1609_4 	NumInternalContention 	0
scalar IntersectionExampleScenario.node[2].nic.mac1609_4 	totalBusyTime 	0
scalar IntersectionExampleScenario.node[2].veinsmobility 	startTime 	11.5
scalar IntersectionExampleScenario.node[2].veinsmobility 	totalTime 	39.25
scalar IntersectionExampleScenario.node[2].veinsmobility 	stopTime 	51
scalar IntersectionExampleScenario.node[2].veinsmobility 	minSpeed 	5.6500000953674
scalar IntersectionExampleScenario.node[2].veinsmobility 	maxSpeed 	16
scalar IntersectionExampleScenario.node[2].veinsmobility 	totalDistance 	551.44358139212
scalar IntersectionExampleScenario.node[2].veinsmobility 	totalCO2Emission 	124.05235499459
scalar IntersectionExampleScenario.node[3].appl 	VehicleRemoved 	0
scalar IntersectionExampleScenario.node[3].appl 	ArrivedAtDest 	1
scalar IntersectionExampleScenario.node[3].appl 	IntersectionEnterTime 	12
scalar IntersectionExampleScenario.node[3].appl 	IntersectionExitTime 	38.540695840114
scalar IntersectionExampleScenario.node[3].appl 	NumberOfCollisions 	0
scalar IntersectionExampleScenario.node[3].nic.phy80211p 	busyTime 	0
scalar IntersectionExampleScenario.node[3].nic.mac1609_4 	ReceivedUnicastPackets 	0
scalar IntersectionExampleScenario.node[3].nic.mac1609_4 	ReceivedBroadcasts 	0
scalar IntersectionExampleScenario.node[3].nic.mac1609_4 	SentPackets 	0
scalar IntersectionExampleScenario.node[3].nic.mac1609_4 	SNIRLostPackets 	0
scalar IntersectionExampleScenario.node[3].nic.mac1609_4 	RXTXLostPackets 	0
scalar IntersectionExampleScenario.node[3].nic.mac1609_4 	TotalLostPackets 	0
scalar IntersectionExampleScenario.node[3].nic.mac1609_4 	DroppedPacketsInMac 	0
scalar IntersectionExampleScenario.node[3].nic.mac1609_4 	TooLittleTime 	0
scalar IntersectionExampleScenario.node[3].nic.mac1609_4 	TimesIntoBackoff 	0
scalar IntersectionExampleScenario.node[3].nic.mac1609_4 	SlotsBackoff 	0
scalar IntersectionExampleScenario.node[3].nic.mac1609_4 	NumInternalContention 	0
scalar IntersectionExampleScenario.node[3].nic.mac1609_4 	totalBusyTime 	0
scalar IntersectionExampleScenario.node[3].veinsmobility 	startTime 	12
scalar IntersectionExampleScenario.node[3].veinsmobility 	totalTime 	43.25
scalar IntersectionExampleScenario.node[3].veinsmobility 	stopTime 	55.5
scalar IntersectionExampleScenario.node[3].veinsmobility 	minSpeed 	0
scalar IntersectionExampleScenario.node[3].veinsmobility 	maxSpeed 	15.875
scalar IntersectionExampleScenario.node[3].veinsmobility 	totalDistance 	545.64199735076
scalar IntersectionExampleScenario.node[3].veinsmobility 	totalCO2Emission 	136.03974830857
scalar IntersectionExampleScenario.node[4].appl 	VehicleRemoved 	0
scalar IntersectionExampleScenario.node[4].appl 	ArrivedAtDest 	1
scalar IntersectionExampleScenario.node[4].appl 	IntersectionEnterTime 	15.25
scalar IntersectionExampleScenario.node[4].appl 	IntersectionExitTime 	41.271242836694
scalar IntersectionExampleScenario.node[4].appl 	NumberOfCollisions 	0
scalar IntersectionExampleScenario.node[4].nic.phy80211p 	busyTime 	0
scalar IntersectionExampleScenario.node[4].nic.mac1609_4 	ReceivedUnicastPackets 	0
scalar IntersectionExampleScenario.node[4].nic.mac1609_4 	ReceivedBroadcasts 	0
scalar IntersectionExampleScenario.node[4].nic.mac1609_4 	SentPackets 	0
scalar IntersectionExampleScenario.node[4].nic.mac1609_4 	SNIRLostPackets 	0
scalar IntersectionExampleScenario.node[4].nic.mac1609_4 	RXTXLostPackets 	0
scalar IntersectionExampleScenario.node[4].nic.mac1609_4 	TotalLostPackets 	0
scalar IntersectionExampleScenario.node[4].nic.mac1609_4 	DroppedPacketsInMac 	0
scalar IntersectionExampleScenario.node[4].nic.mac1609_4 	TooLittleTime 	0
scalar IntersectionExampleScenario.node[4].nic.mac1609_4 	TimesIntoBackoff 	0
scalar IntersectionExampleScenario.node[4].nic.mac1609_4 	SlotsBackoff 	0
scalar IntersectionExampleScenario.node[4].nic.mac1609_4 	NumInternalContention 	0
scalar IntersectionExampleScenario.node[4].nic.mac1609_4 	totalBusyTime 	0
scalar IntersectionExampleScenario.node[4].veinsmobility 	startTime 	15.25
scalar IntersectionExampleScenario.node[4].veinsmobility 	totalTime 	43.25
scalar IntersectionExampleScenario.node[4].veinsmobility 	stopTime 	58.75
scalar IntersectionExampleScenario.node[4].veinsmobility 	minSpeed 	5.6500000953674
scalar IntersectionExampleScenario.node[4].veinsmobility 	maxSpeed 	15.25
scalar IntersectionExampleScenario.node[4].veinsmobility 	totalDistance 	556.17899965422
scalar IntersectionExampleScenario.node[4].veinsmobility 	totalCO2Emission 	126.60341851225
scalar IntersectionExampleScenario.node[1].appl 	VehicleRemoved 	0
scalar IntersectionExampleScenario.node[1].appl 	ArrivedAtDest 	1
scalar IntersectionExampleScenario.node[1].appl 	IntersectionEnterTime 	3.25
scalar IntersectionExampleScenario.node[1].appl 	IntersectionExitTime 	50.276214395941
scalar IntersectionExampleScenario.node[1].appl 	NumberOfCollisions 	0
scalar IntersectionExampleScenario.node[1].nic.phy80211p 	busyTime 	0
scalar IntersectionExampleScenario.node[1].nic.mac1609_4 	ReceivedUnicastPackets 	0
scalar IntersectionExampleScenario.node[1].nic.mac1609_4 	ReceivedBroadcasts 	0
scalar IntersectionExampleScenario.node[1].nic.mac1609_4 	SentPackets 	0
scalar IntersectionExampleScenario.node[1].nic.mac1609_4 	SNIRLostPackets 	0
scalar IntersectionExampleScenario.node[1].nic.mac1609_4 	RXTXLostPackets 	0
scalar IntersectionExampleScenario.node[1].nic.mac1609_4 	TotalLostPackets 	0
scalar IntersectionExampleScenario.node[1].nic.mac1609_4 	DroppedPacketsInMac 	0
scalar IntersectionExampleScenario.node[1].nic.mac1609_4 	TooLittleTime 	0
scalar IntersectionExampleScenario.node[1].nic.mac1609_4 	TimesIntoBackoff 	0
scalar IntersectionExampleScenario.node[1].nic.mac1609_4 	SlotsBackoff 	0
scalar IntersectionExampleScenario.node[1].nic.mac1609_4 	NumInternalContention 	0
scalar IntersectionExampleScenario.node[1].nic.mac1609_4 	totalBusyTime 	0
scalar IntersectionExampleScenario.node[1].veinsmobility 	startTime 	3.25
scalar IntersectionExampleScenario.node[1].veinsmobility 	totalTime 	63.75
scalar IntersectionExampleScenario.node[1].veinsmobility 	stopTime 	67.25
scalar IntersectionExampleScenario.node[1].veinsmobility 	minSpeed 	0
scalar IntersectionExampleScenario.node[1].veinsmobility 	maxSpeed 	15.02499961853
scalar IntersectionExampleScenario.node[1].veinsmobility 	totalDistance 	554.21067810059
scalar IntersectionExampleScenario.node[1].veinsmobility 	totalCO2Emission 	151.18999139979
scalar IntersectionExampleScenario.node[5].appl 	VehicleRemoved 	0
scalar IntersectionExampleScenario.node[5].appl 	ArrivedAtDest 	1
scalar IntersectionExampleScenario.node[5].appl 	IntersectionEnterTime 	17.5
scalar IntersectionExampleScenario.node[5].appl 	IntersectionExitTime 	52.020363272197
scalar IntersectionExampleScenario.node[5].appl 	NumberOfCollisions 	0
scalar IntersectionExampleScenario.node[5].nic.phy80211p 	busyTime 	0
scalar IntersectionExampleScenario.node[5].nic.mac1609_4 	ReceivedUnicastPackets 	0
scalar IntersectionExampleScenario.node[5].nic.mac1609_4 	ReceivedBroadcasts 	0
scalar IntersectionExampleScenario.node[5].nic.mac1609_4 	SentPackets 	0
scalar IntersectionExampleScenario.node[5].nic.mac1609_4 	SNIRLostPackets 	0
scalar IntersectionExampleScenario.node[5].nic.mac1609_4 	RXTXLostPackets 	0
scalar IntersectionExampleScenario.node[5].nic.mac1609_4 	TotalLostPackets 	0
scalar IntersectionExampleScenario.node[5].nic.mac1609_4 	DroppedPacketsInMac 	0
scalar IntersectionExampleScenario.node[5].nic.mac1609_4 	TooLittleTime 	0
scalar IntersectionExampleScenario.node[5].nic.mac1609_4 	TimesIntoBackoff 	0
scalar IntersectionExampleScenario.node[5].nic.mac1609_4 	SlotsBackoff 	0
scalar IntersectionExampleScenario.node[5].nic.mac1609_4 	NumInternalContention 	0
scalar IntersectionExampleScenario.node[5].nic.mac1609_4 	totalBusyTime 	0
scalar IntersectionExampleScenario.node[5].veinsmobility 	startTime 	17.5
scalar IntersectionExampleScenario.node[5].veinsmobility 	totalTime 	50.5
scalar IntersectionExampleScenario.node[5].veinsmobility 	stopTime 	68.25
scalar IntersectionExampleScenario.node[5].veinsmobility 	minSpeed 	0
scalar IntersectionExampleScenario.node[5].veinsmobility 	maxSpeed 	16.89999961853
scalar IntersectionExampleScenario.node[5].veinsmobility 	totalDistance 	553.68705749512
scalar IntersectionExampleScenario.node[5].veinsmobility 	totalCO2Emission 	148.7239689483
scalar IntersectionExampleScenario.node[6].appl 	VehicleRemoved 	0
scalar IntersectionExampleScenario.node[6].appl 	ArrivedAtDest 	1
scalar IntersectionExampleScenario.node[6].appl 	IntersectionEnterTime 	20.25
scalar IntersectionExampleScenario.node[6].appl 	IntersectionExitTime 	61.324864656286
scalar IntersectionExampleScenario.node[6].appl 	NumberOfCollisions 	0
scalar IntersectionExampleScenario.node[6].nic.phy80211p 	busyTime 	0
scalar IntersectionExampleScenario.node[6].nic.mac1609_4 	ReceivedUnicastPackets 	0
scalar IntersectionExampleScenario.node[6].nic.mac1609_4 	ReceivedBroadcasts 	0
scalar IntersectionExampleScenario.node[6].nic.mac1609_4 	SentPackets 	0
scalar IntersectionExampleScenario.node[6].nic.mac1609_4 	SNIRLostPackets 	0
scalar IntersectionExampleScenario.node[6].nic.mac1609_4 	RXTXLostPackets 	0
scalar IntersectionExampleScenario.node[6].nic.mac1609_4 	TotalLostPackets 	0
scalar IntersectionExampleScenario.node[6].nic.mac1609_4 	DroppedPacketsInMac 	0
scalar IntersectionExampleScenario.node[6].nic.mac1609_4 	TooLittleTime 	0
scalar IntersectionExampleScenario.node[6].nic.mac1609_4 	TimesIntoBackoff 	0
scalar IntersectionExampleScenario.node[6].nic.mac1609_4 	SlotsBackoff 	0
scalar IntersectionExampleScenario.node[6].nic.mac1609_4 	NumInternalContention 	0
scalar IntersectionExampleScenario.node[6].nic.mac1609_4 	totalBusyTime 	0
scalar IntersectionExampleScenario.node[6].veinsmobility 	startTime 	20.25
scalar IntersectionExampleScenario.node[6].veinsmobility 	totalTime 	56.75
scalar IntersectionExampleScenario.node[6].veinsmobility 	stopTime 	77.25
scalar IntersectionExampleScenario.node[6].veinsmobility 	minSpeed 	0
scalar IntersectionExampleScenario.node[6].veinsmobility 	maxSpeed 	16
scalar IntersectionExampleScenario.node[6].veinsmobility 	totalDistance 	549.38234056583
scalar IntersectionExampleScenario.node[6].veinsmobility 	totalCO2Emission 	151.13511307764
scalar IntersectionExampleScenario.node[8].appl 	VehicleRemoved 	0
scalar IntersectionExampleScenario.node[8].appl 	ArrivedAtDest 	1
scalar IntersectionExampleScenario.node[8].appl 	IntersectionEnterTime 	21.75
scalar IntersectionExampleScenario.node[8].appl 	IntersectionExitTime 	63.559573404957
scalar IntersectionExampleScenario.node[8].appl 	NumberOfCollisions 	0
scalar IntersectionExampleScenario.node[8].nic.phy80211p 	busyTime 	0
scalar IntersectionExampleScenario.node[8].nic.mac1609_4 	ReceivedUnicastPackets 	0
scalar IntersectionExampleScenario.node[8].nic.mac1609_4 	ReceivedBroadcasts 	0
scalar IntersectionExampleScenario.node[8].nic.mac1609_4 	SentPackets 	0
scalar IntersectionExampleScenario.node[8].nic.mac1609_4 	SNIRLostPackets 	0
scalar IntersectionExampleScenario.node[8].nic.mac1609_4 	RXTXLostPackets 	0
scalar IntersectionExampleScenario.node[8].nic.mac1609_4 	TotalLostPackets 	0
scalar IntersectionExampleScenario.node[8].nic.mac1609_4 	DroppedPacketsInMac 	0
scalar IntersectionExampleScenario.node[8].nic.mac1609_4 	TooLittleTime 	0
scalar IntersectionExampleScenario.node[8].nic.mac1609_4 	TimesIntoBackoff 	0
scalar IntersectionExampleScenario.node[8].nic.mac1609_4 	SlotsBackoff 	0
scalar IntersectionExampleScenario.node[8].nic.mac1609_4 	NumInternalContention 	0
scalar IntersectionExampleScenario.node[8].nic.mac1609_4 	totalBusyTime 	0
scalar IntersectionExampleScenario.node[8].veinsmobility 	startTime 	21.75
scalar IntersectionExampleScenario.node[8].veinsmobility 	totalTime 	57.75
scalar IntersectionExampleScenario.node[8].veinsmobility 	stopTime 	79.75
scalar IntersectionExampleScenario.node[8].veinsmobility 	minSpeed 	0
scalar IntersectionExampleScenario.node[8].veinsmobility 	maxSpeed 	16.27499961853
scalar IntersectionExampleScenario.node[8].veinsmobility 	totalDistance 	545.71063379602
scalar IntersectionExampleScenario.node[8].veinsmobility 	totalCO2Emission 	156.45219113423
scalar IntersectionExampleScenario.node[9].appl 	VehicleRemoved 	0
scalar IntersectionExampleScenario.node[9].appl 	ArrivedAtDest 	1
scalar IntersectionExampleScenario.node[9].appl 	IntersectionEnterTime 	24.75
scalar IntersectionExampleScenario.node[9].appl 	IntersectionExitTime 	65.014684615569
scalar IntersectionExampleScenario.node[9].appl 	NumberOfCollisions 	0
scalar IntersectionExampleScenario.node[9].nic.phy80211p 	busyTime 	0
scalar IntersectionExampleScenario.node[9].nic.mac1609_4 	ReceivedUnicastPackets 	0
scalar IntersectionExampleScenario.node[9].nic.mac1609_4 	ReceivedBroadcasts 	0
scalar IntersectionExampleScenario.node[9].nic.mac1609_4 	SentPackets 	0
scalar IntersectionExampleScenario.node[9].nic.mac1609_4 	SNIRLostPackets 	0
scalar IntersectionExampleScenario.node[9].nic.mac1609_4 	RXTXLostPackets 	0
scalar IntersectionExampleScenario.node[9].nic.mac1609_4 	TotalLostPackets 	0
scalar IntersectionExampleScenario.node[9].nic.mac1609_4 	DroppedPacketsInMac 	0
scalar IntersectionExampleScenario.node[9].nic.mac1609_4 	TooLittleTime 	0
scalar IntersectionExampleScenario.node[9].nic.mac1609_4 	TimesIntoBackoff 	0
scalar IntersectionExampleScenario.node[9].nic.mac1609_4 	SlotsBackoff 	0
scalar IntersectionExampleScenario.node[9].nic.mac1609_4 	NumInternalContention 	0
scalar IntersectionExampleScenario.node[9].nic.mac1609_4 	totalBusyTime 	0
scalar IntersectionExampleScenario.node[9].veinsmobility 	startTime 	24.75
scalar IntersectionExampleScenario.node[9].veinsmobility 	totalTime 	56.75
scalar IntersectionExampleScenario.node[9].veinsmobility 	stopTime 	81.75
scalar IntersectionExampleScenario.node[9].veinsmobility 	minSpeed 	0
scalar IntersectionExampleScenario.node[9].veinsmobility 	maxSpeed 	15.375
scalar IntersectionExampleScenario.node[9].veinsmobility 	totalDistance 	562.62424445991
scalar IntersectionExampleScenario.node[9].veinsmobility 	totalCO2Emission 	146.60130930455
scalar IntersectionExampleScenario.node[7].appl 	VehicleRemoved 	0
scalar IntersectionExampleScenario.node[7].appl 	ArrivedAtDest 	1
scalar IntersectionExampleScenario.node[7].appl 	IntersectionEnterTime 	21.5
scalar IntersectionExampleScenario.node[7].appl 	IntersectionExitTime 	65.590696626081
scalar IntersectionExampleScenario.node[7].appl 	NumberOfCollisions 	0
scalar IntersectionExampleScenario.node[7].nic.phy80211p 	busyTime 	0
scalar IntersectionExampleScenario.node[7].nic.mac1609_4 	ReceivedUnicastPackets 	0
scalar IntersectionExampleScenario.node[7].nic.mac1609_4 	ReceivedBroadcasts 	0
scalar IntersectionExampleScenario.node[7].nic.mac1609_4 	SentPackets 	0
scalar IntersectionExampleScenario.node[7].nic.mac1609_4 	SNIRLostPackets 	0
scalar IntersectionExampleScenario.node[7].nic.mac1609_4 	RXTXLostPackets 	0
scalar IntersectionExampleScenario.node[7].nic.mac1609_4 	TotalLostPackets 	0
scalar IntersectionExampleScenario.node[7].nic.mac1609_4 	DroppedPacketsInMac 	0
scalar IntersectionExampleScenario.node[7].nic.mac1609_4 	TooLittleTime 	0
scalar IntersectionExampleScenario.node[7].nic.mac1609_4 	TimesIntoBackoff 	0
scalar IntersectionExampleScenario.node[7].nic.mac1609_4 	SlotsBackoff 	0
scalar IntersectionExampleScenario.node[7].nic.mac1609_4 	NumInternalContention 	0
scalar IntersectionExampleScenario.node[7].nic.mac1609_4 	totalBusyTime 	0
scalar IntersectionExampleScenario.node[7].veinsmobility 	startTime 	21.5
scalar IntersectionExampleScenario.node[7].veinsmobility 	totalTime 	61.5
scalar IntersectionExampleScenario.node[7].veinsmobility 	stopTime 	83.25
scalar IntersectionExampleScenario.node[7].veinsmobility 	minSpeed 	0
scalar IntersectionExampleScenario.node[7].veinsmobility 	maxSpeed 	14.461550712585
scalar IntersectionExampleScenario.node[7].veinsmobility 	totalDistance 	572.49573067651
scalar IntersectionExampleScenario.node[7].veinsmobility 	totalCO2Emission 	148.44132267412
scalar IntersectionExampleScenario.node[10].appl 	VehicleRemoved 	0
scalar IntersectionExampleScenario.node[10].appl 	ArrivedAtDest 	1
scalar IntersectionExampleScenario.node[10].appl 	IntersectionEnterTime 	31.75
scalar IntersectionExampleScenario.node[10].appl 	IntersectionExitTime 	67.287261220015
scalar IntersectionExampleScenario.node[10].appl 	NumberOfCollisions 	0
scalar IntersectionExampleScenario.node[10].nic.phy80211p 	busyTime 	0
scalar IntersectionExampleScenario.node[10].nic.mac1609_4 	ReceivedUnicastPackets 	0
scalar IntersectionExampleScenario.node[10].nic.mac1609_4 	ReceivedBroadcasts 	0
scalar IntersectionExampleScenario.node[10].nic.mac1609_4 	SentPackets 	0
scalar IntersectionExampleScenario.node[10].nic.mac1609_4 	SNIRLostPackets 	0
scalar IntersectionExampleScenario.node[10].nic.mac1609_4 	RXTXLostPackets 	0
scalar IntersectionExampleScenario.node[10].nic.mac1609_4 	TotalLostPackets 	0
scalar IntersectionExampleScenario.node[10].nic.mac1609_4 	DroppedPacketsInMac 	0
scalar IntersectionExampleScenario.node[10].nic.mac1609_4 	TooLittleTime 	0
scalar IntersectionExampleScenario.node[10].nic.mac1609_4 	TimesIntoBackoff 	0
scalar IntersectionExampleScenario.node[10].nic.mac1609_4 	SlotsBackoff 	0
scalar IntersectionExampleScenario.node[10].nic.mac1609_4 	NumInternalContention 	0
scalar IntersectionExampleScenario.node[10].nic.mac1609_4 	totalBusyTime 	0
scalar IntersectionExampleScenario.node[10].veinsmobility 	startTime 	31.75
scalar IntersectionExampleScenario.node[10].veinsmobility 	totalTime 	52.25
scalar IntersectionExampleScenario.node[10].veinsmobility 	stopTime 	84.25
scalar IntersectionExampleScenario.node[10].veinsmobility 	minSpeed 	1.0804612636566
scalar IntersectionExampleScenario.node[10].veinsmobility 	maxSpeed 	15.681463241577
scalar IntersectionExampleScenario.node[10].veinsmobility 	totalDistance 	542.85189596805
scalar IntersectionExampleScenario.node[10].veinsmobility 	totalCO2Emission 	147.8747146356
scalar IntersectionExampleScenario.node[11].appl 	VehicleRemoved 	0
scalar IntersectionExampleScenario.node[11].appl 	ArrivedAtDest 	1
scalar IntersectionExampleScenario.node[11].appl 	IntersectionEnterTime 	35.25
scalar IntersectionExampleScenario.node[11].appl 	IntersectionExitTime 	69.511457077635
scalar IntersectionExampleScenario.node[11].appl 	NumberOfCollisions 	0
scalar IntersectionExampleScenario.node[11].nic.phy80211p 	busyTime 	0
scalar IntersectionExampleScenario.node[11].nic.mac1609_4 	ReceivedUnicastPackets 	0
scalar IntersectionExampleScenario.node[11].nic.mac1609_4 	ReceivedBroadcasts 	0
scalar IntersectionExampleScenario.node[11].nic.mac1609_4 	SentPackets 	0
scalar IntersectionExampleScenario.node[11].nic.mac1609_4 	SNIRLostPackets 	0
scalar IntersectionExampleScenario.node[11].nic.mac1609_4 	RXTXLostPackets 	0
scalar IntersectionExampleScenario.node[11].nic.mac1609_4 	TotalLostPackets 	0
scalar IntersectionExampleScenario.node[11].nic.mac1609_4 	DroppedPacketsInMac 	0
scalar IntersectionExampleScenario.node[11].nic.mac1609_4 	TooLittleTime 	0
scalar IntersectionExampleScenario.node[11].nic.mac1609_4 	TimesIntoBackoff 	0
scalar IntersectionExampleScenario.node[11].nic.mac1609_4 	SlotsBackoff 	0
scalar IntersectionExampleScenario.node[11].nic.mac1609_4 	NumInternalContention 	0
scalar IntersectionExampleScenario.node[11].nic.mac1609_4 	totalBusyTime 	0
scalar IntersectionExampleScenario.node[11].veinsmobility 	startTime 	35.25
scalar IntersectionExampleScenario.node[11].veinsmobility 	totalTime 	50.75
scalar IntersectionExampleScenario.node[11].veinsmobility 	stopTime 	86.25
scalar IntersectionExampleScenario.node[11].veinsmobility 	minSpeed 	0.86835098266602
scalar IntersectionExampleScenario.node[11].veinsmobility 	maxSpeed 	15.02499961853
scalar IntersectionExampleScenario.node[11].veinsmobility 	totalDistance 	563.99676513672
scalar IntersectionExampleScenario.node[11].veinsmobility 	totalCO2Emission 	139.19739369482
scalar IntersectionExampleScenario.node[13].appl 	VehicleRemoved 	0
scalar IntersectionExampleScenario.node[13].appl 	ArrivedAtDest 	1
scalar IntersectionExampleScenario.node[13].appl 	IntersectionEnterTime 	43
scalar IntersectionExampleScenario.node[13].appl 	IntersectionExitTime 	72.282301479427
scalar IntersectionExampleScenario.node[13].appl 	NumberOfCollisions 	0
scalar IntersectionExampleScenario.node[13].nic.phy80211p 	busyTime 	0
scalar IntersectionExampleScenario.node[13].nic.mac1609_4 	ReceivedUnicastPackets 	0
scalar IntersectionExampleScenario.node[13].nic.mac1609_4 	ReceivedBroadcasts 	0
scalar IntersectionExampleScenario.node[13].nic.mac1609_4 	SentPackets 	0
scalar IntersectionExampleScenario.node[13].nic.mac1609_4 	SNIRLostPackets 	0
scalar IntersectionExampleScenario.node[13].nic.mac1609_4 	RXTXLostPackets 	0
scalar IntersectionExampleScenario.node[13].nic.mac1609_4 	TotalLostPackets 	0
scalar IntersectionExampleScenario.node[13].nic.mac1609_4 	DroppedPacketsInMac 	0
scalar IntersectionExampleScenario.node[13].nic.mac1609_4 	TooLittleTime 	0
scalar IntersectionExampleScenario.node[13].nic.mac1609_4 	TimesIntoBackoff 	0
scalar IntersectionExampleScenario.node[13].nic.mac1609_4 	SlotsBackoff 	0
scalar IntersectionExampleScenario.node[13].nic.mac1609_4 	NumInternalContention 	0
scalar IntersectionExampleScenario.node[13].nic.mac1609_4 	totalBusyTime 	0
scalar IntersectionExampleScenario.node[13].veinsmobility 	startTime 	43
scalar IntersectionExampleScenario.node[13].veinsmobility 	totalTime 	45.75
scalar IntersectionExampleScenario.node[13].veinsmobility 	stopTime 	89
scalar IntersectionExampleScenario.node[13].veinsmobility 	minSpeed 	3.2801733016968
scalar IntersectionExampleScenario.node[13].veinsmobility 	maxSpeed 	15.875
scalar IntersectionExampleScenario.node[13].veinsmobility 	totalDistance 	546.19323195174
scalar IntersectionExampleScenario.node[13].veinsmobility 	totalCO2Emission 	136.85099349157
scalar IntersectionExampleScenario.node[12].appl 	VehicleRemoved 	0
scalar IntersectionExampleScenario.node[12].appl 	ArrivedAtDest 	1
scalar IntersectionExampleScenario.node[12].appl 	IntersectionEnterTime 	36.25
scalar IntersectionExampleScenario.node[12].appl 	IntersectionExitTime 	73.602859058767
scalar IntersectionExampleScenario.node[12].appl 	NumberOfCollisions 	0
scalar IntersectionExampleScenario.node[12].nic.phy80211p 	busyTime 	0
scalar IntersectionExampleScenario.node[12].nic.mac1609_4 	ReceivedUnicastPackets 	0
scalar IntersectionExampleScenario.node[12].nic.mac1609_4 	ReceivedBroadcasts 	0
scalar IntersectionExampleScenario.node[12].nic.mac1609_4 	SentPackets 	0
scalar IntersectionExampleScenario.node[12].nic.mac1609_4 	SNIRLostPackets 	0
scalar IntersectionExampleScenario.node[12].nic.mac1609_4 	RXTXLostPackets 	0
scalar IntersectionExampleScenario.node[12].nic.mac1609_4 	TotalLostPackets 	0
scalar IntersectionExampleScenario.node[12].nic.mac1609_4 	DroppedPacketsInMac 	0
scalar IntersectionExampleScenario.node[12].nic.mac1609_4 	TooLittleTime 	0
scalar IntersectionExampleScenario.node[12].nic.mac1609_4 	TimesIntoBackoff 	0
scalar IntersectionExampleScenario.node[12].nic.mac1609_4 	SlotsBackoff 	0
scalar IntersectionExampleScenario.node[12].nic.mac1609_4 	NumInternalContention 	0
scalar IntersectionExampleScenario.node[12].nic.mac1609_4 	totalBusyTime 	0
scalar IntersectionExampleScenario.node[12].veinsmobility 	startTime 	36.25
scalar IntersectionExampleScenario.node[12].veinsmobility 	totalTime 	54.5
scalar IntersectionExampleScenario.node[12].veinsmobility 	stopTime 	91
scalar IntersectionExampleScenario.node[12].veinsmobility 	minSpeed 	0
scalar IntersectionExampleScenario.node[12].veinsmobility 	maxSpeed 	15.25
scalar IntersectionExampleScenario.node[12].veinsmobility 	totalDistance 	544.91891385466
scalar IntersectionExampleScenario.node[12].veinsmobility 	totalCO2Emission 	142.1604424346
scalar IntersectionExampleScenario.node[15].appl 	VehicleRemoved 	0
scalar IntersectionExampleScenario.node[15].appl 	ArrivedAtDest 	1
scalar IntersectionExampleScenario.node[15].appl 	IntersectionEnterTime 	55.75
scalar IntersectionExampleScenario.node[15].appl 	IntersectionExitTime 	79.263160154282
scalar IntersectionExampleScenario.node[15].appl 	NumberOfCollisions 	0
scalar IntersectionExampleScenario.node[15].nic.phy80211p 	busyTime 	0
scalar IntersectionExampleScenario.node[15].nic.mac1609_4 	ReceivedUnicastPackets 	0
scalar IntersectionExampleScenario.node[15].nic.mac1609_4 	ReceivedBroadcasts 	0
scalar IntersectionExampleScenario.node[15].nic.mac1609_4 	SentPackets 	0
scalar IntersectionExampleScenario.node[15].nic.mac1609_4 	SNIRLostPackets 	0
scalar IntersectionExampleScenario.node[15].nic.mac1609_4 	RXTXLostPackets 	0
scalar IntersectionExampleScenario.node[15].nic.mac1609_4 	TotalLostPackets 	0
scalar IntersectionExampleScenario.node[15].nic.mac1609_4 	DroppedPacketsInMac 	0
scalar IntersectionExampleScenario.node[15].nic.mac1609_4 	TooLittleTime 	0
scalar IntersectionExampleScenario.node[15].nic.mac1609_4 	TimesIntoBackoff 	0
scalar IntersectionExampleScenario.node[15].nic.mac1609_4 	SlotsBackoff 	0
scalar IntersectionExampleScenario.node[15].nic.mac1609_4 	NumInternalContention 	0
scalar IntersectionExampleScenario.node[15].nic.mac1609_4 	totalBusyTime 	0
scalar IntersectionExampleScenario.node[15].veinsmobility 	startTime 	55.75
scalar IntersectionExampleScenario.node[15].veinsmobility 	totalTime 	40.25
scalar IntersectionExampleScenario.node[15].veinsmobility 	stopTime 	96.25
scalar IntersectionExampleScenario.node[15].veinsmobility 	minSpeed 	5.6500000953674
scalar IntersectionExampleScenario.node[15].veinsmobility 	maxSpeed 	15.02499961853
scalar IntersectionExampleScenario.node[15].veinsmobility 	totalDistance 	553.96390533447
scalar IntersectionExampleScenario.node[15].veinsmobility 	totalCO2Emission 	113.82136980933
scalar IntersectionExampleScenario.node[17].appl 	VehicleRemoved 	0
scalar IntersectionExampleScenario.node[17].appl 	ArrivedAtDest 	1
scalar IntersectionExampleScenario.node[17].appl 	IntersectionEnterTime 	63.5
scalar IntersectionExampleScenario.node[17].appl 	IntersectionExitTime 	87.008048382675
scalar IntersectionExampleScenario.node[17].appl 	NumberOfCollisions 	0
scalar IntersectionExampleScenario.node[17].nic.phy80211p 	busyTime 	0
scalar IntersectionExampleScenario.node[17].nic.mac1609_4 	ReceivedUnicastPackets 	0
scalar IntersectionExampleScenario.node[17].nic.mac1609_4 	ReceivedBroadcasts 	0
scalar IntersectionExampleScenario.node[17].nic.mac1609_4 	SentPackets 	0
scalar IntersectionExampleScenario.node[17].nic.mac1609_4 	SNIRLostPackets 	0
scalar IntersectionExampleScenario.node[17].nic.mac1609_4 	RXTXLostPackets 	0
scalar IntersectionExampleScenario.node[17].nic.mac1609_4 	TotalLostPackets 	0
scalar IntersectionExampleScenario.node[17].nic.mac1609_4 	DroppedPacketsInMac 	0
scalar IntersectionExampleScenario.node[17].nic.mac1609_4 	TooLittleTime 	0
scalar IntersectionExampleScenario.node[17].nic.mac1609_4 	TimesIntoBackoff 	0
scalar IntersectionExampleScenario.node[17].nic.mac1609_4 	SlotsBackoff 	0
scalar IntersectionExampleScenario.node[17].nic.mac1609_4 	NumInternalContention 	0
scalar IntersectionExampleScenario.node[17].nic.mac1609_4 	totalBusyTime 	0
scalar IntersectionExampleScenario.node[17].veinsmobility 	startTime 	63.5
scalar IntersectionExampleScenario.node[17].veinsmobility 	totalTime 	40
scalar IntersectionExampleScenario.node[17].veinsmobility 	stopTime 	103.75
scalar IntersectionExampleScenario.node[17].veinsmobility 	minSpeed 	5.6500000953674
scalar IntersectionExampleScenario.node[17].veinsmobility 	maxSpeed 	15.375
scalar IntersectionExampleScenario.node[17].veinsmobility 	totalDistance 	550.34830487497
scalar IntersectionExampleScenario.node[17].veinsmobility 	totalCO2Emission 	121.11181003779
scalar IntersectionExampleScenario.node[14].appl 	VehicleRemoved 	0
scalar IntersectionExampleScenario.node[14].appl 	ArrivedAtDest 	1
scalar IntersectionExampleScenario.node[14].appl 	IntersectionEnterTime 	54.5
scalar IntersectionExampleScenario.node[14].appl 	IntersectionExitTime 	96.301225133939
scalar IntersectionExampleScenario.node[14].appl 	NumberOfCollisions 	0
scalar IntersectionExampleScenario.node[14].nic.phy80211p 	busyTime 	0
scalar IntersectionExampleScenario.node[14].nic.mac1609_4 	ReceivedUnicastPackets 	0
scalar IntersectionExampleScenario.node[14].nic.mac1609_4 	ReceivedBroadcasts 	0
scalar IntersectionExampleScenario.node[14].nic.mac1609_4 	SentPackets 	0
scalar IntersectionExampleScenario.node[14].nic.mac1609_4 	SNIRLostPackets 	0
scalar IntersectionExampleScenario.node[14].nic.mac1609_4 	RXTXLostPackets 	0
scalar IntersectionExampleScenario.node[14].nic.mac1609_4 	TotalLostPackets 	0
scalar IntersectionExampleScenario.node[14].nic.mac1609_4 	DroppedPacketsInMac 	0
scalar IntersectionExampleScenario.node[14].nic.mac1609_4 	TooLittleTime 	0
scalar IntersectionExampleScenario.node[14].nic.mac1609_4 	TimesIntoBackoff 	0
scalar IntersectionExampleScenario.node[14].nic.mac1609_4 	SlotsBackoff 	0
scalar IntersectionExampleScenario.node[14].nic.mac1609_4 	NumInternalContention 	0
scalar IntersectionExampleScenario.node[14].nic.mac1609_4 	totalBusyTime 	0
scalar IntersectionExampleScenario.node[14].veinsmobility 	startTime 	54.5
scalar IntersectionExampleScenario.node[14].veinsmobility 	totalTime 	57.5
scalar IntersectionExampleScenario.node[14].veinsmobility 	stopTime 	112.25
scalar IntersectionExampleScenario.node[14].veinsmobility 	minSpeed 	0
scalar IntersectionExampleScenario.node[14].veinsmobility 	maxSpeed 	16
scalar IntersectionExampleScenario.node[14].veinsmobility 	totalDistance 	550.96620287051
scalar IntersectionExampleScenario.node[14].veinsmobility 	totalCO2Emission 	154.61862715818
scalar IntersectionExampleScenario.node[16].appl 	VehicleRemoved 	0
scalar IntersectionExampleScenario.node[16].appl 	ArrivedAtDest 	1
scalar IntersectionExampleScenario.node[16].appl 	IntersectionEnterTime 	63
scalar IntersectionExampleScenario.node[16].appl 	IntersectionExitTime 	98.325714414328
scalar IntersectionExampleScenario.node[16].appl 	NumberOfCollisions 	0
scalar IntersectionExampleScenario.node[16].nic.phy80211p 	busyTime 	0
scalar IntersectionExampleScenario.node[16].nic.mac1609_4 	ReceivedUnicastPackets 	0
scalar IntersectionExampleScenario.node[16].nic.mac1609_4 	ReceivedBroadcasts 	0
scalar IntersectionExampleScenario.node[16].nic.mac1609_4 	SentPackets 	0
scalar IntersectionExampleScenario.node[16].nic.mac1609_4 	SNIRLostPackets 	0
scalar IntersectionExampleScenario.node[16].nic.mac1609_4 	RXTXLostPackets 	0
scalar IntersectionExampleScenario.node[16].nic.mac1609_4 	TotalLostPackets 	0
scalar IntersectionExampleScenario.node[16].nic.mac1609_4 	DroppedPacketsInMac 	0
scalar IntersectionExampleScenario.node[16].nic.mac1609_4 	TooLittleTime 	0
scalar IntersectionExampleScenario.node[16].nic.mac1609_4 	TimesIntoBackoff 	0
scalar IntersectionExampleScenario.node[16].nic.mac1609_4 	SlotsBackoff 	0
scalar IntersectionExampleScenario.node[16].nic.mac1609_4 	NumInternalContention 	0
scalar IntersectionExampleScenario.node[16].nic.mac1609_4 	totalBusyTime 	0
scalar IntersectionExampleScenario.node[16].veinsmobility 	startTime 	63
scalar IntersectionExampleScenario.node[16].veinsmobility 	totalTime 	51.25
scalar IntersectionExampleScenario.node[16].veinsmobility 	stopTime 	114.5
scalar IntersectionExampleScenario.node[16].veinsmobility 	minSpeed 	0
scalar IntersectionExampleScenario.node[16].veinsmobility 	maxSpeed 	16
scalar IntersectionExampleScenario.node[16].veinsmobility 	totalDistance 	550.36393134538
scalar IntersectionExampleScenario.node[16].veinsmobility 	totalCO2Emission 	142.56668641177
scalar IntersectionExampleScenario.node[18].appl 	VehicleRemoved 	0
scalar IntersectionExampleScenario.node[18].appl 	ArrivedAtDest 	1
scalar IntersectionExampleScenario.node[18].appl 	IntersectionEnterTime 	78
scalar IntersectionExampleScenario.node[18].appl 	IntersectionExitTime 	101.84506982943
scalar IntersectionExampleScenario.node[18].appl 	NumberOfCollisions 	0
scalar IntersectionExampleScenario.node[18].nic.phy80211p 	busyTime 	0
scalar IntersectionExampleScenario.node[18].nic.mac1609_4 	ReceivedUnicastPackets 	0
scalar IntersectionExampleScenario.node[18].nic.mac1609_4 	ReceivedBroadcasts 	0
scalar IntersectionExampleScenario.node[18].nic.mac1609_4 	SentPackets 	0
scalar IntersectionExampleScenario.node[18].nic.mac1609_4 	SNIRLostPackets 	0
scalar IntersectionExampleScenario.node[18].nic.mac1609_4 	RXTXLostPackets 	0
scalar IntersectionExampleScenario.node[18].nic.mac1609_4 	TotalLostPackets 	0
scalar IntersectionExampleScenario.node[18].nic.mac1609_4 	DroppedPacketsInMac 	0
scalar IntersectionExampleScenario.node[18].nic.mac1609_4 	TooLittleTime 	0
scalar IntersectionExampleScenario.node[18].nic.mac1609_4 	TimesIntoBackoff 	0
scalar IntersectionExampleScenario.node[18].nic.mac1609_4 	SlotsBackoff 	0
scalar IntersectionExampleScenario.node[18].nic.mac1609_4 	NumInternalContention 	0
scalar IntersectionExampleScenario.node[18].nic.mac1609_4 	totalBusyTime 	0
scalar IntersectionExampleScenario.node[18].veinsmobility 	startTime 	78
scalar IntersectionExampleScenario.node[18].veinsmobility 	totalTime 	40.75
scalar IntersectionExampleScenario.node[18].veinsmobility 	stopTime 	119
scalar IntersectionExampleScenario.node[18].veinsmobility 	minSpeed 	5.6500000953674
scalar IntersectionExampleScenario.node[18].veinsmobility 	maxSpeed 	15.02499961853
scalar IntersectionExampleScenario.node[18].veinsmobility 	totalDistance 	551.52659636973
scalar IntersectionExampleScenario.node[18].veinsmobility 	totalCO2Emission 	119.13159063582
scalar IntersectionExampleScenario.node[19].appl 	VehicleRemoved 	0
scalar IntersectionExampleScenario.node[19].appl 	ArrivedAtDest 	1
scalar IntersectionExampleScenario.node[19].appl 	IntersectionEnterTime 	82.5
scalar IntersectionExampleScenario.node[19].appl 	IntersectionExitTime 	105.57604794446
scalar IntersectionExampleScenario.node[19].appl 	NumberOfCollisions 	0
scalar IntersectionExampleScenario.node[19].nic.phy80211p 	busyTime 	0
scalar IntersectionExampleScenario.node[19].nic.mac1609_4 	ReceivedUnicastPackets 	0
scalar IntersectionExampleScenario.node[19].nic.mac1609_4 	ReceivedBroadcasts 	0
scalar IntersectionExampleScenario.node[19].nic.mac1609_4 	SentPackets 	0
scalar IntersectionExampleScenario.node[19].nic.mac1609_4 	SNIRLostPackets 	0
scalar IntersectionExampleScenario.node[19].nic.mac1609_4 	RXTXLostPackets 	0
scalar IntersectionExampleScenario.node[19].nic.mac1609_4 	TotalLostPackets 	0
scalar IntersectionExampleScenario.node[19].nic.mac1609_4 	DroppedPacketsInMac 	0
scalar IntersectionExampleScenario.node[19].nic.mac1609_4 	TooLittleTime 	0
scalar IntersectionExampleScenario.node[19].nic.mac1609_4 	TimesIntoBackoff 	0
scalar IntersectionExampleScenario.node[19].nic.mac1609_4 	SlotsBackoff 	0
scalar IntersectionExampleScenario.node[19].nic.mac1609_4 	NumInternalContention 	0
scalar IntersectionExampleScenario.node[19].nic.mac1609_4 	totalBusyTime 	0
scalar IntersectionExampleScenario.node[19].veinsmobility 	startTime 	82.5
scalar IntersectionExampleScenario.node[19].veinsmobility 	totalTime 	39.5
scalar IntersectionExampleScenario.node[19].veinsmobility 	stopTime 	122.25
scalar IntersectionExampleScenario.node[19].veinsmobility 	minSpeed 	5.6500000953674
scalar IntersectionExampleScenario.node[19].veinsmobility 	maxSpeed 	15.802514076233
scalar IntersectionExampleScenario.node[19].veinsmobility 	totalDistance 	544.88025130787
scalar IntersectionExampleScenario.node[19].veinsmobility 	totalCO2Emission 	128.8273638995
scalar IntersectionExampleScenario.node[22].appl 	VehicleRemoved 	0
scalar IntersectionExampleScenario.node[22].appl 	ArrivedAtDest 	1
scalar IntersectionExampleScenario.node[22].appl 	IntersectionEnterTime 	89.75
scalar IntersectionExampleScenario.node[22].appl 	IntersectionExitTime 	112.34014404667
scalar IntersectionExampleScenario.node[22].appl 	NumberOfCollisions 	0
scalar IntersectionExampleScenario.node[22].nic.phy80211p 	busyTime 	0
scalar IntersectionExampleScenario.node[22].nic.mac1609_4 	ReceivedUnicastPackets 	0
scalar IntersectionExampleScenario.node[22].nic.mac1609_4 	ReceivedBroadcasts 	0
scalar IntersectionExampleScenario.node[22].nic.mac1609_4 	SentPackets 	0
scalar IntersectionExampleScenario.node[22].nic.mac1609_4 	SNIRLostPackets 	0
scalar IntersectionExampleScenario.node[22].nic.mac1609_4 	RXTXLostPackets 	0
scalar IntersectionExampleScenario.node[22].nic.mac1609_4 	TotalLostPackets 	0
scalar IntersectionExampleScenario.node[22].nic.mac1609_4 	DroppedPacketsInMac 	0
scalar IntersectionExampleScenario.node[22].nic.mac1609_4 	TooLittleTime 	0
scalar IntersectionExampleScenario.node[22].nic.mac1609_4 	TimesIntoBackoff 	0
scalar IntersectionExampleScenario.node[22].nic.mac1609_4 	SlotsBackoff 	0
scalar IntersectionExampleScenario.node[22].nic.mac1609_4 	NumInternalContention 	0
scalar IntersectionExampleScenario.node[22].nic.mac1609_4 	totalBusyTime 	0
scalar IntersectionExampleScenario.node[22].veinsmobility 	startTime 	89.75
scalar IntersectionExampleScenario.node[22].veinsmobility 	totalTime 	38.25
scalar IntersectionExampleScenario.node[22].veinsmobility 	stopTime 	128.25
scalar IntersectionExampleScenario.node[22].veinsmobility 	minSpeed 	5.6500000953674
scalar IntersectionExampleScenario.node[22].veinsmobility 	maxSpeed 	16.27499961853
scalar IntersectionExampleScenario.node[22].veinsmobility 	totalDistance 	550.66821123556
scalar IntersectionExampleScenario.node[22].veinsmobility 	totalCO2Emission 	127.41359462882
scalar IntersectionExampleScenario.node[20].appl 	VehicleRemoved 	0
scalar IntersectionExampleScenario.node[20].appl 	ArrivedAtDest 	1
scalar IntersectionExampleScenario.node[20].appl 	IntersectionEnterTime 	86.75
scalar IntersectionExampleScenario.node[20].appl 	IntersectionExitTime 	120.27426351677
scalar IntersectionExampleScenario.node[20].appl 	NumberOfCollisions 	0
scalar IntersectionExampleScenario.node[20].nic.phy80211p 	busyTime 	0
scalar IntersectionExampleScenario.node[20].nic.mac1609_4 	ReceivedUnicastPackets 	0
scalar IntersectionExampleScenario.node[20].nic.mac1609_4 	ReceivedBroadcasts 	0
scalar IntersectionExampleScenario.node[20].nic.mac1609_4 	SentPackets 	0
scalar IntersectionExampleScenario.node[20].nic.mac1609_4 	SNIRLostPackets 	0
scalar IntersectionExampleScenario.node[20].nic.mac1609_4 	RXTXLostPackets 	0
scalar IntersectionExampleScenario.node[20].nic.mac1609_4 	TotalLostPackets 	0
scalar IntersectionExampleScenario.node[20].nic.mac1609_4 	DroppedPacketsInMac 	0
scalar IntersectionExampleScenario.node[20].nic.mac1609_4 	TooLittleTime 	0
scalar IntersectionExampleScenario.node[20].nic.mac1609_4 	TimesIntoBackoff 	0
scalar IntersectionExampleScenario.node[20].nic.mac1609_4 	SlotsBackoff 	0
scalar IntersectionExampleScenario.node[20].nic.mac1609_4 	NumInternalContention 	0
scalar IntersectionExampleScenario.node[20].nic.mac1609_4 	totalBusyTime 	0
scalar IntersectionExampleScenario.node[20].veinsmobility 	startTime 	86.75
scalar IntersectionExampleScenario.node[20].veinsmobility 	totalTime 	48.75
scalar IntersectionExampleScenario.node[20].veinsmobility 	stopTime 	135.75
scalar IntersectionExampleScenario.node[20].veinsmobility 	minSpeed 	0
scalar IntersectionExampleScenario.node[20].veinsmobility 	maxSpeed 	16.625
scalar IntersectionExampleScenario.node[20].veinsmobility 	totalDistance 	548.90238298526
scalar IntersectionExampleScenario.node[20].veinsmobility 	totalCO2Emission 	148.09257518115
scalar IntersectionExampleScenario.node[24].appl 	VehicleRemoved 	0
scalar IntersectionExampleScenario.node[24].appl 	ArrivedAtDest 	1
scalar IntersectionExampleScenario.node[24].appl 	IntersectionEnterTime 	102.75
scalar IntersectionExampleScenario.node[24].appl 	IntersectionExitTime 	125.33870612131
scalar IntersectionExampleScenario.node[24].appl 	NumberOfCollisions 	0
scalar IntersectionExampleScenario.node[24].nic.phy80211p 	busyTime 	0
scalar IntersectionExampleScenario.node[24].nic.mac1609_4 	ReceivedUnicastPackets 	0
scalar IntersectionExampleScenario.node[24].nic.mac1609_4 	ReceivedBroadcasts 	0
scalar IntersectionExampleScenario.node[24].nic.mac1609_4 	SentPackets 	0
scalar IntersectionExampleScenario.node[24].nic.mac1609_4 	SNIRLostPackets 	0
scalar IntersectionExampleScenario.node[24].nic.mac1609_4 	RXTXLostPackets 	0
scalar IntersectionExampleScenario.node[24].nic.mac1609_4 	TotalLostPackets 	0
scalar IntersectionExampleScenario.node[24].nic.mac1609_4 	DroppedPacketsInMac 	0
scalar IntersectionExampleScenario.node[24].nic.mac1609_4 	TooLittleTime 	0
scalar IntersectionExampleScenario.node[24].nic.mac1609_4 	TimesIntoBackoff 	0
scalar IntersectionExampleScenario.node[24].nic.mac1609_4 	SlotsBackoff 	0
scalar IntersectionExampleScenario.node[24].nic.mac1609_4 	NumInternalContention 	0
scalar IntersectionExampleScenario.node[24].nic.mac1609_4 	totalBusyTime 	0
scalar IntersectionExampleScenario.node[24].veinsmobility 	startTime 	102.75
scalar IntersectionExampleScenario.node[24].veinsmobility 	totalTime 	38.25
scalar IntersectionExampleScenario.node[24].veinsmobility 	stopTime 	141.25
scalar IntersectionExampleScenario.node[24].veinsmobility 	minSpeed 	5.6500000953674
scalar IntersectionExampleScenario.node[24].veinsmobility 	maxSpeed 	16.430812835693
scalar IntersectionExampleScenario.node[24].veinsmobility 	totalDistance 	550.96398700671
scalar IntersectionExampleScenario.node[24].veinsmobility 	totalCO2Emission 	132.86999901569
scalar IntersectionExampleScenario.node[21].appl 	VehicleRemoved 	0
scalar IntersectionExampleScenario.node[21].appl 	ArrivedAtDest 	1
scalar IntersectionExampleScenario.node[21].appl 	IntersectionEnterTime 	87.75
scalar IntersectionExampleScenario.node[21].appl 	IntersectionExitTime 	131.2714080523
scalar IntersectionExampleScenario.node[21].appl 	NumberOfCollisions 	0
scalar IntersectionExampleScenario.node[21].nic.phy80211p 	busyTime 	0
scalar IntersectionExampleScenario.node[21].nic.mac1609_4 	ReceivedUnicastPackets 	0
scalar IntersectionExampleScenario.node[21].nic.mac1609_4 	ReceivedBroadcasts 	0
scalar IntersectionExampleScenario.node[21].nic.mac1609_4 	SentPackets 	0
scalar IntersectionExampleScenario.node[21].nic.mac1609_4 	SNIRLostPackets 	0
scalar IntersectionExampleScenario.node[21].nic.mac1609_4 	RXTXLostPackets 	0
scalar IntersectionExampleScenario.node[21].nic.mac1609_4 	TotalLostPackets 	0
scalar IntersectionExampleScenario.node[21].nic.mac1609_4 	DroppedPacketsInMac 	0
scalar IntersectionExampleScenario.node[21].nic.mac1609_4 	TooLittleTime 	0
scalar IntersectionExampleScenario.node[21].nic.mac1609_4 	TimesIntoBackoff 	0
scalar IntersectionExampleScenario.node[21].nic.mac1609_4 	SlotsBackoff 	0
scalar IntersectionExampleScenario.node[21].nic.mac1609_4 	NumInternalContention 	0
scalar IntersectionExampleScenario.node[21].nic.mac1609_4 	totalBusyTime 	0
scalar IntersectionExampleScenario.node[21].veinsmobility 	startTime 	87.75
scalar IntersectionExampleScenario.node[21].veinsmobility 	totalTime 	59.25
scalar IntersectionExampleScenario.node[21].veinsmobility 	stopTime 	147.25
scalar IntersectionExampleScenario.node[21].veinsmobility 	minSpeed 	0
scalar IntersectionExampleScenario.node[21].veinsmobility 	maxSpeed 	16
scalar IntersectionExampleScenario.node[21].veinsmobility 	totalDistance 	553.7068862915
scalar IntersectionExampleScenario.node[21].veinsmobility 	totalCO2Emission 	154.55242804711
scalar IntersectionExampleScenario.node[26].appl 	VehicleRemoved 	0
scalar IntersectionExampleScenario.node[26].appl 	ArrivedAtDest 	1
scalar IntersectionExampleScenario.node[26].appl 	IntersectionEnterTime 	117
scalar IntersectionExampleScenario.node[26].appl 	IntersectionExitTime 	140.80012135804
scalar IntersectionExampleScenario.node[26].appl 	NumberOfCollisions 	0
scalar IntersectionExampleScenario.node[26].nic.phy80211p 	busyTime 	0
scalar IntersectionExampleScenario.node[26].nic.mac1609_4 	ReceivedUnicastPackets 	0
scalar IntersectionExampleScenario.node[26].nic.mac1609_4 	ReceivedBroadcasts 	0
scalar IntersectionExampleScenario.node[26].nic.mac1609_4 	SentPackets 	0
scalar IntersectionExampleScenario.node[26].nic.mac1609_4 	SNIRLostPackets 	0
scalar IntersectionExampleScenario.node[26].nic.mac1609_4 	RXTXLostPackets 	0
scalar IntersectionExampleScenario.node[26].nic.mac1609_4 	TotalLostPackets 	0
scalar IntersectionExampleScenario.node[26].nic.mac1609_4 	DroppedPacketsInMac 	0
scalar IntersectionExampleScenario.node[26].nic.mac1609_4 	TooLittleTime 	0
scalar IntersectionExampleScenario.node[26].nic.mac1609_4 	TimesIntoBackoff 	0
scalar IntersectionExampleScenario.node[26].nic.mac1609_4 	SlotsBackoff 	0
scalar IntersectionExampleScenario.node[26].nic.mac1609_4 	NumInternalContention 	0
scalar IntersectionExampleScenario.node[26].nic.mac1609_4 	totalBusyTime 	0
scalar IntersectionExampleScenario.node[26].veinsmobility 	startTime 	117
scalar IntersectionExampleScenario.node[26].veinsmobility 	totalTime 	40.75
scalar IntersectionExampleScenario.node[26].veinsmobility 	stopTime 	158
scalar IntersectionExampleScenario.node[26].veinsmobility 	minSpeed 	5.6500000953674
scalar IntersectionExampleScenario.node[26].veinsmobility 	maxSpeed 	15.25
scalar IntersectionExampleScenario.node[26].veinsmobility 	totalDistance 	545.97980973588
scalar IntersectionExampleScenario.node[26].veinsmobility 	totalCO2Emission 	124.9411878982
scalar IntersectionExampleScenario.node[23].appl 	VehicleRemoved 	0
scalar IntersectionExampleScenario.node[23].appl 	ArrivedAtDest 	1
scalar IntersectionExampleScenario.node[23].appl 	IntersectionEnterTime 	100
scalar IntersectionExampleScenario.node[23].appl 	IntersectionExitTime 	144.34242637263
scalar IntersectionExampleScenario.node[23].appl 	NumberOfCollisions 	0
scalar IntersectionExampleScenario.node[23].nic.phy80211p 	busyTime 	0
scalar IntersectionExampleScenario.node[23].nic.mac1609_4 	ReceivedUnicastPackets 	0
scalar IntersectionExampleScenario.node[23].nic.mac1609_4 	ReceivedBroadcasts 	0
scalar IntersectionExampleScenario.node[23].nic.mac1609_4 	SentPackets 	0
scalar IntersectionExampleScenario.node[23].nic.mac1609_4 	SNIRLostPackets 	0
scalar IntersectionExampleScenario.node[23].nic.mac1609_4 	RXTXLostPackets 	0
scalar IntersectionExampleScenario.node[23].nic.mac1609_4 	TotalLostPackets 	0
scalar IntersectionExampleScenario.node[23].nic.mac1609_4 	DroppedPacketsInMac 	0
scalar IntersectionExampleScenario.node[23].nic.mac1609_4 	TooLittleTime 	0
scalar IntersectionExampleScenario.node[23].nic.mac1609_4 	TimesIntoBackoff 	0
scalar IntersectionExampleScenario.node[23].nic.mac1609_4 	SlotsBackoff 	0
scalar IntersectionExampleScenario.node[23].nic.mac1609_4 	NumInternalContention 	0
scalar IntersectionExampleScenario.node[23].nic.mac1609_4 	totalBusyTime 	0
scalar IntersectionExampleScenario.node[23].veinsmobility 	startTime 	100
scalar IntersectionExampleScenario.node[23].veinsmobility 	totalTime 	61
scalar IntersectionExampleScenario.node[23].veinsmobility 	stopTime 	161.25
scalar IntersectionExampleScenario.node[23].veinsmobility 	minSpeed 	0
scalar IntersectionExampleScenario.node[23].veinsmobility 	maxSpeed 	15.02499961853
scalar IntersectionExampleScenario.node[23].veinsmobility 	totalDistance 	551.50496019473
scalar IntersectionExampleScenario.node[23].veinsmobility 	totalCO2Emission 	148.32311682839
scalar IntersectionExampleScenario.node[27].appl 	VehicleRemoved 	0
scalar IntersectionExampleScenario.node[27].appl 	ArrivedAtDest 	1
scalar IntersectionExampleScenario.node[27].appl 	IntersectionEnterTime 	117.25
scalar IntersectionExampleScenario.node[27].appl 	IntersectionExitTime 	146.81938291056
scalar IntersectionExampleScenario.node[27].appl 	NumberOfCollisions 	0
scalar IntersectionExampleScenario.node[27].nic.phy80211p 	busyTime 	0
scalar IntersectionExampleScenario.node[27].nic.mac1609_4 	ReceivedUnicastPackets 	0
scalar IntersectionExampleScenario.node[27].nic.mac1609_4 	ReceivedBroadcasts 	0
scalar IntersectionExampleScenario.node[27].nic.mac1609_4 	SentPackets 	0
scalar IntersectionExampleScenario.node[27].nic.mac1609_4 	SNIRLostPackets 	0
scalar IntersectionExampleScenario.node[27].nic.mac1609_4 	RXTXLostPackets 	0
scalar IntersectionExampleScenario.node[27].nic.mac1609_4 	TotalLostPackets 	0
scalar IntersectionExampleScenario.node[27].nic.mac1609_4 	DroppedPacketsInMac 	0
scalar IntersectionExampleScenario.node[27].nic.mac1609_4 	TooLittleTime 	0
scalar IntersectionExampleScenario.node[27].nic.mac1609_4 	TimesIntoBackoff 	0
scalar IntersectionExampleScenario.node[27].nic.mac1609_4 	SlotsBackoff 	0
scalar IntersectionExampleScenario.node[27].nic.mac1609_4 	NumInternalContention 	0
scalar IntersectionExampleScenario.node[27].nic.mac1609_4 	totalBusyTime 	0
scalar IntersectionExampleScenario.node[27].veinsmobility 	startTime 	117.25
scalar IntersectionExampleScenario.node[27].veinsmobility 	totalTime 	46
scalar IntersectionExampleScenario.node[27].veinsmobility 	stopTime 	163.5
scalar IntersectionExampleScenario.node[27].veinsmobility 	minSpeed 	3.7780063152313
scalar IntersectionExampleScenario.node[27].veinsmobility 	maxSpeed 	15.02499961853
scalar IntersectionExampleScenario.node[27].veinsmobility 	totalDistance 	549.97864994825
scalar IntersectionExampleScenario.node[27].veinsmobility 	totalCO2Emission 	131.79910869753
scalar IntersectionExampleScenario.node[25].appl 	VehicleRemoved 	0
scalar IntersectionExampleScenario.node[25].appl 	ArrivedAtDest 	1
scalar IntersectionExampleScenario.node[25].appl 	IntersectionEnterTime 	113
scalar IntersectionExampleScenario.node[25].appl 	IntersectionExitTime 	154.61740503827
scalar IntersectionExampleScenario.node[25].appl 	NumberOfCollisions 	0
scalar IntersectionExampleScenario.node[25].nic.phy80211p 	busyTime 	0
scalar IntersectionExampleScenario.node[25].nic.mac1609_4 	ReceivedUnicastPackets 	0
scalar IntersectionExampleScenario.node[25].nic.mac1609_4 	ReceivedBroadcasts 	0
scalar IntersectionExampleScenario.node[25].nic.mac1609_4 	SentPackets 	0
scalar IntersectionExampleScenario.node[25].nic.mac1609_4 	SNIRLostPackets 	0
scalar IntersectionExampleScenario.node[25].nic.mac1609_4 	RXTXLostPackets 	0
scalar IntersectionExampleScenario.node[25].nic.mac1609_4 	TotalLostPackets 	0
scalar IntersectionExampleScenario.node[25].nic.mac1609_4 	DroppedPacketsInMac 	0
scalar IntersectionExampleScenario.node[25].nic.mac1609_4 	TooLittleTime 	0
scalar IntersectionExampleScenario.node[25].nic.mac1609_4 	TimesIntoBackoff 	0
scalar IntersectionExampleScenario.node[25].nic.mac1609_4 	SlotsBackoff 	0
scalar IntersectionExampleScenario.node[25].nic.mac1609_4 	NumInternalContention 	0
scalar IntersectionExampleScenario.node[25].nic.mac1609_4 	totalBusyTime 	0
scalar IntersectionExampleScenario.node[25].veinsmobility 	startTime 	113
scalar IntersectionExampleScenario.node[25].veinsmobility 	totalTime 	57.5
scalar IntersectionExampleScenario.node[25].veinsmobility 	stopTime 	170.75
scalar IntersectionExampleScenario.node[25].veinsmobility 	minSpeed 	0
scalar IntersectionExampleScenario.node[25].veinsmobility 	maxSpeed 	16.5
scalar IntersectionExampleScenario.node[25].veinsmobility 	totalDistance 	545.89433957488
scalar IntersectionExampleScenario.node[25].veinsmobility 	totalCO2Emission 	157.69482831638
scalar IntersectionExampleScenario.node[29].appl 	VehicleRemoved 	0
scalar IntersectionExampleScenario.node[29].appl 	ArrivedAtDest 	1
scalar IntersectionExampleScenario.node[29].appl 	IntersectionEnterTime 	128.5
scalar IntersectionExampleScenario.node[29].appl 	IntersectionExitTime 	165.51388250856
scalar IntersectionExampleScenario.node[29].appl 	NumberOfCollisions 	0
scalar IntersectionExampleScenario.node[29].nic.phy80211p 	busyTime 	0
scalar IntersectionExampleScenario.node[29].nic.mac1609_4 	ReceivedUnicastPackets 	0
scalar IntersectionExampleScenario.node[29].nic.mac1609_4 	ReceivedBroadcasts 	0
scalar IntersectionExampleScenario.node[29].nic.mac1609_4 	SentPackets 	0
scalar IntersectionExampleScenario.node[29].nic.mac1609_4 	SNIRLostPackets 	0
scalar IntersectionExampleScenario.node[29].nic.mac1609_4 	RXTXLostPackets 	0
scalar IntersectionExampleScenario.node[29].nic.mac1609_4 	TotalLostPackets 	0
scalar IntersectionExampleScenario.node[29].nic.mac1609_4 	DroppedPacketsInMac 	0
scalar IntersectionExampleScenario.node[29].nic.mac1609_4 	TooLittleTime 	0
scalar IntersectionExampleScenario.node[29].nic.mac1609_4 	TimesIntoBackoff 	0
scalar IntersectionExampleScenario.node[29].nic.mac1609_4 	SlotsBackoff 	0
scalar IntersectionExampleScenario.node[29].nic.mac1609_4 	NumInternalContention 	0
scalar IntersectionExampleScenario.node[29].nic.mac1609_4 	totalBusyTime 	0
scalar IntersectionExampleScenario.node[29].veinsmobility 	startTime 	128.5
scalar IntersectionExampleScenario.node[29].veinsmobility 	totalTime 	53
scalar IntersectionExampleScenario.node[29].veinsmobility 	stopTime 	181.75
scalar IntersectionExampleScenario.node[29].veinsmobility 	minSpeed 	0
scalar IntersectionExampleScenario.node[29].veinsmobility 	maxSpeed 	16.5
scalar IntersectionExampleScenario.node[29].veinsmobility 	totalDistance 	542.59136105925
scalar IntersectionExampleScenario.node[29].veinsmobility 	totalCO2Emission 	150.77429020969
scalar IntersectionExampleScenario.node[28].appl 	VehicleRemoved 	0
scalar IntersectionExampleScenario.node[28].appl 	ArrivedAtDest 	1
scalar IntersectionExampleScenario.node[28].appl 	IntersectionEnterTime 	122.25
scalar IntersectionExampleScenario.node[28].appl 	IntersectionExitTime 	166.33838082675
scalar IntersectionExampleScenario.node[28].appl 	NumberOfCollisions 	0
scalar IntersectionExampleScenario.node[28].nic.phy80211p 	busyTime 	0
scalar IntersectionExampleScenario.node[28].nic.mac1609_4 	ReceivedUnicastPackets 	0
scalar IntersectionExampleScenario.node[28].nic.mac1609_4 	ReceivedBroadcasts 	0
scalar IntersectionExampleScenario.node[28].nic.mac1609_4 	SentPackets 	0
scalar IntersectionExampleScenario.node[28].nic.mac1609_4 	SNIRLostPackets 	0
scalar IntersectionExampleScenario.node[28].nic.mac1609_4 	RXTXLostPackets 	0
scalar IntersectionExampleScenario.node[28].nic.mac1609_4 	TotalLostPackets 	0
scalar IntersectionExampleScenario.node[28].nic.mac1609_4 	DroppedPacketsInMac 	0
scalar IntersectionExampleScenario.node[28].nic.mac1609_4 	TooLittleTime 	0
scalar IntersectionExampleScenario.node[28].nic.mac1609_4 	TimesIntoBackoff 	0
scalar IntersectionExampleScenario.node[28].nic.mac1609_4 	SlotsBackoff 	0
scalar IntersectionExampleScenario.node[28].nic.mac1609_4 	NumInternalContention 	0
scalar IntersectionExampleScenario.node[28].nic.mac1609_4 	totalBusyTime 	0
scalar IntersectionExampleScenario.node[28].veinsmobility 	startTime 	122.25
scalar IntersectionExampleScenario.node[28].veinsmobility 	totalTime 	60.75
scalar IntersectionExampleScenario.node[28].veinsmobility 	stopTime 	183.25
scalar IntersectionExampleScenario.node[28].veinsmobility 	minSpeed 	0
scalar IntersectionExampleScenario.node[28].veinsmobility 	maxSpeed 	15.02499961853
scalar IntersectionExampleScenario.node[28].veinsmobility 	totalDistance 	552.98831939697
scalar IntersectionExampleScenario.node[28].veinsmobility 	totalCO2Emission 	147.28170494632
scalar IntersectionExampleScenario.node[31].appl 	VehicleRemoved 	0
scalar IntersectionExampleScenario.node[31].appl 	ArrivedAtDest 	1
scalar IntersectionExampleScenario.node[31].appl 	IntersectionEnterTime 	140
scalar IntersectionExampleScenario.node[31].appl 	IntersectionExitTime 	168.01218879846
scalar IntersectionExampleScenario.node[31].appl 	NumberOfCollisions 	0
scalar IntersectionExampleScenario.node[31].nic.phy80211p 	busyTime 	0
scalar IntersectionExampleScenario.node[31].nic.mac1609_4 	ReceivedUnicastPackets 	0
scalar IntersectionExampleScenario.node[31].nic.mac1609_4 	ReceivedBroadcasts 	0
scalar IntersectionExampleScenario.node[31].nic.mac1609_4 	SentPackets 	0
scalar IntersectionExampleScenario.node[31].nic.mac1609_4 	SNIRLostPackets 	0
scalar IntersectionExampleScenario.node[31].nic.mac1609_4 	RXTXLostPackets 	0
scalar IntersectionExampleScenario.node[31].nic.mac1609_4 	TotalLostPackets 	0
scalar IntersectionExampleScenario.node[31].nic.mac1609_4 	DroppedPacketsInMac 	0
scalar IntersectionExampleScenario.node[31].nic.mac1609_4 	TooLittleTime 	0
scalar IntersectionExampleScenario.node[31].nic.mac1609_4 	TimesIntoBackoff 	0
scalar IntersectionExampleScenario.node[31].nic.mac1609_4 	SlotsBackoff 	0
scalar IntersectionExampleScenario.node[31].nic.mac1609_4 	NumInternalContention 	0
scalar IntersectionExampleScenario.node[31].nic.mac1609_4 	totalBusyTime 	0
scalar IntersectionExampleScenario.node[31].veinsmobility 	startTime 	140
scalar IntersectionExampleScenario.node[31].veinsmobility 	totalTime 	43.75
scalar IntersectionExampleScenario.node[31].veinsmobility 	stopTime 	184
scalar IntersectionExampleScenario.node[31].veinsmobility 	minSpeed 	3.8241403102875
scalar IntersectionExampleScenario.node[31].veinsmobility 	maxSpeed 	16.27499961853
scalar IntersectionExampleScenario.node[31].veinsmobility 	totalDistance 	551.41348221732
scalar IntersectionExampleScenario.node[31].veinsmobility 	totalCO2Emission 	139.12205064326
scalar IntersectionExampleScenario.node[30].appl 	VehicleRemoved 	0
scalar IntersectionExampleScenario.node[30].appl 	ArrivedAtDest 	1
scalar IntersectionExampleScenario.node[30].appl 	IntersectionEnterTime 	137.5
scalar IntersectionExampleScenario.node[30].appl 	IntersectionExitTime 	167.77497815905
scalar IntersectionExampleScenario.node[30].appl 	NumberOfCollisions 	0
scalar IntersectionExampleScenario.node[30].nic.phy80211p 	busyTime 	0
scalar IntersectionExampleScenario.node[30].nic.mac1609_4 	ReceivedUnicastPackets 	0
scalar IntersectionExampleScenario.node[30].nic.mac1609_4 	ReceivedBroadcasts 	0
scalar IntersectionExampleScenario.node[30].nic.mac1609_4 	SentPackets 	0
scalar IntersectionExampleScenario.node[30].nic.mac1609_4 	SNIRLostPackets 	0
scalar IntersectionExampleScenario.node[30].nic.mac1609_4 	RXTXLostPackets 	0
scalar IntersectionExampleScenario.node[30].nic.mac1609_4 	TotalLostPackets 	0
scalar IntersectionExampleScenario.node[30].nic.mac1609_4 	DroppedPacketsInMac 	0
scalar IntersectionExampleScenario.node[30].nic.mac1609_4 	TooLittleTime 	0
scalar IntersectionExampleScenario.node[30].nic.mac1609_4 	TimesIntoBackoff 	0
scalar IntersectionExampleScenario.node[30].nic.mac1609_4 	SlotsBackoff 	0
scalar IntersectionExampleScenario.node[30].nic.mac1609_4 	NumInternalContention 	0
scalar IntersectionExampleScenario.node[30].nic.mac1609_4 	totalBusyTime 	0
scalar IntersectionExampleScenario.node[30].veinsmobility 	startTime 	137.5
scalar IntersectionExampleScenario.node[30].veinsmobility 	totalTime 	47
scalar IntersectionExampleScenario.node[30].veinsmobility 	stopTime 	184.75
scalar IntersectionExampleScenario.node[30].veinsmobility 	minSpeed 	2.7720093727112
scalar IntersectionExampleScenario.node[30].veinsmobility 	maxSpeed 	15.02499961853
scalar IntersectionExampleScenario.node[30].veinsmobility 	totalDistance 	549.83897058129
scalar IntersectionExampleScenario.node[30].veinsmobility 	totalCO2Emission 	130.96989902746
scalar IntersectionExampleScenario.node[32].appl 	VehicleRemoved 	0
scalar IntersectionExampleScenario.node[32].appl 	ArrivedAtDest 	1
scalar IntersectionExampleScenario.node[32].appl 	IntersectionEnterTime 	149.5
scalar IntersectionExampleScenario.node[32].appl 	IntersectionExitTime 	190.32091797653
scalar IntersectionExampleScenario.node[32].appl 	NumberOfCollisions 	0
scalar IntersectionExampleScenario.node[32].nic.phy80211p 	busyTime 	0
scalar IntersectionExampleScenario.node[32].nic.mac1609_4 	ReceivedUnicastPackets 	0
scalar IntersectionExampleScenario.node[32].nic.mac1609_4 	ReceivedBroadcasts 	0
scalar IntersectionExampleScenario.node[32].nic.mac1609_4 	SentPackets 	0
scalar IntersectionExampleScenario.node[32].nic.mac1609_4 	SNIRLostPackets 	0
scalar IntersectionExampleScenario.node[32].nic.mac1609_4 	RXTXLostPackets 	0
scalar IntersectionExampleScenario.node[32].nic.mac1609_4 	TotalLostPackets 	0
scalar IntersectionExampleScenario.node[32].nic.mac1609_4 	DroppedPacketsInMac 	0
scalar IntersectionExampleScenario.node[32].nic.mac1609_4 	TooLittleTime 	0
scalar IntersectionExampleScenario.node[32].nic.mac1609_4 	TimesIntoBackoff 	0
scalar IntersectionExampleScenario.node[32].nic.mac1609_4 	SlotsBackoff 	0
scalar IntersectionExampleScenario.node[32].nic.mac1609_4 	NumInternalContention 	0
scalar IntersectionExampleScenario.node[32].nic.mac1609_4 	totalBusyTime 	0
scalar IntersectionExampleScenario.node[32].veinsmobility 	startTime 	149.5
scalar IntersectionExampleScenario.node[32].veinsmobility 	totalTime 	56.75
scalar IntersectionExampleScenario.node[32].veinsmobility 	stopTime 	206.5
scalar IntersectionExampleScenario.node[32].veinsmobility 	minSpeed 	0
scalar IntersectionExampleScenario.node[32].veinsmobility 	maxSpeed 	15.64999961853
scalar IntersectionExampleScenario.node[32].veinsmobility 	totalDistance 	550.51133073916
scalar IntersectionExampleScenario.node[32].veinsmobility 	totalCO2Emission 	149.60271213873
scalar IntersectionExampleScenario.node[33].appl 	VehicleRemoved 	0
scalar IntersectionExampleScenario.node[33].appl 	ArrivedAtDest 	1
scalar IntersectionExampleScenario.node[33].appl 	IntersectionEnterTime 	155.25
scalar IntersectionExampleScenario.node[33].appl 	IntersectionExitTime 	200.5196619216
scalar IntersectionExampleScenario.node[33].appl 	NumberOfCollisions 	0
scalar IntersectionExampleScenario.node[33].nic.phy80211p 	busyTime 	0
scalar IntersectionExampleScenario.node[33].nic.mac1609_4 	ReceivedUnicastPackets 	0
scalar IntersectionExampleScenario.node[33].nic.mac1609_4 	ReceivedBroadcasts 	0
scalar IntersectionExampleScenario.node[33].nic.mac1609_4 	SentPackets 	0
scalar IntersectionExampleScenario.node[33].nic.mac1609_4 	SNIRLostPackets 	0
scalar IntersectionExampleScenario.node[33].nic.mac1609_4 	RXTXLostPackets 	0
scalar IntersectionExampleScenario.node[33].nic.mac1609_4 	TotalLostPackets 	0
scalar IntersectionExampleScenario.node[33].nic.mac1609_4 	DroppedPacketsInMac 	0
scalar IntersectionExampleScenario.node[33].nic.mac1609_4 	TooLittleTime 	0
scalar IntersectionExampleScenario.node[33].nic.mac1609_4 	TimesIntoBackoff 	0
scalar IntersectionExampleScenario.node[33].nic.mac1609_4 	SlotsBackoff 	0
scalar IntersectionExampleScenario.node[33].nic.mac1609_4 	NumInternalContention 	0
scalar IntersectionExampleScenario.node[33].nic.mac1609_4 	totalBusyTime 	0
scalar IntersectionExampleScenario.node[33].veinsmobility 	startTime 	155.25
scalar IntersectionExampleScenario.node[33].veinsmobility 	totalTime 	61.75
scalar IntersectionExampleScenario.node[33].veinsmobility 	stopTime 	217.25
scalar IntersectionExampleScenario.node[33].veinsmobility 	minSpeed 	0
scalar IntersectionExampleScenario.node[33].veinsmobility 	maxSpeed 	15.875
scalar IntersectionExampleScenario.node[33].veinsmobility 	totalDistance 	545.84709836394
scalar IntersectionExampleScenario.node[33].veinsmobility 	totalCO2Emission 	157.19010938529
scalar IntersectionExampleScenario.node[37].appl 	VehicleRemoved 	0
scalar IntersectionExampleScenario.node[37].appl 	ArrivedAtDest 	1
scalar IntersectionExampleScenario.node[37].appl 	IntersectionEnterTime 	174.75
scalar IntersectionExampleScenario.node[37].appl 	IntersectionExitTime 	203.5089268584
scalar IntersectionExampleScenario.node[37].appl 	NumberOfCollisions 	0
scalar IntersectionExampleScenario.node[37].nic.phy80211p 	busyTime 	0
scalar IntersectionExampleScenario.node[37].nic.mac1609_4 	ReceivedUnicastPackets 	0
scalar IntersectionExampleScenario.node[37].nic.mac1609_4 	ReceivedBroadcasts 	0
scalar IntersectionExampleScenario.node[37].nic.mac1609_4 	SentPackets 	0
scalar IntersectionExampleScenario.node[37].nic.mac1609_4 	SNIRLostPackets 	0
scalar IntersectionExampleScenario.node[37].nic.mac1609_4 	RXTXLostPackets 	0
scalar IntersectionExampleScenario.node[37].nic.mac1609_4 	TotalLostPackets 	0
scalar IntersectionExampleScenario.node[37].nic.mac1609_4 	DroppedPacketsInMac 	0
scalar IntersectionExampleScenario.node[37].nic.mac1609_4 	TooLittleTime 	0
scalar IntersectionExampleScenario.node[37].nic.mac1609_4 	TimesIntoBackoff 	0
scalar IntersectionExampleScenario.node[37].nic.mac1609_4 	SlotsBackoff 	0
scalar IntersectionExampleScenario.node[37].nic.mac1609_4 	NumInternalContention 	0
scalar IntersectionExampleScenario.node[37].nic.mac1609_4 	totalBusyTime 	0
scalar IntersectionExampleScenario.node[37].veinsmobility 	startTime 	174.75
scalar IntersectionExampleScenario.node[37].veinsmobility 	totalTime 	44
scalar IntersectionExampleScenario.node[37].veinsmobility 	stopTime 	219
scalar IntersectionExampleScenario.node[37].veinsmobility 	minSpeed 	1.750757932663
scalar IntersectionExampleScenario.node[37].veinsmobility 	maxSpeed 	16.125
scalar IntersectionExampleScenario.node[37].veinsmobility 	totalDistance 	551.60129547119
scalar IntersectionExampleScenario.node[37].veinsmobility 	totalCO2Emission 	139.75926512076
scalar IntersectionExampleScenario.node[35].appl 	VehicleRemoved 	0
scalar IntersectionExampleScenario.node[35].appl 	ArrivedAtDest 	1
scalar IntersectionExampleScenario.node[35].appl 	IntersectionEnterTime 	169.5
scalar IntersectionExampleScenario.node[35].appl 	IntersectionExitTime 	203.05186501061
scalar IntersectionExampleScenario.node[35].appl 	NumberOfCollisions 	0
scalar IntersectionExampleScenario.node[35].nic.phy80211p 	busyTime 	0
scalar IntersectionExampleScenario.node[35].nic.mac1609_4 	ReceivedUnicastPackets 	0
scalar IntersectionExampleScenario.node[35].nic.mac1609_4 	ReceivedBroadcasts 	0
scalar IntersectionExampleScenario.node[35].nic.mac1609_4 	SentPackets 	0
scalar IntersectionExampleScenario.node[35].nic.mac1609_4 	SNIRLostPackets 	0
scalar IntersectionExampleScenario.node[35].nic.mac1609_4 	RXTXLostPackets 	0
scalar IntersectionExampleScenario.node[35].nic.mac1609_4 	TotalLostPackets 	0
scalar IntersectionExampleScenario.node[35].nic.mac1609_4 	DroppedPacketsInMac 	0
scalar IntersectionExampleScenario.node[35].nic.mac1609_4 	TooLittleTime 	0
scalar IntersectionExampleScenario.node[35].nic.mac1609_4 	TimesIntoBackoff 	0
scalar IntersectionExampleScenario.node[35].nic.mac1609_4 	SlotsBackoff 	0
scalar IntersectionExampleScenario.node[35].nic.mac1609_4 	NumInternalContention 	0
scalar IntersectionExampleScenario.node[35].nic.mac1609_4 	totalBusyTime 	0
scalar IntersectionExampleScenario.node[35].veinsmobility 	startTime 	169.5
scalar IntersectionExampleScenario.node[35].veinsmobility 	totalTime 	49.75
scalar IntersectionExampleScenario.node[35].veinsmobility 	stopTime 	219.5
scalar IntersectionExampleScenario.node[35].veinsmobility 	minSpeed 	0
scalar IntersectionExampleScenario.node[35].veinsmobility 	maxSpeed 	15.64999961853
scalar IntersectionExampleScenario.node[35].veinsmobility 	totalDistance 	549.08295375563
scalar IntersectionExampleScenario.node[35].veinsmobility 	totalCO2Emission 	142.47438688025
scalar IntersectionExampleScenario.node[34].appl 	VehicleRemoved 	0
scalar IntersectionExampleScenario.node[34].appl 	ArrivedAtDest 	1
scalar IntersectionExampleScenario.node[34].appl 	IntersectionEnterTime 	156.25
scalar IntersectionExampleScenario.node[34].appl 	IntersectionExitTime 	205.25963716614
scalar IntersectionExampleScenario.node[34].appl 	NumberOfCollisions 	0
scalar IntersectionExampleScenario.node[34].nic.phy80211p 	busyTime 	0
scalar IntersectionExampleScenario.node[34].nic.mac1609_4 	ReceivedUnicastPackets 	0
scalar IntersectionExampleScenario.node[34].nic.mac1609_4 	ReceivedBroadcasts 	0
scalar IntersectionExampleScenario.node[34].nic.mac1609_4 	SentPackets 	0
scalar IntersectionExampleScenario.node[34].nic.mac1609_4 	SNIRLostPackets 	0
scalar IntersectionExampleScenario.node[34].nic.mac1609_4 	RXTXLostPackets 	0
scalar IntersectionExampleScenario.node[34].nic.mac1609_4 	TotalLostPackets 	0
scalar IntersectionExampleScenario.node[34].nic.mac1609_4 	DroppedPacketsInMac 	0
scalar IntersectionExampleScenario.node[34].nic.mac1609_4 	TooLittleTime 	0
scalar IntersectionExampleScenario.node[34].nic.mac1609_4 	TimesIntoBackoff 	0
scalar IntersectionExampleScenario.node[34].nic.mac1609_4 	SlotsBackoff 	0
scalar IntersectionExampleScenario.node[34].nic.mac1609_4 	NumInternalContention 	0
scalar IntersectionExampleScenario.node[34].nic.mac1609_4 	totalBusyTime 	0
scalar IntersectionExampleScenario.node[34].veinsmobility 	startTime 	156.25
scalar IntersectionExampleScenario.node[34].veinsmobility 	totalTime 	65
scalar IntersectionExampleScenario.node[34].veinsmobility 	stopTime 	221.5
scalar IntersectionExampleScenario.node[34].veinsmobility 	minSpeed 	0
scalar IntersectionExampleScenario.node[34].veinsmobility 	maxSpeed 	15.982077598572
scalar IntersectionExampleScenario.node[34].veinsmobility 	totalDistance 	565.76190476175
scalar IntersectionExampleScenario.node[34].veinsmobility 	totalCO2Emission 	168.94897561417
scalar IntersectionExampleScenario.node[38].appl 	VehicleRemoved 	0
scalar IntersectionExampleScenario.node[38].appl 	ArrivedAtDest 	1
scalar IntersectionExampleScenario.node[38].appl 	IntersectionEnterTime 	179.25
scalar IntersectionExampleScenario.node[38].appl 	IntersectionExitTime 	205.79064413093
scalar IntersectionExampleScenario.node[38].appl 	NumberOfCollisions 	0
scalar IntersectionExampleScenario.node[38].nic.phy80211p 	busyTime 	0
scalar IntersectionExampleScenario.node[38].nic.mac1609_4 	ReceivedUnicastPackets 	0
scalar IntersectionExampleScenario.node[38].nic.mac1609_4 	ReceivedBroadcasts 	0
scalar IntersectionExampleScenario.node[38].nic.mac1609_4 	SentPackets 	0
scalar IntersectionExampleScenario.node[38].nic.mac1609_4 	SNIRLostPackets 	0
scalar IntersectionExampleScenario.node[38].nic.mac1609_4 	RXTXLostPackets 	0
scalar IntersectionExampleScenario.node[38].nic.mac1609_4 	TotalLostPackets 	0
scalar IntersectionExampleScenario.node[38].nic.mac1609_4 	DroppedPacketsInMac 	0
scalar IntersectionExampleScenario.node[38].nic.mac1609_4 	TooLittleTime 	0
scalar IntersectionExampleScenario.node[38].nic.mac1609_4 	TimesIntoBackoff 	0
scalar IntersectionExampleScenario.node[38].nic.mac1609_4 	SlotsBackoff 	0
scalar IntersectionExampleScenario.node[38].nic.mac1609_4 	NumInternalContention 	0
scalar IntersectionExampleScenario.node[38].nic.mac1609_4 	totalBusyTime 	0
scalar IntersectionExampleScenario.node[38].veinsmobility 	startTime 	179.25
scalar IntersectionExampleScenario.node[38].veinsmobility 	totalTime 	42.25
scalar IntersectionExampleScenario.node[38].veinsmobility 	stopTime 	221.75
scalar IntersectionExampleScenario.node[38].veinsmobility 	minSpeed 	5.6500000953674
scalar IntersectionExampleScenario.node[38].veinsmobility 	maxSpeed 	16.125
scalar IntersectionExampleScenario.node[38].veinsmobility 	totalDistance 	554.16770935059
scalar IntersectionExampleScenario.node[38].veinsmobility 	totalCO2Emission 	136.42456797355
scalar IntersectionExampleScenario.node[40].appl 	VehicleRemoved 	0
scalar IntersectionExampleScenario.node[40].appl 	ArrivedAtDest 	1
scalar IntersectionExampleScenario.node[40].appl 	IntersectionEnterTime 	184.75
scalar IntersectionExampleScenario.node[40].appl 	IntersectionExitTime 	207.80061895496
scalar IntersectionExampleScenario.node[40].appl 	NumberOfCollisions 	0
scalar IntersectionExampleScenario.node[40].nic.phy80211p 	busyTime 	0
scalar IntersectionExampleScenario.node[40].nic.mac1609_4 	ReceivedUnicastPackets 	0
scalar IntersectionExampleScenario.node[40].nic.mac1609_4 	ReceivedBroadcasts 	0
scalar IntersectionExampleScenario.node[40].nic.mac1609_4 	SentPackets 	0
scalar IntersectionExampleScenario.node[40].nic.mac1609_4 	SNIRLostPackets 	0
scalar IntersectionExampleScenario.node[40].nic.mac1609_4 	RXTXLostPackets 	0
scalar IntersectionExampleScenario.node[40].nic.mac1609_4 	TotalLostPackets 	0
scalar IntersectionExampleScenario.node[40].nic.mac1609_4 	DroppedPacketsInMac 	0
scalar IntersectionExampleScenario.node[40].nic.mac1609_4 	TooLittleTime 	0
scalar IntersectionExampleScenario.node[40].nic.mac1609_4 	TimesIntoBackoff 	0
scalar IntersectionExampleScenario.node[40].nic.mac1609_4 	SlotsBackoff 	0
scalar IntersectionExampleScenario.node[40].nic.mac1609_4 	NumInternalContention 	0
scalar IntersectionExampleScenario.node[40].nic.mac1609_4 	totalBusyTime 	0
scalar IntersectionExampleScenario.node[40].veinsmobility 	startTime 	184.75
scalar IntersectionExampleScenario.node[40].veinsmobility 	totalTime 	39.25
scalar IntersectionExampleScenario.node[40].veinsmobility 	stopTime 	224.25
scalar IntersectionExampleScenario.node[40].veinsmobility 	minSpeed 	5.6500000953674
scalar IntersectionExampleScenario.node[40].veinsmobility 	maxSpeed 	15.517778396606
scalar IntersectionExampleScenario.node[40].veinsmobility 	totalDistance 	552.03635406494
scalar IntersectionExampleScenario.node[40].veinsmobility 	totalCO2Emission 	118.68607610584
scalar IntersectionExampleScenario.node[36].appl 	VehicleRemoved 	0
scalar IntersectionExampleScenario.node[36].appl 	ArrivedAtDest 	1
scalar IntersectionExampleScenario.node[36].appl 	IntersectionEnterTime 	170.75
scalar IntersectionExampleScenario.node[36].appl 	IntersectionExitTime 	213.58840311258
scalar IntersectionExampleScenario.node[36].appl 	NumberOfCollisions 	0
scalar IntersectionExampleScenario.node[36].nic.phy80211p 	busyTime 	0
scalar IntersectionExampleScenario.node[36].nic.mac1609_4 	ReceivedUnicastPackets 	0
scalar IntersectionExampleScenario.node[36].nic.mac1609_4 	ReceivedBroadcasts 	0
scalar IntersectionExampleScenario.node[36].nic.mac1609_4 	SentPackets 	0
scalar IntersectionExampleScenario.node[36].nic.mac1609_4 	SNIRLostPackets 	0
scalar IntersectionExampleScenario.node[36].nic.mac1609_4 	RXTXLostPackets 	0
scalar IntersectionExampleScenario.node[36].nic.mac1609_4 	TotalLostPackets 	0
scalar IntersectionExampleScenario.node[36].nic.mac1609_4 	DroppedPacketsInMac 	0
scalar IntersectionExampleScenario.node[36].nic.mac1609_4 	TooLittleTime 	0
scalar IntersectionExampleScenario.node[36].nic.mac1609_4 	TimesIntoBackoff 	0
[...]
scalar IntersectionExampleScenario.node[472].veinsmobility 	totalDistance 	473.08834742713
scalar IntersectionExampleScenario.node[472].veinsmobility 	totalCO2Emission 	148.18916554226
scalar IntersectionExampleScenario.node[479].appl 	VehicleRemoved 	0
scalar IntersectionExampleScenario.node[479].appl 	ArrivedAtDest 	0
scalar IntersectionExampleScenario.node[479].appl 	IntersectionEnterTime 	1768.5
scalar IntersectionExampleScenario.node[479].appl 	IntersectionExitTime 	-1
scalar IntersectionExampleScenario.node[479].appl 	NumberOfCollisions 	0
scalar IntersectionExampleScenario.node[479].nic.phy80211p 	busyTime 	0
scalar IntersectionExampleScenario.node[479].nic.mac1609_4 	ReceivedUnicastPackets 	0
scalar IntersectionExampleScenario.node[479].nic.mac1609_4 	ReceivedBroadcasts 	0
scalar IntersectionExampleScenario.node[479].nic.mac1609_4 	SentPackets 	0
scalar IntersectionExampleScenario.node[479].nic.mac1609_4 	SNIRLostPackets 	0
scalar IntersectionExampleScenario.node[479].nic.mac1609_4 	RXTXLostPackets 	0
scalar IntersectionExampleScenario.node[479].nic.mac1609_4 	TotalLostPackets 	0
scalar IntersectionExampleScenario.node[479].nic.mac1609_4 	DroppedPacketsInMac 	0
scalar IntersectionExampleScenario.node[479].nic.mac1609_4 	TooLittleTime 	0
scalar IntersectionExampleScenario.node[479].nic.mac1609_4 	TimesIntoBackoff 	0
scalar IntersectionExampleScenario.node[479].nic.mac1609_4 	SlotsBackoff 	0
scalar IntersectionExampleScenario.node[479].nic.mac1609_4 	NumInternalContention 	0
scalar IntersectionExampleScenario.node[479].nic.mac1609_4 	totalBusyTime 	0
scalar IntersectionExampleScenario.node[479].veinsmobility 	startTime 	1768.5
scalar IntersectionExampleScenario.node[479].veinsmobility 	totalTime 	31.5
scalar IntersectionExampleScenario.node[479].veinsmobility 	stopTime 	1800
scalar IntersectionExampleScenario.node[479].veinsmobility 	minSpeed 	0
scalar IntersectionExampleScenario.node[479].veinsmobility 	maxSpeed 	15.02499961853
scalar IntersectionExampleScenario.node[479].veinsmobility 	totalDistance 	287.42190551758
scalar IntersectionExampleScenario.node[479].veinsmobility 	totalCO2Emission 	72.555721364799
scalar IntersectionExampleScenario.node[480].appl 	VehicleRemoved 	0
scalar IntersectionExampleScenario.node[480].appl 	ArrivedAtDest 	0
scalar IntersectionExampleScenario.node[480].appl 	IntersectionEnterTime 	1769.75
scalar IntersectionExampleScenario.node[480].appl 	IntersectionExitTime 	1794.3740376697
scalar IntersectionExampleScenario.node[480].appl 	NumberOfCollisions 	0
scalar IntersectionExampleScenario.node[480].nic.phy80211p 	busyTime 	0
scalar IntersectionExampleScenario.node[480].nic.mac1609_4 	ReceivedUnicastPackets 	0
scalar IntersectionExampleScenario.node[480].nic.mac1609_4 	ReceivedBroadcasts 	0
scalar IntersectionExampleScenario.node[480].nic.mac1609_4 	SentPackets 	0
scalar IntersectionExampleScenario.node[480].nic.mac1609_4 	SNIRLostPackets 	0
scalar IntersectionExampleScenario.node[480].nic.mac1609_4 	RXTXLostPackets 	0
scalar IntersectionExampleScenario.node[480].nic.mac1609_4 	TotalLostPackets 	0
scalar IntersectionExampleScenario.node[480].nic.mac1609_4 	DroppedPacketsInMac 	0
scalar IntersectionExampleScenario.node[480].nic.mac1609_4 	TooLittleTime 	0
scalar IntersectionExampleScenario.node[480].nic.mac1609_4 	TimesIntoBackoff 	0
scalar IntersectionExampleScenario.node[480].nic.mac1609_4 	SlotsBackoff 	0
scalar IntersectionExampleScenario.node[480].nic.mac1609_4 	NumInternalContention 	0
scalar IntersectionExampleScenario.node[480].nic.mac1609_4 	totalBusyTime 	0
scalar IntersectionExampleScenario.node[480].veinsmobility 	startTime 	1769.75
scalar IntersectionExampleScenario.node[480].veinsmobility 	totalTime 	30.25
scalar IntersectionExampleScenario.node[480].veinsmobility 	stopTime 	1800
scalar IntersectionExampleScenario.node[480].veinsmobility 	minSpeed 	5.6500000953674
scalar IntersectionExampleScenario.node[480].veinsmobility 	maxSpeed 	15.02499961853
scalar IntersectionExampleScenario.node[480].veinsmobility 	totalDistance 	376.72848290154
scalar IntersectionExampleScenario.node[480].veinsmobility 	totalCO2Emission 	105.64458864345
scalar IntersectionExampleScenario.node[481].appl 	VehicleRemoved 	0
scalar IntersectionExampleScenario.node[481].appl 	ArrivedAtDest 	0
scalar IntersectionExampleScenario.node[481].appl 	IntersectionEnterTime 	1771
scalar IntersectionExampleScenario.node[481].appl 	IntersectionExitTime 	-1
scalar IntersectionExampleScenario.node[481].appl 	NumberOfCollisions 	0
scalar IntersectionExampleScenario.node[481].nic.phy80211p 	busyTime 	0
scalar IntersectionExampleScenario.node[481].nic.mac1609_4 	ReceivedUnicastPackets 	0
scalar IntersectionExampleScenario.node[481].nic.mac1609_4 	ReceivedBroadcasts 	0
scalar IntersectionExampleScenario.node[481].nic.mac1609_4 	SentPackets 	0
scalar IntersectionExampleScenario.node[481].nic.mac1609_4 	SNIRLostPackets 	0
scalar IntersectionExampleScenario.node[481].nic.mac1609_4 	RXTXLostPackets 	0
scalar IntersectionExampleScenario.node[481].nic.mac1609_4 	TotalLostPackets 	0
scalar IntersectionExampleScenario.node[481].nic.mac1609_4 	DroppedPacketsInMac 	0
scalar IntersectionExampleScenario.node[481].nic.mac1609_4 	TooLittleTime 	0
scalar IntersectionExampleScenario.node[481].nic.mac1609_4 	TimesIntoBackoff 	0
scalar IntersectionExampleScenario.node[481].nic.mac1609_4 	SlotsBackoff 	0
scalar IntersectionExampleScenario.node[481].nic.mac1609_4 	NumInternalContention 	0
scalar IntersectionExampleScenario.node[481].nic.mac1609_4 	totalBusyTime 	0
scalar IntersectionExampleScenario.node[481].veinsmobility 	startTime 	1771
scalar IntersectionExampleScenario.node[481].veinsmobility 	totalTime 	29
scalar IntersectionExampleScenario.node[481].veinsmobility 	stopTime 	1800
scalar IntersectionExampleScenario.node[481].veinsmobility 	minSpeed 	0
scalar IntersectionExampleScenario.node[481].veinsmobility 	maxSpeed 	15.02499961853
scalar IntersectionExampleScenario.node[481].veinsmobility 	totalDistance 	296.23794555664
scalar IntersectionExampleScenario.node[481].veinsmobility 	totalCO2Emission 	71.477849554891
scalar IntersectionExampleScenario.node[482].appl 	VehicleRemoved 	0
scalar IntersectionExampleScenario.node[482].appl 	ArrivedAtDest 	0
scalar IntersectionExampleScenario.node[482].appl 	IntersectionEnterTime 	1786
scalar IntersectionExampleScenario.node[482].appl 	IntersectionExitTime 	-1
scalar IntersectionExampleScenario.node[482].appl 	NumberOfCollisions 	0
scalar IntersectionExampleScenario.node[482].nic.phy80211p 	busyTime 	0
scalar IntersectionExampleScenario.node[482].nic.mac1609_4 	ReceivedUnicastPackets 	0
scalar IntersectionExampleScenario.node[482].nic.mac1609_4 	ReceivedBroadcasts 	0
scalar IntersectionExampleScenario.node[482].nic.mac1609_4 	SentPackets 	0
scalar IntersectionExampleScenario.node[482].nic.mac1609_4 	SNIRLostPackets 	0
scalar IntersectionExampleScenario.node[482].nic.mac1609_4 	RXTXLostPackets 	0
scalar IntersectionExampleScenario.node[482].nic.mac1609_4 	TotalLostPackets 	0
scalar IntersectionExampleScenario.node[482].nic.mac1609_4 	DroppedPacketsInMac 	0
scalar IntersectionExampleScenario.node[482].nic.mac1609_4 	TooLittleTime 	0
scalar IntersectionExampleScenario.node[482].nic.mac1609_4 	TimesIntoBackoff 	0
scalar IntersectionExampleScenario.node[482].nic.mac1609_4 	SlotsBackoff 	0
scalar IntersectionExampleScenario.node[482].nic.mac1609_4 	NumInternalContention 	0
scalar IntersectionExampleScenario.node[482].nic.mac1609_4 	totalBusyTime 	0
scalar IntersectionExampleScenario.node[482].veinsmobility 	startTime 	1786
scalar IntersectionExampleScenario.node[482].veinsmobility 	totalTime 	14
scalar IntersectionExampleScenario.node[482].veinsmobility 	stopTime 	1800
scalar IntersectionExampleScenario.node[482].veinsmobility 	minSpeed 	5.6500000953674
scalar IntersectionExampleScenario.node[482].veinsmobility 	maxSpeed 	15.64999961853
scalar IntersectionExampleScenario.node[482].veinsmobility 	totalDistance 	196.2292175293
scalar IntersectionExampleScenario.node[482].veinsmobility 	totalCO2Emission 	55.040965525894
scalar IntersectionExampleScenario.node[483].appl 	VehicleRemoved 	0
scalar IntersectionExampleScenario.node[483].appl 	ArrivedAtDest 	0
scalar IntersectionExampleScenario.node[483].appl 	IntersectionEnterTime 	1789.75
scalar IntersectionExampleScenario.node[483].appl 	IntersectionExitTime 	-1
scalar IntersectionExampleScenario.node[483].appl 	NumberOfCollisions 	0
scalar IntersectionExampleScenario.node[483].nic.phy80211p 	busyTime 	0
scalar IntersectionExampleScenario.node[483].nic.mac1609_4 	ReceivedUnicastPackets 	0
scalar IntersectionExampleScenario.node[483].nic.mac1609_4 	ReceivedBroadcasts 	0
scalar IntersectionExampleScenario.node[483].nic.mac1609_4 	SentPackets 	0
scalar IntersectionExampleScenario.node[483].nic.mac1609_4 	SNIRLostPackets 	0
scalar IntersectionExampleScenario.node[483].nic.mac1609_4 	RXTXLostPackets 	0
scalar IntersectionExampleScenario.node[483].nic.mac1609_4 	TotalLostPackets 	0
scalar IntersectionExampleScenario.node[483].nic.mac1609_4 	DroppedPacketsInMac 	0
scalar IntersectionExampleScenario.node[483].nic.mac1609_4 	TooLittleTime 	0
scalar IntersectionExampleScenario.node[483].nic.mac1609_4 	TimesIntoBackoff 	0
scalar IntersectionExampleScenario.node[483].nic.mac1609_4 	SlotsBackoff 	0
scalar IntersectionExampleScenario.node[483].nic.mac1609_4 	NumInternalContention 	0
scalar IntersectionExampleScenario.node[483].nic.mac1609_4 	totalBusyTime 	0
scalar IntersectionExampleScenario.node[483].veinsmobility 	startTime 	1789.75
scalar IntersectionExampleScenario.node[483].veinsmobility 	totalTime 	10.25
scalar IntersectionExampleScenario.node[483].veinsmobility 	stopTime 	1800
scalar IntersectionExampleScenario.node[483].veinsmobility 	minSpeed 	5.6500000953674
scalar IntersectionExampleScenario.node[483].veinsmobility 	maxSpeed 	15.64999961853
scalar IntersectionExampleScenario.node[483].veinsmobility 	totalDistance 	136.12010955811
scalar IntersectionExampleScenario.node[483].veinsmobility 	totalCO2Emission 	45.450482647924
scalar IntersectionExampleScenario.node[484].appl 	VehicleRemoved 	0
scalar IntersectionExampleScenario.node[484].appl 	ArrivedAtDest 	0
scalar IntersectionExampleScenario.node[484].appl 	IntersectionEnterTime 	1791
scalar IntersectionExampleScenario.node[484].appl 	IntersectionExitTime 	-1
scalar IntersectionExampleScenario.node[484].appl 	NumberOfCollisions 	0
scalar IntersectionExampleScenario.node[484].nic.phy80211p 	busyTime 	0
scalar IntersectionExampleScenario.node[484].nic.mac1609_4 	ReceivedUnicastPackets 	0
scalar IntersectionExampleScenario.node[484].nic.mac1609_4 	ReceivedBroadcasts 	0
scalar IntersectionExampleScenario.node[484].nic.mac1609_4 	SentPackets 	0
scalar IntersectionExampleScenario.node[484].nic.mac1609_4 	SNIRLostPackets 	0
scalar IntersectionExampleScenario.node[484].nic.mac1609_4 	RXTXLostPackets 	0
scalar IntersectionExampleScenario.node[484].nic.mac1609_4 	TotalLostPackets 	0
scalar IntersectionExampleScenario.node[484].nic.mac1609_4 	DroppedPacketsInMac 	0
scalar IntersectionExampleScenario.node[484].nic.mac1609_4 	TooLittleTime 	0
scalar IntersectionExampleScenario.node[484].nic.mac1609_4 	TimesIntoBackoff 	0
scalar IntersectionExampleScenario.node[484].nic.mac1609_4 	SlotsBackoff 	0
scalar IntersectionExampleScenario.node[484].nic.mac1609_4 	NumInternalContention 	0
scalar IntersectionExampleScenario.node[484].nic.mac1609_4 	totalBusyTime 	0
scalar IntersectionExampleScenario.node[484].veinsmobility 	startTime 	1791
scalar IntersectionExampleScenario.node[484].veinsmobility 	totalTime 	9
scalar IntersectionExampleScenario.node[484].veinsmobility 	stopTime 	1800
scalar IntersectionExampleScenario.node[484].veinsmobility 	minSpeed 	5.6500000953674
scalar IntersectionExampleScenario.node[484].veinsmobility 	maxSpeed 	16.27499961853
scalar IntersectionExampleScenario.node[484].veinsmobility 	totalDistance 	120.38079833984
scalar IntersectionExampleScenario.node[484].veinsmobility 	totalCO2Emission 	45.899058066611
scalar IntersectionExampleScenario.node[485].appl 	VehicleRemoved 	0
scalar IntersectionExampleScenario.node[485].appl 	ArrivedAtDest 	0
scalar IntersectionExampleScenario.node[485].appl 	IntersectionEnterTime 	1792.75
scalar IntersectionExampleScenario.node[485].appl 	IntersectionExitTime 	-1
scalar IntersectionExampleScenario.node[485].appl 	NumberOfCollisions 	0
scalar IntersectionExampleScenario.node[485].nic.phy80211p 	busyTime 	0
scalar IntersectionExampleScenario.node[485].nic.mac1609_4 	ReceivedUnicastPackets 	0
scalar IntersectionExampleScenario.node[485].nic.mac1609_4 	ReceivedBroadcasts 	0
scalar IntersectionExampleScenario.node[485].nic.mac1609_4 	SentPackets 	0
scalar IntersectionExampleScenario.node[485].nic.mac1609_4 	SNIRLostPackets 	0
scalar IntersectionExampleScenario.node[485].nic.mac1609_4 	RXTXLostPackets 	0
scalar IntersectionExampleScenario.node[485].nic.mac1609_4 	TotalLostPackets 	0
scalar IntersectionExampleScenario.node[485].nic.mac1609_4 	DroppedPacketsInMac 	0
scalar IntersectionExampleScenario.node[485].nic.mac1609_4 	TooLittleTime 	0
scalar IntersectionExampleScenario.node[485].nic.mac1609_4 	TimesIntoBackoff 	0
scalar IntersectionExampleScenario.node[485].nic.mac1609_4 	SlotsBackoff 	0
scalar IntersectionExampleScenario.node[485].nic.mac1609_4 	NumInternalContention 	0
scalar IntersectionExampleScenario.node[485].nic.mac1609_4 	totalBusyTime 	0
scalar IntersectionExampleScenario.node[485].veinsmobility 	startTime 	1792.75
scalar IntersectionExampleScenario.node[485].veinsmobility 	totalTime 	7.25
scalar IntersectionExampleScenario.node[485].veinsmobility 	stopTime 	1800
scalar IntersectionExampleScenario.node[485].veinsmobility 	minSpeed 	5.6500000953674
scalar IntersectionExampleScenario.node[485].veinsmobility 	maxSpeed 	15.64999961853
scalar IntersectionExampleScenario.node[485].veinsmobility 	totalDistance 	90.811592102051
scalar IntersectionExampleScenario.node[485].veinsmobility 	totalCO2Emission 	40.09180864622
scalar IntersectionExampleScenario.node[486].appl 	VehicleRemoved 	0
scalar IntersectionExampleScenario.node[486].appl 	ArrivedAtDest 	0
scalar IntersectionExampleScenario.node[486].appl 	IntersectionEnterTime 	1793.25
scalar IntersectionExampleScenario.node[486].appl 	IntersectionExitTime 	-1
scalar IntersectionExampleScenario.node[486].appl 	NumberOfCollisions 	0
scalar IntersectionExampleScenario.node[486].nic.phy80211p 	busyTime 	0
scalar IntersectionExampleScenario.node[486].nic.mac1609_4 	ReceivedUnicastPackets 	0
scalar IntersectionExampleScenario.node[486].nic.mac1609_4 	ReceivedBroadcasts 	0
scalar IntersectionExampleScenario.node[486].nic.mac1609_4 	SentPackets 	0
scalar IntersectionExampleScenario.node[486].nic.mac1609_4 	SNIRLostPackets 	0
scalar IntersectionExampleScenario.node[486].nic.mac1609_4 	RXTXLostPackets 	0
scalar IntersectionExampleScenario.node[486].nic.mac1609_4 	TotalLostPackets 	0
scalar IntersectionExampleScenario.node[486].nic.mac1609_4 	DroppedPacketsInMac 	0
scalar IntersectionExampleScenario.node[486].nic.mac1609_4 	TooLittleTime 	0
scalar IntersectionExampleScenario.node[486].nic.mac1609_4 	TimesIntoBackoff 	0
scalar IntersectionExampleScenario.node[486].nic.mac1609_4 	SlotsBackoff 	0
scalar IntersectionExampleScenario.node[486].nic.mac1609_4 	NumInternalContention 	0
scalar IntersectionExampleScenario.node[486].nic.mac1609_4 	totalBusyTime 	0
scalar IntersectionExampleScenario.node[486].veinsmobility 	startTime 	1793.25
scalar IntersectionExampleScenario.node[486].veinsmobility 	totalTime 	6.75
scalar IntersectionExampleScenario.node[486].veinsmobility 	stopTime 	1800
scalar IntersectionExampleScenario.node[486].veinsmobility 	minSpeed 	5.6500000953674
scalar IntersectionExampleScenario.node[486].veinsmobility 	maxSpeed 	14.39999961853
scalar IntersectionExampleScenario.node[486].veinsmobility 	totalDistance 	79.225708007812
scalar IntersectionExampleScenario.node[486].veinsmobility 	totalCO2Emission 	33.436932835059
scalar IntersectionExampleScenario.node[487].appl 	VehicleRemoved 	0
scalar IntersectionExampleScenario.node[487].appl 	ArrivedAtDest 	0
scalar IntersectionExampleScenario.node[487].appl 	IntersectionEnterTime 	1793.5
scalar IntersectionExampleScenario.node[487].appl 	IntersectionExitTime 	-1
scalar IntersectionExampleScenario.node[487].appl 	NumberOfCollisions 	0
scalar IntersectionExampleScenario.node[487].nic.phy80211p 	busyTime 	0
scalar IntersectionExampleScenario.node[487].nic.mac1609_4 	ReceivedUnicastPackets 	0
scalar IntersectionExampleScenario.node[487].nic.mac1609_4 	ReceivedBroadcasts 	0
scalar IntersectionExampleScenario.node[487].nic.mac1609_4 	SentPackets 	0
scalar IntersectionExampleScenario.node[487].nic.mac1609_4 	SNIRLostPackets 	0
scalar IntersectionExampleScenario.node[487].nic.mac1609_4 	RXTXLostPackets 	0
scalar IntersectionExampleScenario.node[487].nic.mac1609_4 	TotalLostPackets 	0
scalar IntersectionExampleScenario.node[487].nic.mac1609_4 	DroppedPacketsInMac 	0
scalar IntersectionExampleScenario.node[487].nic.mac1609_4 	TooLittleTime 	0
scalar IntersectionExampleScenario.node[487].nic.mac1609_4 	TimesIntoBackoff 	0
scalar IntersectionExampleScenario.node[487].nic.mac1609_4 	SlotsBackoff 	0
scalar IntersectionExampleScenario.node[487].nic.mac1609_4 	NumInternalContention 	0
scalar IntersectionExampleScenario.node[487].nic.mac1609_4 	totalBusyTime 	0
scalar IntersectionExampleScenario.node[487].veinsmobility 	startTime 	1793.5
scalar IntersectionExampleScenario.node[487].veinsmobility 	totalTime 	6.5
scalar IntersectionExampleScenario.node[487].veinsmobility 	stopTime 	1800
scalar IntersectionExampleScenario.node[487].veinsmobility 	minSpeed 	5.6500000953674
scalar IntersectionExampleScenario.node[487].veinsmobility 	maxSpeed 	15.975706100464
scalar IntersectionExampleScenario.node[487].veinsmobility 	totalDistance 	77.76456451416
scalar IntersectionExampleScenario.node[487].veinsmobility 	totalCO2Emission 	38.412896672925
scalar IntersectionExampleScenario.node[488].appl 	VehicleRemoved 	0
scalar IntersectionExampleScenario.node[488].appl 	ArrivedAtDest 	0
scalar IntersectionExampleScenario.node[488].appl 	IntersectionEnterTime 	1796.5
scalar IntersectionExampleScenario.node[488].appl 	IntersectionExitTime 	-1
scalar IntersectionExampleScenario.node[488].appl 	NumberOfCollisions 	0
scalar IntersectionExampleScenario.node[488].nic.phy80211p 	busyTime 	0
scalar IntersectionExampleScenario.node[488].nic.mac1609_4 	ReceivedUnicastPackets 	0
scalar IntersectionExampleScenario.node[488].nic.mac1609_4 	ReceivedBroadcasts 	0
scalar IntersectionExampleScenario.node[488].nic.mac1609_4 	SentPackets 	0
scalar IntersectionExampleScenario.node[488].nic.mac1609_4 	SNIRLostPackets 	0
scalar IntersectionExampleScenario.node[488].nic.mac1609_4 	RXTXLostPackets 	0
scalar IntersectionExampleScenario.node[488].nic.mac1609_4 	TotalLostPackets 	0
scalar IntersectionExampleScenario.node[488].nic.mac1609_4 	DroppedPacketsInMac 	0
scalar IntersectionExampleScenario.node[488].nic.mac1609_4 	TooLittleTime 	0
scalar IntersectionExampleScenario.node[488].nic.mac1609_4 	TimesIntoBackoff 	0
scalar IntersectionExampleScenario.node[488].nic.mac1609_4 	SlotsBackoff 	0
scalar IntersectionExampleScenario.node[488].nic.mac1609_4 	NumInternalContention 	0
scalar IntersectionExampleScenario.node[488].nic.mac1609_4 	totalBusyTime 	0
scalar IntersectionExampleScenario.node[488].veinsmobility 	startTime 	1796.5
scalar IntersectionExampleScenario.node[488].veinsmobility 	totalTime 	3.5
scalar IntersectionExampleScenario.node[488].veinsmobility 	stopTime 	1800
scalar IntersectionExampleScenario.node[488].veinsmobility 	minSpeed 	5.6500000953674
scalar IntersectionExampleScenario.node[488].veinsmobility 	maxSpeed 	13.77499961853
scalar IntersectionExampleScenario.node[488].veinsmobility 	totalDistance 	32.900024414062
scalar IntersectionExampleScenario.node[488].veinsmobility 	totalCO2Emission 	25.161289661203
