file 15626557 1591484170                                        
version 2
run nodebug-35-20200606-18:53:45-22420
attr configname nodebug
attr datetime 20200606-18:53:45
attr experiment nodebug
attr inifile omnetpp.ini
attr iterationvars ""
attr iterationvars2 $repetition=35
attr measurement ""
attr network "\"org.car2x.veins.modules.application.ExtTraCIScenarioManagerLaunchd.IntersectionExampleScenario\""
attr processid 22420
attr repetition 35
attr replication #35
attr resultdir results
attr runnumber 35
attr seedset 35
param **.coreDebug false
param **.debug false
param *.**.nic.mac1609_4.bitrate 18Mbps
param *.**.nic.mac1609_4.txPower 20mW
param *.**.nic.mac1609_4.useServiceChannel false
param *.**.nic.phy80211p.analogueModels "xmldoc(\"config.xml\")"
param *.**.nic.phy80211p.decider "xmldoc(\"config.xml\")"
param *.**.nic.phy80211p.sensitivity -89dBm
param *.**.nic.phy80211p.thermalNoise -110dBm
param *.**.nic.phy80211p.usePropagationDelay true
param *.**.nic.phy80211p.useThermalNoise true
param *.annotations.draw false
param *.connectionManager.alpha 2.0
param *.connectionManager.carrierFrequency "5.890e9 Hz"
param *.connectionManager.pMax 20mW
param *.connectionManager.sat -89dBm
param *.connectionManager.sendDirect true
param *.manager.autoShutdown true
param *.manager.host "\"localhost\""
param *.manager.launchConfig "xmldoc(\"paramics.launchd.xml\")"
param *.manager.margin 25
param *.manager.moduleDisplayString "\"\""
param *.manager.moduleName "\"node\""
param *.manager.moduleType "\"org.car2x.veins.nodes.Car\""
param *.manager.port 9999
param *.manager.updateInterval 250ms
param *.node[*0].veinsmobility.accidentCount 0
param *.node[*0].veinsmobility.accidentDuration 30s
param *.node[*0].veinsmobility.accidentStart 75s
param *.node[*].appl.LiderSelectZoneRadio 55.0
param *.node[*].appl.ShareDataZoneRadio 110.0
param *.node[*].appl.TiempoSemaforo 30.0
param *.node[*].appl.beaconInterval 1s
param *.node[*].appl.beaconPriority 3
param *.node[*].appl.dataOnSch false
param *.node[*].appl.dataPriority 2
param *.node[*].appl.debug false
param *.node[*].appl.headerLength "256 bit"
param *.node[*].appl.maxOffset 0.005s
param *.node[*].appl.sendBeacons false
param *.node[*].appl.sendData true
param *.node[*].applType "\"Dummy\""
param *.node[*].mobilityType "\"TraCIMobility\""
param *.node[*].mobilityType.debug true
param *.node[*].veinsmobility.x 0
param *.node[*].veinsmobility.y 0
param *.node[*].veinsmobility.z 1.895
param *.node[*].veinsmobilityType "\"org.car2x.veins.modules.mobility.traci.TraCIMobility\""
param *.node[*].veinsmobilityType.debug true
param *.playgroundSizeX 8500m
param *.playgroundSizeY 8500m
param *.playgroundSizeZ 50m
param *.world.use2D false
param *.world.useTorus false

vector 38269  IntersectionExampleScenario.manager  vehiclesinsim  ETV
attr type  int
vector 38270  IntersectionExampleScenario.manager  realtime  ETV
attr type  int
attr unit  s
vector 38273  IntersectionExampleScenario.node[0].veinsmobility  posx  ETV
vector 38274  IntersectionExampleScenario.node[0].veinsmobility  posy  ETV
vector 38275  IntersectionExampleScenario.node[0].veinsmobility  speed  ETV
vector 38276  IntersectionExampleScenario.node[0].veinsmobility  acceleration  ETV
vector 38277  IntersectionExampleScenario.node[0].veinsmobility  co2emission  ETV
vector 38280  IntersectionExampleScenario.node[1].veinsmobility  posx  ETV
vector 38281  IntersectionExampleScenario.node[1].veinsmobility  posy  ETV
vector 38282  IntersectionExampleScenario.node[1].veinsmobility  speed  ETV
vector 38283  IntersectionExampleScenario.node[1].veinsmobility  acceleration  ETV
vector 38284  IntersectionExampleScenario.node[1].veinsmobility  co2emission  ETV
vector 38287  IntersectionExampleScenario.node[2].veinsmobility  posx  ETV
vector 38288  IntersectionExampleScenario.node[2].veinsmobility  posy  ETV
vector 38289  IntersectionExampleScenario.node[2].veinsmobility  speed  ETV
vector 38290  IntersectionExampleScenario.node[2].veinsmobility  acceleration  ETV
vector 38291  IntersectionExampleScenario.node[2].veinsmobility  co2emission  ETV
vector 38294  IntersectionExampleScenario.node[3].veinsmobility  posx  ETV
vector 38295  IntersectionExampleScenario.node[3].veinsmobility  posy  ETV
vector 38296  IntersectionExampleScenario.node[3].veinsmobility  speed  ETV
vector 38297  IntersectionExampleScenario.node[3].veinsmobility  acceleration  ETV
vector 38298  IntersectionExampleScenario.node[3].veinsmobility  co2emission  ETV
vector 38301  IntersectionExampleScenario.node[4].veinsmobility  posx  ETV
vector 38302  IntersectionExampleScenario.node[4].veinsmobility  posy  ETV
vector 38303  IntersectionExampleScenario.node[4].veinsmobility  speed  ETV
vector 38304  IntersectionExampleScenario.node[4].veinsmobility  acceleration  ETV
vector 38305  IntersectionExampleScenario.node[4].veinsmobility  co2emission  ETV
vector 38308  IntersectionExampleScenario.node[5].veinsmobility  posx  ETV
vector 38309  IntersectionExampleScenario.node[5].veinsmobility  posy  ETV
vector 38310  IntersectionExampleScenario.node[5].veinsmobility  speed  ETV
vector 38311  IntersectionExampleScenario.node[5].veinsmobility  acceleration  ETV
vector 38312  IntersectionExampleScenario.node[5].veinsmobility  co2emission  ETV
vector 38315  IntersectionExampleScenario.node[6].veinsmobility  posx  ETV
vector 38316  IntersectionExampleScenario.node[6].veinsmobility  posy  ETV
vector 38317  IntersectionExampleScenario.node[6].veinsmobility  speed  ETV
vector 38318  IntersectionExampleScenario.node[6].veinsmobility  acceleration  ETV
vector 38319  IntersectionExampleScenario.node[6].veinsmobility  co2emission  ETV
38277	5708 5227 28 1419 5.75 48 170 0.973 10.756497587458 475.33364402942 2230.0597597262
38276	10935 4677 28 1419 5.75 48 170 -3.4311351776123 2.5 33.079023361206 236.70328104555
38275	15612 5182 25 1419 5.5 48 171 5.6500000953674 14.39999961853 2181.8517718315 28764.133430869
38274	20794 5496 22 1419 5.25 48 172 486.85000610352 733.01583862305 92644.004013062 50900075.822487
38273	26290 5491 22 1419 5.25 48 172 486.85000610352 785.82187652588 98379.710784912 58094764.675159
vector 38322  IntersectionExampleScenario.node[7].veinsmobility  posx  ETV
vector 38323  IntersectionExampleScenario.node[7].veinsmobility  posy  ETV
38284	31933 4925 116 1584 12.75 51.75 157 0.973 11.450879080643 489.42250989412 2512.1646838141
38283	36858 4757 116 1584 12.75 51.75 157 -3.1581954956055 2.5 38.341367721558 223.50845924003
38282	41615 4829 111 1584 12.5 51.75 158 5.6500000953674 15.592497825623 2201.3669033051 31579.32300376
38281	46444 5140 106 1584 12.25 51.75 159 238.29583740234 486.85000610352 69097.206451416 30969632.388721
38280	51584 5139 106 1584 12.25 51.75 159 483.11944580078 785.82187652588 91029.4845047 53896176.023982
vector 38324  IntersectionExampleScenario.node[7].veinsmobility  speed  ETV
vector 38325  IntersectionExampleScenario.node[7].veinsmobility  acceleration  ETV
vector 38326  IntersectionExampleScenario.node[7].veinsmobility  co2emission  ETV
vector 38329  IntersectionExampleScenario.node[8].veinsmobility  posx  ETV
vector 38330  IntersectionExampleScenario.node[8].veinsmobility  posy  ETV
vector 38331  IntersectionExampleScenario.node[8].veinsmobility  speed  ETV
vector 38336  IntersectionExampleScenario.node[9].veinsmobility  posx  ETV
vector 38337  IntersectionExampleScenario.node[9].veinsmobility  posy  ETV
vector 38332  IntersectionExampleScenario.node[8].veinsmobility  acceleration  ETV
vector 38333  IntersectionExampleScenario.node[8].veinsmobility  co2emission  ETV
vector 38338  IntersectionExampleScenario.node[9].veinsmobility  speed  ETV
vector 38339  IntersectionExampleScenario.node[9].veinsmobility  acceleration  ETV
vector 38340  IntersectionExampleScenario.node[9].veinsmobility  co2emission  ETV
vector 38343  IntersectionExampleScenario.node[10].veinsmobility  posx  ETV
vector 38344  IntersectionExampleScenario.node[10].veinsmobility  posy  ETV
vector 38350  IntersectionExampleScenario.node[11].veinsmobility  posx  ETV
vector 38351  IntersectionExampleScenario.node[11].veinsmobility  posy  ETV
vector 38345  IntersectionExampleScenario.node[10].veinsmobility  speed  ETV
vector 38352  IntersectionExampleScenario.node[11].veinsmobility  speed  ETV
vector 38357  IntersectionExampleScenario.node[12].veinsmobility  posx  ETV
vector 38358  IntersectionExampleScenario.node[12].veinsmobility  posy  ETV
vector 38346  IntersectionExampleScenario.node[10].veinsmobility  acceleration  ETV
vector 38347  IntersectionExampleScenario.node[10].veinsmobility  co2emission  ETV
vector 38353  IntersectionExampleScenario.node[11].veinsmobility  acceleration  ETV
vector 38354  IntersectionExampleScenario.node[11].veinsmobility  co2emission  ETV
vector 38359  IntersectionExampleScenario.node[12].veinsmobility  speed  ETV
vector 38360  IntersectionExampleScenario.node[12].veinsmobility  acceleration  ETV
vector 38361  IntersectionExampleScenario.node[12].veinsmobility  co2emission  ETV
vector 38364  IntersectionExampleScenario.node[13].veinsmobility  posx  ETV
vector 38365  IntersectionExampleScenario.node[13].veinsmobility  posy  ETV
vector 38366  IntersectionExampleScenario.node[13].veinsmobility  speed  ETV
vector 38367  IntersectionExampleScenario.node[13].veinsmobility  acceleration  ETV
vector 38368  IntersectionExampleScenario.node[13].veinsmobility  co2emission  ETV
vector 38371  IntersectionExampleScenario.node[14].veinsmobility  posx  ETV
vector 38372  IntersectionExampleScenario.node[14].veinsmobility  posy  ETV
vector 38373  IntersectionExampleScenario.node[14].veinsmobility  speed  ETV
vector 38374  IntersectionExampleScenario.node[14].veinsmobility  acceleration  ETV
vector 38375  IntersectionExampleScenario.node[14].veinsmobility  co2emission  ETV
vector 38378  IntersectionExampleScenario.node[15].veinsmobility  posx  ETV
vector 38379  IntersectionExampleScenario.node[15].veinsmobility  posy  ETV
vector 38380  IntersectionExampleScenario.node[15].veinsmobility  speed  ETV
vector 38381  IntersectionExampleScenario.node[15].veinsmobility  acceleration  ETV
vector 38382  IntersectionExampleScenario.node[15].veinsmobility  co2emission  ETV
vector 38385  IntersectionExampleScenario.node[16].veinsmobility  posx  ETV
vector 38386  IntersectionExampleScenario.node[16].veinsmobility  posy  ETV
vector 38392  IntersectionExampleScenario.node[17].veinsmobility  posx  ETV
vector 38393  IntersectionExampleScenario.node[17].veinsmobility  posy  ETV
vector 38387  IntersectionExampleScenario.node[16].veinsmobility  speed  ETV
vector 38394  IntersectionExampleScenario.node[17].veinsmobility  speed  ETV
vector 38388  IntersectionExampleScenario.node[16].veinsmobility  acceleration  ETV
vector 38389  IntersectionExampleScenario.node[16].veinsmobility  co2emission  ETV
vector 38395  IntersectionExampleScenario.node[17].veinsmobility  acceleration  ETV
vector 38396  IntersectionExampleScenario.node[17].veinsmobility  co2emission  ETV
38312	60967 4665 915 3297 36 72.25 146 0.973 12.553400930962 501.47950589679 3047.6783779659
38311	65632 4352 915 3297 36 72.25 146 -3.5174598693848 2.5 42.754949569702 235.29016622322
38310	69984 4589 906 3297 35.75 72.25 147 5.6500000953674 16.89999961853 2214.7069759369 34270.348078621
38309	74573 4844 896 3297 35.5 72.25 148 184.17810058594 732.40507507324 66108.399963379 33450931.632075
38308	79417 4872 896 3297 35.5 72.25 148 486.85000610352 486.85000610352 72053.80090332 35079393.409563
vector 38399  IntersectionExampleScenario.node[18].veinsmobility  posx  ETV
vector 38400  IntersectionExampleScenario.node[18].veinsmobility  posy  ETV
vector 38406  IntersectionExampleScenario.node[19].veinsmobility  posx  ETV
vector 38407  IntersectionExampleScenario.node[19].veinsmobility  posy  ETV
vector 38401  IntersectionExampleScenario.node[18].veinsmobility  speed  ETV
vector 38402  IntersectionExampleScenario.node[18].veinsmobility  acceleration  ETV
vector 38403  IntersectionExampleScenario.node[18].veinsmobility  co2emission  ETV
vector 38408  IntersectionExampleScenario.node[19].veinsmobility  speed  ETV
vector 38409  IntersectionExampleScenario.node[19].veinsmobility  acceleration  ETV
vector 38410  IntersectionExampleScenario.node[19].veinsmobility  co2emission  ETV
38291	85091 7072 195 3841 16.5 77.5 245 0.973 11.450879080643 612.23341118342 2885.0353591959
38290	92163 6046 195 3841 16.5 77.5 245 -19.4228515625 4 37.32285118103 813.35698109432
38289	98209 6648 188 3841 16.25 77.5 246 0 15.375 2215.1410989761 31285.785335116
38288	104857 8060 181 3841 16 77.5 247 483.14999389648 483.14999389648 119338.04849243 57658177.400737
38287	112917 8027 181 3841 16 77.5 247 184.17810058594 733.81198120117 112936.91241455 55872910.797272
38298	120944 6992 241 3917 18 78.25 242 0.973 11.810082123732 632.26834224768 3055.4756300096
38297	127936 6337 241 3917 18 78.25 242 -4.5 2.5 40.208654403687 495.11940319688
38296	134273 6560 232 3917 17.75 78.25 243 0 15.875 2258.8462753296 32467.3140714
38295	140833 7961 223 3917 17.5 78.25 244 238.48266601562 483.14999389648 110035.16177368 50644939.059957
38294	148794 7938 223 3917 17.5 78.25 244 163.88433837891 483.14999389648 101039.34933472 44186313.817378
38305	156732 6462 587 4229 27.5 81.5 217 0.973 11.200708441096 555.1193880857 2635.438144136
38304	163194 6653 587 4229 27.5 81.5 217 -3.6974771022797 2.5000004768372 35.964826583862 314.96847620495
38303	169847 6871 576 4229 27.25 81.5 218 0 15.02499961853 2204.4352361746 28188.906432598
38302	176718 7164 565 4229 27 81.5 219 483.14999389648 732.06860351562 114469.28094482 60926599.751647
38301	183882 7135 565 4229 27 81.5 219 184.17810058594 486.85000610352 89958.55065918 38876781.765668
vector 38413  IntersectionExampleScenario.node[20].veinsmobility  posx  ETV
vector 38414  IntersectionExampleScenario.node[20].veinsmobility  posy  ETV
vector 38415  IntersectionExampleScenario.node[20].veinsmobility  speed  ETV
vector 38416  IntersectionExampleScenario.node[20].veinsmobility  acceleration  ETV
vector 38417  IntersectionExampleScenario.node[20].veinsmobility  co2emission  ETV
vector 38420  IntersectionExampleScenario.node[21].veinsmobility  posx  ETV
vector 38421  IntersectionExampleScenario.node[21].veinsmobility  posy  ETV
vector 38422  IntersectionExampleScenario.node[21].veinsmobility  speed  ETV
vector 38423  IntersectionExampleScenario.node[21].veinsmobility  acceleration  ETV
vector 38424  IntersectionExampleScenario.node[21].veinsmobility  co2emission  ETV
38319	191819 6198 1045 4974 39.5 90.75 206 0.973 11.36141391502 557.93876973841 2756.9007118114
38318	198017 5836 1045 4974 39.5 90.75 206 -8.6810245513916 4 36.134572982788 473.1830623113
38317	203853 6015 1034 4974 39.25 90.75 207 0 15.25 2178.0970487595 29705.218555888
38316	209868 6850 1023 4974 39 90.75 208 486.63604736328 785.82187652588 115935.75632477 66575837.116364
38315	216718 6799 1023 4974 39 90.75 208 236.32275390625 483.14999389648 91991.079467773 41733888.640202
38361	223517 4694 1861 5145 56 93.25 150 0.973 12.099024792222 548.90111442901 3589.7995592492
38360	228211 4273 1861 5145 56 93.25 150 -3.0739402770996 2.5 41.227170944214 337.56895849717
38359	232484 4679 1838 5145 55.75 93.25 151 5.6500000953674 16.27499961853 2087.929485321 30039.788199268
38358	237163 4995 1815 5145 55.5 93.25 152 483.12063598633 756.11563110352 85206.775886536 49101720.471543
38357	242158 5002 1815 5145 55.5 93.25 152 483.14999389648 733.18296813965 81492.342300415 44603599.332786
38340	247160 5274 1739 5306 54.5 95.75 166 0.973 11.680217306391 548.29658418201 3098.4945013211
38339	252434 5033 1739 5306 54.5 95.75 166 -4.5 2.5 38.341367721558 364.66789837249
38338	257467 5288 1722 5306 54.25 95.75 167 5.6500000953674 15.694580078125 2223.9668731689 30821.700197947
38337	262755 5522 1705 5306 54 95.75 168 235.38995361328 785.82187652588 89120.430458069 51794132.452794
38336	268277 5544 1705 5306 54 95.75 168 483.14999389648 483.14999389648 81169.198974609 39216897.989165
38347	273821 5335 1815 5376 55.5 97 167 0.973 11.294364301023 518.44387468268 2550.4176581885
38346	279156 5168 1815 5376 55.5 97 167 -3.0529289245605 2.5 40.038900375366 200.14201723732
38345	284324 5324 1794 5376 55.25 97 168 5.6500000953674 15.711392402649 2302.9344043732 32598.628976656
38344	289648 5553 1773 5376 55 97 169 237.46887207031 807.99687957764 91243.383178711 54055926.581188
38343	295201 5575 1773 5376 55 97 169 483.14999389648 483.14999389648 81652.348968506 39450331.905767
vector 38427  IntersectionExampleScenario.node[22].veinsmobility  posx  ETV
vector 38428  IntersectionExampleScenario.node[22].veinsmobility  posy  ETV
vector 38429  IntersectionExampleScenario.node[22].veinsmobility  speed  ETV
vector 38430  IntersectionExampleScenario.node[22].veinsmobility  acceleration  ETV
vector 38431  IntersectionExampleScenario.node[22].veinsmobility  co2emission  ETV
vector 38434  IntersectionExampleScenario.node[23].veinsmobility  posx  ETV
vector 38435  IntersectionExampleScenario.node[23].veinsmobility  posy  ETV
vector 38436  IntersectionExampleScenario.node[23].veinsmobility  speed  ETV
vector 38437  IntersectionExampleScenario.node[23].veinsmobility  acceleration  ETV
vector 38438  IntersectionExampleScenario.node[23].veinsmobility  co2emission  ETV
vector 38441  IntersectionExampleScenario.node[24].veinsmobility  posx  ETV
vector 38442  IntersectionExampleScenario.node[24].veinsmobility  posy  ETV
38326	301732 6047 1610 5600 52.25 101.5 198 0.973 11.450879080643 561.82142240934 2825.9519780658
38325	307779 5478 1610 5600 52.25 101.5 198 -7.4570107460022 4 37.32285118103 472.71634536335
38324	313257 5905 1597 5600 52 101.5 199 0 15.375 2213.2772523165 30957.844020246
38323	319162 6574 1584 5600 51.75 101.5 200 184.17810058594 733.81198120117 90732.087631226 45383144.003336
38322	325736 6607 1584 5600 51.75 101.5 200 486.85000610352 486.85000610352 97370.001220703 47404585.688598
vector 38443  IntersectionExampleScenario.node[24].veinsmobility  speed  ETV
vector 38444  IntersectionExampleScenario.node[24].veinsmobility  acceleration  ETV
vector 38445  IntersectionExampleScenario.node[24].veinsmobility  co2emission  ETV
38333	332590 5935 1705 5644 54 102.25 194 0.973 12.26218747632 592.63269318428 3155.2475845776
38332	338525 5605 1705 5644 54 102.25 194 -4.5 2.5 41.227170944214 501.34497228094
38331	344130 5742 1690 5644 53.75 102.25 195 0 16.5 2269.9870176055 32850.9648866
38330	349872 6456 1675 5644 53.5 102.25 196 164.94219970703 483.14999389648 78848.587219238 33886087.899037
38329	356328 6467 1675 5644 53.5 102.25 196 486.85000610352 735.02439880371 103370.0637207 55504817.647306
vector 38448  IntersectionExampleScenario.node[25].veinsmobility  posx  ETV
vector 38449  IntersectionExampleScenario.node[25].veinsmobility  posy  ETV
vector 38455  IntersectionExampleScenario.node[26].veinsmobility  posx  ETV
vector 38456  IntersectionExampleScenario.node[26].veinsmobility  posy  ETV
vector 38450  IntersectionExampleScenario.node[25].veinsmobility  speed  ETV
vector 38451  IntersectionExampleScenario.node[25].veinsmobility  acceleration  ETV
vector 38452  IntersectionExampleScenario.node[25].veinsmobility  co2emission  ETV
vector 38457  IntersectionExampleScenario.node[26].veinsmobility  speed  ETV
vector 38458  IntersectionExampleScenario.node[26].veinsmobility  acceleration  ETV
vector 38459  IntersectionExampleScenario.node[26].veinsmobility  co2emission  ETV
38354	363597 6200 1815 5825 55.5 105 199 0.973 11.450879080643 573.54963014168 2910.8093295561
38353	369797 6025 1815 5825 55.5 105 199 -4.0849685668945 2.5000009536743 38.511121749878 390.09506424095
38352	375822 6341 1794 5825 55.25 105 200 0 15.556546211243 2329.4453973509 32025.346287202
38351	382163 6633 1773 5825 55 105 201 154.26641845703 486.85000610352 79906.292999268 34151355.638811
38350	388796 6647 1773 5825 55 105 201 236.45904541016 486.85000610352 89440.356140137 40849698.416156
38375	395443 5889 2159 5944 59.25 106.75 191 0.973 12.26218747632 596.37574949091 3316.4389674179
38374	401332 5901 2159 5944 59.25 106.75 191 -4.5 2.5 41.227170944214 407.7914106648
38373	407233 6010 2134 5944 59 106.75 192 2.6959624290466 16.5 2273.6787807941 31206.695699557
38372	413243 6381 2109 5944 58.75 106.75 193 161.26129150391 483.20199584961 76396.103240967 32369462.300383
38371	419624 6391 2109 5944 58.75 106.75 193 486.85000610352 732.18647766113 101742.36958313 54587223.26781
vector 38462  IntersectionExampleScenario.node[27].veinsmobility  posx  ETV
vector 38463  IntersectionExampleScenario.node[27].veinsmobility  posy  ETV
vector 38464  IntersectionExampleScenario.node[27].veinsmobility  speed  ETV
vector 38465  IntersectionExampleScenario.node[27].veinsmobility  acceleration  ETV
vector 38466  IntersectionExampleScenario.node[27].veinsmobility  co2emission  ETV
vector 38469  IntersectionExampleScenario.node[28].veinsmobility  posx  ETV
vector 38470  IntersectionExampleScenario.node[28].veinsmobility  posy  ETV
vector 38471  IntersectionExampleScenario.node[28].veinsmobility  speed  ETV
vector 38472  IntersectionExampleScenario.node[28].veinsmobility  acceleration  ETV
vector 38473  IntersectionExampleScenario.node[28].veinsmobility  co2emission  ETV
vector 38476  IntersectionExampleScenario.node[29].veinsmobility  posx  ETV
vector 38477  IntersectionExampleScenario.node[29].veinsmobility  posy  ETV
vector 38478  IntersectionExampleScenario.node[29].veinsmobility  speed  ETV
vector 38479  IntersectionExampleScenario.node[29].veinsmobility  acceleration  ETV
vector 38480  IntersectionExampleScenario.node[29].veinsmobility  co2emission  ETV
38396	427218 5145 3222 6321 71.5 111.25 160 0.973 11.200708441096 470.332832155 2416.8953560455
38395	432363 4997 3222 6321 71.5 111.25 160 -3.1714172363281 2.5 35.625318527222 191.76576473448
38394	437360 5138 3197 6321 71.25 111.25 161 5.6500000953674 15.02499961853 2218.9659557343 31078.519093921
38393	442498 5365 3172 6321 71 111.25 162 184.17810058594 733.92819213867 72844.595016479 37049757.583643
38392	447863 5391 3172 6321 71 111.25 162 486.85000610352 486.85000610352 78869.70098877 38397714.407765
38368	453254 6376 2086 6363 58.5 111.75 214 0.973 12.099024792222 607.91208576921 3248.682850854
38367	459630 5836 2086 6363 58.5 111.75 214 -6.9978852272034 4 41.227170944214 489.15880119239
38366	465466 6120 2063 6363 58.25 111.75 215 0 16.27499961853 2207.818998456 32375.34235052
38365	471586 7169 2040 6363 58 111.75 216 235.68029785156 486.85000610352 97038.824127197 44647055.311538
38364	478755 7169 2040 6363 58 111.75 216 483.14999389648 785.82187652588 119086.44431305 67628078.650027
vector 38483  IntersectionExampleScenario.node[30].veinsmobility  posx  ETV
vector 38484  IntersectionExampleScenario.node[30].veinsmobility  posy  ETV
vector 38485  IntersectionExampleScenario.node[30].veinsmobility  speed  ETV
vector 38486  IntersectionExampleScenario.node[30].veinsmobility  acceleration  ETV
vector 38487  IntersectionExampleScenario.node[30].veinsmobility  co2emission  ETV
38382	486325 5847 2857 6625 67.25 114.75 191 0.973 12.099024792222 577.08272057154 3178.0152604265
38381	492172 5550 2857 6625 67.25 114.75 191 -7.8777370452881 4 40.038900375366 526.47453831813
38380	497722 5710 2836 6625 67 114.75 192 0 16.27499961853 2182.0039086342 31450.575302879
38379	503432 6419 2815 6625 66.75 114.75 193 236.3984375 483.14999389648 85245.269622803 38631370.26369
38378	509851 6404 2815 6625 66.75 114.75 193 184.17810058594 483.24322509766 79247.461883545 34410778.66603
38389	516255 5674 3222 6786 71.5 116.5 181 0.97223939240464 11.648172402475 566.35781582415 3004.1349758134
38388	521929 5801 3222 6786 71.5 116.5 181 -4.5 2.5 38.680875778198 370.80192130251
38387	527730 6046 3197 6786 71.25 116.5 182 4.8635020256042 15.64999961853 2209.8224515915 29487.347051044
38386	533776 6103 3172 6786 71 116.5 183 236.08862304688 486.85000610352 80608.482513428 36520276.987216
38385	539879 6100 3172 6786 71 116.5 183 483.10922241211 785.82187652588 103451.61118317 60322001.445519
38410	545979 5555 3571 6970 75 118.5 175 0.973 11.200708441096 533.5297616253 2720.6889326933
38409	551534 5593 3571 6970 75 118.5 175 -4.5 2.5 37.492597579956 304.98221691181
38408	557127 5838 3544 6970 74.75 118.5 176 5.6500000953674 15.117906570435 2245.5889592171 30159.33017079
38407	562965 5908 3517 6970 74.5 118.5 177 236.56719970703 486.85000610352 77626.545318604 35056365.928187
38406	568873 5901 3517 6970 74.5 118.5 177 483.11651611328 795.46562957764 101442.56295013 60101199.614065
vector 38490  IntersectionExampleScenario.node[31].veinsmobility  posx  ETV
vector 38491  IntersectionExampleScenario.node[31].veinsmobility  posy  ETV
vector 38492  IntersectionExampleScenario.node[31].veinsmobility  speed  ETV
vector 38493  IntersectionExampleScenario.node[31].veinsmobility  acceleration  ETV
vector 38494  IntersectionExampleScenario.node[31].veinsmobility  co2emission  ETV
38424	575175 4928 4758 7600 88 125.5 151 0.973 12.353032912318 527.40747718987 3176.7451626
38423	580103 4483 4758 7600 88 125.5 151 -3.3768730163574 2.5 42.415441513062 279.26421849837
38422	584586 4807 4737 7600 87.75 125.5 152 5.6500000953674 16.625 2210.7825365067 33374.273842699
38421	589393 5142 4716 7600 87.5 125.5 153 483.14999389648 785.82187652588 87555.363121033 51828817.451551
38420	594535 5132 4716 7600 87.5 125.5 153 483.14999389648 733.53712463379 81855.714508057 44702819.137199
vector 38497  IntersectionExampleScenario.node[32].veinsmobility  posx  ETV
vector 38498  IntersectionExampleScenario.node[32].veinsmobility  posy  ETV
vector 38504  IntersectionExampleScenario.node[33].veinsmobility  posx  ETV
vector 38505  IntersectionExampleScenario.node[33].veinsmobility  posy  ETV
vector 38499  IntersectionExampleScenario.node[32].veinsmobility  speed  ETV
vector 38506  IntersectionExampleScenario.node[33].veinsmobility  speed  ETV
vector 38500  IntersectionExampleScenario.node[32].veinsmobility  acceleration  ETV
vector 38501  IntersectionExampleScenario.node[32].veinsmobility  co2emission  ETV
vector 38507  IntersectionExampleScenario.node[33].veinsmobility  acceleration  ETV
vector 38508  IntersectionExampleScenario.node[33].veinsmobility  co2emission  ETV
vector 38511  IntersectionExampleScenario.node[34].veinsmobility  posx  ETV
vector 38512  IntersectionExampleScenario.node[34].veinsmobility  posy  ETV
vector 38513  IntersectionExampleScenario.node[34].veinsmobility  speed  ETV
vector 38514  IntersectionExampleScenario.node[34].veinsmobility  acceleration  ETV
vector 38515  IntersectionExampleScenario.node[34].veinsmobility  co2emission  ETV
vector 38518  IntersectionExampleScenario.node[35].veinsmobility  posx  ETV
vector 38519  IntersectionExampleScenario.node[35].veinsmobility  posy  ETV
vector 38520  IntersectionExampleScenario.node[35].veinsmobility  speed  ETV
vector 38521  IntersectionExampleScenario.node[35].veinsmobility  acceleration  ETV
vector 38522  IntersectionExampleScenario.node[35].veinsmobility  co2emission  ETV
vector 38525  IntersectionExampleScenario.node[36].veinsmobility  posx  ETV
vector 38526  IntersectionExampleScenario.node[36].veinsmobility  posy  ETV
vector 38527  IntersectionExampleScenario.node[36].veinsmobility  speed  ETV
vector 38528  IntersectionExampleScenario.node[36].veinsmobility  acceleration  ETV
vector 38529  IntersectionExampleScenario.node[36].veinsmobility  co2emission  ETV
38403	601672 7279 3544 8785 74.75 136.25 247 0.973 11.810082123732 634.46151661302 3126.5591417274
38402	608951 6812 3544 8785 74.75 136.25 247 -7.3205614089966 4 38.850629806519 509.37033505865
38401	615763 6898 3517 8785 74.5 136.25 248 0 15.875 2230.7163312435 31694.709260998
38400	622661 8336 3492 8785 74.25 136.25 249 172.9296875 483.36395263672 104543.13500977 46147720.217953
38399	630997 8289 3492 8785 74.25 136.25 249 486.85000610352 735.24140930176 129477.55412292 68416135.605765
vector 38532  IntersectionExampleScenario.node[37].veinsmobility  posx  ETV
vector 38533  IntersectionExampleScenario.node[37].veinsmobility  posy  ETV
vector 38534  IntersectionExampleScenario.node[37].veinsmobility  speed  ETV
vector 38535  IntersectionExampleScenario.node[37].veinsmobility  acceleration  ETV
vector 38536  IntersectionExampleScenario.node[37].veinsmobility  co2emission  ETV
vector 38539  IntersectionExampleScenario.node[38].veinsmobility  posx  ETV
vector 38540  IntersectionExampleScenario.node[38].veinsmobility  posy  ETV
vector 38541  IntersectionExampleScenario.node[38].veinsmobility  speed  ETV
vector 38542  IntersectionExampleScenario.node[38].veinsmobility  acceleration  ETV
vector 38543  IntersectionExampleScenario.node[38].veinsmobility  co2emission  ETV
vector 38546  IntersectionExampleScenario.node[39].veinsmobility  posx  ETV
vector 38547  IntersectionExampleScenario.node[39].veinsmobility  posy  ETV
vector 38548  IntersectionExampleScenario.node[39].veinsmobility  speed  ETV
vector 38549  IntersectionExampleScenario.node[39].veinsmobility  acceleration  ETV
vector 38550  IntersectionExampleScenario.node[39].veinsmobility  co2emission  ETV
38417	640489 7226 4659 9709 86.75 147 242 0.973 11.648172402475 612.89146316154 2976.4973208493
38416	647715 6371 4659 9709 86.75 147 242 -13.30525970459 4 38.171613693237 642.02812333522
38415	654086 6811 4640 9709 86.5 147 243 0 15.64999961853 2182.4364910126 31009.660465196
38414	660897 8231 4621 9709 86.25 147 244 483.14999389648 733.1785736084 126313.24243164 66503156.342176
38413	669128 8207 4621 9709 86.25 147 244 184.17810058594 486.85000610352 103330.63720703 45831104.983255
vector 38553  IntersectionExampleScenario.node[40].veinsmobility  posx  ETV
vector 38554  IntersectionExampleScenario.node[40].veinsmobility  posy  ETV
vector 38555  IntersectionExampleScenario.node[40].veinsmobility  speed  ETV
vector 38560  IntersectionExampleScenario.node[41].veinsmobility  posx  ETV
vector 38561  IntersectionExampleScenario.node[41].veinsmobility  posy  ETV
vector 38556  IntersectionExampleScenario.node[40].veinsmobility  acceleration  ETV
vector 38557  IntersectionExampleScenario.node[40].veinsmobility  co2emission  ETV
vector 38562  IntersectionExampleScenario.node[41].veinsmobility  speed  ETV
vector 38563  IntersectionExampleScenario.node[41].veinsmobility  acceleration  ETV
vector 38564  IntersectionExampleScenario.node[41].veinsmobility  co2emission  ETV
38431	678137 6220 5503 9943 99.5 149.5 201 0.973 12.099024792222 604.43382499562 3188.9357002914
38430	684357 5784 5503 9943 99.5 149.5 201 -7.0093650817871 4 42.415441513062 508.17218956216
38429	690141 6013 5490 9943 99.25 149.5 202 0 16.284561157227 2190.0975725651 32341.9478396
38428	696154 6888 5477 9943 99 149.5 203 486.85000610352 735.15426635742 106685.71820068 57055271.681341
38427	703042 6879 5477 9943 99 149.5 203 486.75677490234 785.82187652588 112734.72353363 64501585.830846
vector 38567  IntersectionExampleScenario.node[42].veinsmobility  posx  ETV
vector 38568  IntersectionExampleScenario.node[42].veinsmobility  posy  ETV
vector 38569  IntersectionExampleScenario.node[42].veinsmobility  speed  ETV
vector 38570  IntersectionExampleScenario.node[42].veinsmobility  acceleration  ETV
vector 38571  IntersectionExampleScenario.node[42].veinsmobility  co2emission  ETV
38452	710322 6087 5689 10172 103 151.75 196 0.973 11.648172402475 548.48242731203 2779.0237096413
38451	716409 6384 5689 10172 103 151.75 196 -4.5 2.5 38.511121749878 323.97031811161
38450	722793 6678 5672 10172 102.75 151.75 197 1.658843755722 15.64999961853 2076.4637043476 26991.501837089
38449	729471 6722 5657 10172 102.5 151.75 198 483.14999389648 732.45202636719 104051.48085022 55710786.976388
38448	736193 6719 5657 10172 102.5 151.75 198 214.94219970703 486.98086547852 83287.753143311 36469981.162891
38459	742912 6198 5706 10199 103.25 152 196 0.973 11.200708441096 534.54371693819 2618.2477531068
38458	749110 6174 5706 10199 103.25 152 196 -2.8218879699707 2.5 35.455564498901 313.76850426631
38457	755284 6483 5689 10199 103 152 197 1.401982665062 15.02499961853 2236.0558410883 29247.300145328
38456	761767 6736 5672 10199 102.75 152 198 237.31048583984 486.85000610352 87627.91116333 39852513.602008
38455	768503 6725 5672 10199 102.75 152 198 482.93771362305 793.78281402588 111944.26786804 65330157.711053
vector 38574  IntersectionExampleScenario.node[43].veinsmobility  posx  ETV
vector 38575  IntersectionExampleScenario.node[43].veinsmobility  posy  ETV
38480	775382 5523 6146 10226 109.25 152.25 173 0.973 11.990504229548 541.21335548088 2955.4502166968
38479	780905 5494 6146 10226 109.25 152.25 173 -3.6213912963867 2.5000019073486 40.208654403687 291.74492874343
38478	786399 5677 6123 10226 109 152.25 174 5.4692063331604 16.125 2216.8223257065 30525.50761172
38477	792076 5959 6100 10226 108.75 152.25 175 486.85000610352 486.85000610352 85198.751068115 41479012.477524
38476	798035 5923 6100 10226 108.75 152.25 175 236.96051025391 785.82187652588 91914.075828552 52352633.157825
vector 38576  IntersectionExampleScenario.node[43].veinsmobility  speed  ETV
vector 38577  IntersectionExampleScenario.node[43].veinsmobility  acceleration  ETV
vector 38578  IntersectionExampleScenario.node[43].veinsmobility  co2emission  ETV
vector 38581  IntersectionExampleScenario.node[44].veinsmobility  posx  ETV
vector 38582  IntersectionExampleScenario.node[44].veinsmobility  posy  ETV
vector 38583  IntersectionExampleScenario.node[44].veinsmobility  speed  ETV
vector 38584  IntersectionExampleScenario.node[44].veinsmobility  acceleration  ETV
vector 38585  IntersectionExampleScenario.node[44].veinsmobility  co2emission  ETV
38438	804606 6851 5587 10493 101.25 154.5 214 0.973 10.937558092326 628.51881969004 3077.5107634816
38437	811457 6578 5587 10493 101.25 154.5 214 -32.039489746094 4 36.98334312439 1608.6721302162
38436	818035 7093 5574 10493 101 154.5 215 0 15.215419769287 2168.301630497 26999.198385213
38435	825128 7341 5561 10493 100.75 154.5 216 237.28515625 483.14999389648 96023.587677002 43728471.6119
38434	832469 7331 5561 10493 100.75 154.5 216 184.17810058594 483.39498901367 86430.069946289 36707273.507375
38445	839800 6886 5630 10645 102 155.75 216 0.973 11.00486315618 581.27330764985 2641.4393193292
38444	846686 6841 5630 10645 102 155.75 216 -4.5 2.5000019073486 35.964826583862 401.24370788975
38443	853527 7142 5615 10645 101.75 155.75 217 2.2398386001587 14.92603969574 2300.4521405697 28106.70779127
38442	860669 7428 5600 10645 101.5 155.75 218 483.14999389648 734.53282165527 114151.947052 60895999.317833
38441	868097 7415 5600 10645 101.5 155.75 218 161.1796875 486.87393188477 85189.214813232 35780120.337499
vector 38588  IntersectionExampleScenario.node[45].veinsmobility  posx  ETV
vector 38589  IntersectionExampleScenario.node[45].veinsmobility  posy  ETV
vector 38590  IntersectionExampleScenario.node[45].veinsmobility  speed  ETV
vector 38591  IntersectionExampleScenario.node[45].veinsmobility  acceleration  ETV
vector 38592  IntersectionExampleScenario.node[45].veinsmobility  co2emission  ETV
38487	875913 5381 6556 10793 114 157 173 0.973 11.716795359031 535.01231622936 3019.1219456308
38486	881294 5624 6556 10793 114 157 173 -1.9695224761963 2.5 40.157484054565 247.93198797566
38485	886918 5671 6533 10793 113.75 157 174 5.6500000953674 15.74543762207 2212.3306283951 29647.879247044
38484	892589 5976 6510 10793 113.5 157 175 483.14999389648 734.43687438965 92943.45942688 50365998.904188
38483	898565 5945 6510 10793 113.5 157 175 184.17810058594 486.85000610352 69989.085327148 29788983.538401
vector 38595  IntersectionExampleScenario.node[46].veinsmobility  posx  ETV
vector 38596  IntersectionExampleScenario.node[46].veinsmobility  posy  ETV
vector 38597  IntersectionExampleScenario.node[46].veinsmobility  speed  ETV
vector 38598  IntersectionExampleScenario.node[46].veinsmobility  acceleration  ETV
vector 38599  IntersectionExampleScenario.node[46].veinsmobility  co2emission  ETV
38466	904911 6555 5999 11142 107.5 160 211 0.973 11.648172402475 585.59300281727 2980.1412010199
38465	911466 5893 5999 11142 107.5 160 211 -6.8117866516113 4 38.850629806519 473.41515502781
38464	917359 6353 5980 11142 107.25 160 212 0 15.64999961853 2204.3913049698 31457.643736509
38463	923712 7267 5961 11142 107 160 213 238.74694824219 785.82187652588 109928.3655777 60831592.863108
38462	930979 7280 5961 11142 107 160 213 483.14999389648 483.14999389648 102910.94869995 49721424.236263
vector 38602  IntersectionExampleScenario.node[47].veinsmobility  posx  ETV
vector 38603  IntersectionExampleScenario.node[47].veinsmobility  posy  ETV
vector 38604  IntersectionExampleScenario.node[47].veinsmobility  speed  ETV
vector 38605  IntersectionExampleScenario.node[47].veinsmobility  acceleration  ETV
vector 38606  IntersectionExampleScenario.node[47].veinsmobility  co2emission  ETV
vector 38609  IntersectionExampleScenario.node[48].veinsmobility  posx  ETV
vector 38610  IntersectionExampleScenario.node[48].veinsmobility  posy  ETV
vector 38611  IntersectionExampleScenario.node[48].veinsmobility  speed  ETV
vector 38612  IntersectionExampleScenario.node[48].veinsmobility  acceleration  ETV
vector 38613  IntersectionExampleScenario.node[48].veinsmobility  co2emission  ETV
vector 38616  IntersectionExampleScenario.node[49].veinsmobility  posx  ETV
vector 38617  IntersectionExampleScenario.node[49].veinsmobility  posy  ETV
vector 38618  IntersectionExampleScenario.node[49].veinsmobility  speed  ETV
vector 38619  IntersectionExampleScenario.node[49].veinsmobility  acceleration  ETV
vector 38620  IntersectionExampleScenario.node[49].veinsmobility  co2emission  ETV
38494	939462 6173 7278 12399 122 171.75 200 0.973 12.099024792222 593.70542953375 3450.1960464388
38493	945635 6364 7278 12399 122 171.75 200 -3.7174708843231 2.5000004768372 41.396924972534 374.73344890315
38492	951999 6749 7255 12399 121.75 171.75 201 0 16.49393081665 2214.7294194438 30680.229096392
38491	958748 6893 7232 12399 121.5 171.75 202 184.17810058594 732.7917175293 90562.933822632 44611742.825902
38490	965641 6956 7232 12399 121.5 171.75 202 486.85000610352 486.85000610352 98343.70123291 47878631.545484
38473	972597 7728 6079 12399 108.5 171.75 254 0.973 11.200708441096 609.89591222142 2738.5620436973
38472	980325 6804 6079 12399 108.5 171.75 254 -8.4910678863525 4 36.304327011108 528.29559394156
38471	987129 7292 6058 12399 108.25 171.75 255 0 15.02499961853 2200.0736980438 30386.147409865
38470	994421 8769 6037 12399 108 171.75 256 184.17810058594 486.85000610352 108767.75067139 48335379.975623
38469	1003190 8783 6037 12399 108 171.75 256 236.98449707031 486.85000610352 115961.0262146 53678207.265435
38515	1011973 5907 7912 12641 128.5 174.5 185 0.973 11.648172402475 546.24470738813 2858.4211753253
38514	1017880 5788 7912 12641 128.5 174.5 185 -2.3319778442383 2.5 38.850629806519 291.09725536618
38513	1023668 6150 7883 12641 128.25 174.5 186 3.8534734249115 15.64999961853 2209.4552304745 28937.89358123
38512	1029818 6425 7854 12641 128 174.5 187 184.17810058594 486.85000610352 75190.585266113 32040681.705634
38511	1036243 6445 7854 12641 128 174.5 187 236.56549072266 486.85000610352 82668.892883301 37565753.93423
38522	1042688 6047 8286 12935 131.75 178 186 0.973 11.36141391502 562.00711332112 3047.9186974459
38521	1048735 6017 8286 12935 131.75 178 186 -4.4537086486816 2.5 35.964826583862 402.26338353005
38520	1054752 6143 8257 12935 131.5 178 187 4.2012720108032 15.25 2230.8094820976 28853.451761213
38519	1060895 6467 8228 12935 131.25 178 188 172.9296875 483.14999389648 74409.198669434 31419227.878278
38518	1067362 6499 8228 12935 131.25 178 188 486.85000610352 734.00318908691 100081.20489502 54295457.724777
38529	1073861 5794 8656 13060 135 179.5 179 0.973 11.450879080643 523.67955178294 2766.2953212255
38528	1079655 5873 8656 13060 135 179.5 179 -2.6797103881836 2.5 36.98334312439 243.17982266874
38527	1085528 5951 8627 13060 134.75 179.5 180 5.6500000953674 15.375 2271.3761820793 29991.759897729
38526	1091479 6256 8598 13060 134.5 179.5 181 167.30548095703 486.85000610352 71144.281585693 30042565.533658
38525	1097735 6268 8598 13060 134.5 179.5 181 237.85296630859 486.85000610352 79601.006225586 36020408.800432
vector 38623  IntersectionExampleScenario.node[50].veinsmobility  posx  ETV
vector 38624  IntersectionExampleScenario.node[50].veinsmobility  posy  ETV
vector 38625  IntersectionExampleScenario.node[50].veinsmobility  speed  ETV
vector 38626  IntersectionExampleScenario.node[50].veinsmobility  acceleration  ETV
vector 38627  IntersectionExampleScenario.node[50].veinsmobility  co2emission  ETV
vector 38630  IntersectionExampleScenario.node[51].veinsmobility  posx  ETV
vector 38631  IntersectionExampleScenario.node[51].veinsmobility  posy  ETV
vector 38637  IntersectionExampleScenario.node[52].veinsmobility  posx  ETV
vector 38638  IntersectionExampleScenario.node[52].veinsmobility  posy  ETV
vector 38632  IntersectionExampleScenario.node[51].veinsmobility  speed  ETV
vector 38639  IntersectionExampleScenario.node[52].veinsmobility  speed  ETV
38501	1104868 6803 7746 13237 127 181.75 220 0.973 11.810082123732 604.22882190316 3168.0869145839
38500	1111671 6424 7746 13237 127 181.75 220 -7.3511056900024 4 40.208654403687 503.45490762358
38499	1118095 6516 7719 13237 126.75 181.75 221 0 16.009784698486 2171.1476254463 31313.06452437
38498	1124611 7603 7692 13237 126.5 181.75 222 486.85000610352 731.43809509277 115930.75233459 61537273.711236
38497	1132214 7668 7692 13237 126.5 181.75 222 486.63604736328 785.82187652588 122437.91616058 69494356.612127
vector 38633  IntersectionExampleScenario.node[51].veinsmobility  acceleration  ETV
vector 38634  IntersectionExampleScenario.node[51].veinsmobility  co2emission  ETV
vector 38640  IntersectionExampleScenario.node[52].veinsmobility  acceleration  ETV
vector 38641  IntersectionExampleScenario.node[52].veinsmobility  co2emission  ETV
vector 38644  IntersectionExampleScenario.node[53].veinsmobility  posx  ETV
vector 38645  IntersectionExampleScenario.node[53].veinsmobility  posy  ETV
vector 38646  IntersectionExampleScenario.node[53].veinsmobility  speed  ETV
vector 38647  IntersectionExampleScenario.node[53].veinsmobility  acceleration  ETV
vector 38648  IntersectionExampleScenario.node[53].veinsmobility  co2emission  ETV
38508	1140621 6978 7746 13382 127 183.25 226 0.973 11.648172402475 619.45977660136 3193.0237669932
38507	1147599 6848 7746 13382 127 183.25 226 -7.1236257553101 4 41.227170944214 493.25173260484
38506	1154447 6994 7719 13382 126.75 183.25 227 0 16.376960754395 2190.0970859528 31913.618856218
38505	1161441 7874 7692 13382 126.5 183.25 228 483.14999389648 732.47026062012 118187.27767944 62310045.407609
38504	1169315 7868 7692 13382 126.5 183.25 228 184.17810058594 486.96258544922 96052.723815918 42476838.334233
vector 38651  IntersectionExampleScenario.node[54].veinsmobility  posx  ETV
vector 38652  IntersectionExampleScenario.node[54].veinsmobility  posy  ETV
vector 38653  IntersectionExampleScenario.node[54].veinsmobility  speed  ETV
38536	1177415 5997 8886 13430 137.25 183.75 187 0.973 11.648172402475 542.6610506315 2792.2631904786
38535	1183412 5918 8886 13430 137.25 183.75 187 -2.1501121520996 2.5 38.341367721558 294.4868011308
38534	1189330 6360 8861 13430 137 183.75 188 2.1420454978943 15.64999961853 2219.9829947948 29849.994568373
38533	1195690 6562 8835 13430 136.75 183.75 189 483.14999389648 483.14999389648 91315.348846436 44119010.237811
38532	1202252 6521 8835 13430 136.75 183.75 189 184.17810058594 734.09864807129 84755.300476074 42177462.804665
vector 38658  IntersectionExampleScenario.node[55].veinsmobility  posx  ETV
vector 38659  IntersectionExampleScenario.node[55].veinsmobility  posy  ETV
vector 38654  IntersectionExampleScenario.node[54].veinsmobility  acceleration  ETV
vector 38655  IntersectionExampleScenario.node[54].veinsmobility  co2emission  ETV
vector 38660  IntersectionExampleScenario.node[55].veinsmobility  speed  ETV
vector 38661  IntersectionExampleScenario.node[55].veinsmobility  acceleration  ETV
vector 38662  IntersectionExampleScenario.node[55].veinsmobility  co2emission  ETV
vector 38665  IntersectionExampleScenario.node[56].veinsmobility  posx  ETV
vector 38666  IntersectionExampleScenario.node[56].veinsmobility  posy  ETV
vector 38667  IntersectionExampleScenario.node[56].veinsmobility  speed  ETV
vector 38668  IntersectionExampleScenario.node[56].veinsmobility  acceleration  ETV
vector 38669  IntersectionExampleScenario.node[56].veinsmobility  co2emission  ETV
38550	1209744 5485 9541 13701 145 186.25 166 0.97223939240464 11.810082123732 553.45137934416 3329.8531893455
38549	1215229 5346 9541 13701 145 186.25 166 -3.1561050415039 2.5 38.680875778198 349.72804964779
38548	1220575 5484 9520 13701 144.75 186.25 167 5.6500000953674 15.875 2178.6544923782 29966.933903503
38547	1226059 5849 9499 13701 144.5 186.25 168 486.85000610352 731.92272949219 89853.776641846 48983535.422165
38546	1231908 5853 9499 13701 144.5 186.25 168 486.85000610352 785.82187652588 96038.939002991 56643809.877234
vector 38672  IntersectionExampleScenario.node[57].veinsmobility  posx  ETV
vector 38673  IntersectionExampleScenario.node[57].veinsmobility  posy  ETV
vector 38674  IntersectionExampleScenario.node[57].veinsmobility  speed  ETV
vector 38675  IntersectionExampleScenario.node[57].veinsmobility  acceleration  ETV
vector 38676  IntersectionExampleScenario.node[57].veinsmobility  co2emission  ETV
38557	1238162 5603 9818 14134 148.25 190.25 169 0.973 11.36141391502 508.95871745934 2779.9243459917
38556	1243765 5581 9818 14134 148.25 190.25 169 -4.0947875976562 2.5 36.134572982788 268.90470719006
38555	1249346 5609 9795 14134 148 190.25 170 5.6500000953674 15.25 2236.1143541336 30597.615854669
38554	1254955 5965 9772 14134 147.75 190.25 171 486.85000610352 734.79330444336 91837.470611572 50307459.477774
38553	1260920 5965 9772 14134 147.75 190.25 171 486.83660888672 797.07032012939 98495.45778656 58691090.453792
vector 38679  IntersectionExampleScenario.node[58].veinsmobility  posx  ETV
vector 38680  IntersectionExampleScenario.node[58].veinsmobility  posy  ETV
vector 38681  IntersectionExampleScenario.node[58].veinsmobility  speed  ETV
vector 38682  IntersectionExampleScenario.node[58].veinsmobility  acceleration  ETV
vector 38683  IntersectionExampleScenario.node[58].veinsmobility  co2emission  ETV
38543	1267286 6638 9353 14618 142.75 195 210 0.973 11.90022389248 596.06399283555 3157.4472524686
38542	1273924 6223 9353 14618 142.75 195 210 -9.4772481918335 4 39.699392318726 527.69622030924
38541	1280147 6422 9332 14618 142.5 195 211 0 16 2205.7052555084 31768.479776785
38540	1286569 7383 9311 14618 142.25 195 212 483.14999389648 785.82187652588 117259.97357941 66834082.980133
38539	1293952 7386 9311 14618 142.25 195 212 483.14999389648 733.64456176758 110686.84732056 58846863.01725
38571	1301338 5932 10172 14861 151.75 197.25 183 0.97223939240464 11.810082123732 547.9664449918 3035.0255261262
38570	1307270 5989 10172 14861 151.75 197.25 183 -2.9248046875 2.5 38.680875778198 327.12361393875
38569	1313259 6097 10145 14861 151.5 197.25 184 2.958438873291 15.875 2179.6401758194 29080.926145877
38568	1319356 6470 10118 14861 151.25 197.25 185 486.85000610352 785.82187652588 104899.44580841 61263154.758157
38567	1325826 6466 10118 14861 151.25 197.25 185 238.25189208984 483.14999389648 81331.989013672 36715779.947638
38578	1332292 6221 10284 15050 152.75 199 186 0.973 11.810082123732 590.92680798029 3169.1608802393
38577	1338513 5869 10284 15050 152.75 199 186 -4.5 2.5 41.227170944214 455.23341706137
38576	1344382 6213 10255 15050 152.5 199 187 3.1931371688843 16.009840011597 2268.7929797173 31285.463284879
38575	1350595 6567 10226 15050 152.25 199 188 486.68353271484 807.99687957764 108178.19556427 64346799.238458
38574	1357162 6572 10226 15050 152.25 199 188 238.27325439453 483.14999389648 83069.746734619 37644476.818441
38606	1363734 5389 11342 15409 161.75 202.5 164 0.973 11.990504229548 507.29703766889 2833.5522655911
38605	1369123 5345 11342 15409 161.75 202.5 164 -3.3814392089844 2.5 39.699392318726 232.63949766031
38604	1374468 5523 11313 15409 161.5 202.5 165 5.6500000953674 16.125 2222.4701194763 31055.146983887
38603	1379991 5799 11284 15409 161.25 202.5 166 235.62646484375 785.82187652588 86951.792579651 49676038.974701
38602	1385790 5811 11284 15409 161.25 202.5 166 483.14999389648 483.14999389648 80202.898986816 38750030.155961
38585	1391601 6465 10462 15409 154.25 202.5 194 0.973 10.916047529558 545.99322062047 2601.2659197246
38584	1398066 6394 10462 15409 154.25 202.5 194 -4.5 2.5 36.25687789917 317.4806006971
38583	1404460 6550 10431 15409 154 202.5 195 3.6099820137024 14.780443191528 2310.4700994492 29813.966497728
38582	1411010 6837 10400 15409 153.75 202.5 196 486.85000610352 817.21138000488 113687.97678375 68298230.529081
38581	1417847 6850 10400 15409 153.75 202.5 196 237.048828125 483.14999389648 86180.74520874 38916962.245007
vector 38686  IntersectionExampleScenario.node[59].veinsmobility  posx  ETV
vector 38687  IntersectionExampleScenario.node[59].veinsmobility  posy  ETV
vector 38688  IntersectionExampleScenario.node[59].veinsmobility  speed  ETV
vector 38689  IntersectionExampleScenario.node[59].veinsmobility  acceleration  ETV
vector 38690  IntersectionExampleScenario.node[59].veinsmobility  co2emission  ETV
vector 38693  IntersectionExampleScenario.node[60].veinsmobility  posx  ETV
vector 38694  IntersectionExampleScenario.node[60].veinsmobility  posy  ETV
38564	1425252 7320 9868 15771 148.75 206.75 233 0.973 11.200708441096 584.39744376069 2701.9326214014
38563	1432572 6688 9868 15771 148.75 206.75 233 -8.817081451416 4 36.134572982788 469.56263670059
38562	1439260 7033 9843 15771 148.5 206.75 234 0 15.02499961853 2197.2257316113 30078.361975184
38561	1446293 8193 9818 15771 148.25 206.75 235 184.17810058594 486.85000610352 98812.710571289 43620365.530269
38560	1454486 8216 9818 15771 148.25 206.75 235 237.55419921875 486.85000610352 105752.82202148 48710187.049799
vector 38695  IntersectionExampleScenario.node[60].veinsmobility  speed  ETV
vector 38696  IntersectionExampleScenario.node[60].veinsmobility  acceleration  ETV
vector 38697  IntersectionExampleScenario.node[60].veinsmobility  co2emission  ETV
vector 38700  IntersectionExampleScenario.node[61].veinsmobility  posx  ETV
vector 38701  IntersectionExampleScenario.node[61].veinsmobility  posy  ETV
vector 38702  IntersectionExampleScenario.node[61].veinsmobility  speed  ETV
vector 38703  IntersectionExampleScenario.node[61].veinsmobility  acceleration  ETV
vector 38704  IntersectionExampleScenario.node[61].veinsmobility  co2emission  ETV
vector 38707  IntersectionExampleScenario.node[62].veinsmobility  posx  ETV
vector 38708  IntersectionExampleScenario.node[62].veinsmobility  posy  ETV
vector 38709  IntersectionExampleScenario.node[62].veinsmobility  speed  ETV
vector 38710  IntersectionExampleScenario.node[62].veinsmobility  acceleration  ETV
vector 38711  IntersectionExampleScenario.node[62].veinsmobility  co2emission  ETV
vector 38714  IntersectionExampleScenario.node[63].veinsmobility  posx  ETV
vector 38715  IntersectionExampleScenario.node[63].veinsmobility  posy  ETV
vector 38716  IntersectionExampleScenario.node[63].veinsmobility  speed  ETV
vector 38717  IntersectionExampleScenario.node[63].veinsmobility  acceleration  ETV
vector 38718  IntersectionExampleScenario.node[63].veinsmobility  co2emission  ETV
38592	1464152 7506 10764 16411 156.75 217 242 0.973 11.90022389248 628.22325197706 3143.0772845177
38591	1471658 6916 10764 16411 156.75 217 242 -23.469203948975 4 39.869146347046 974.83346067692
38590	1478574 7051 10734 16411 156.5 217 243 0 16 2207.7156276703 32209.613271854
38589	1485625 8535 10703 16411 156.25 217 244 235.83721923828 486.85000610352 110519.36605835 51162148.576529
38588	1494160 8532 10703 16411 156.25 217 244 483.14999389648 785.82187652588 133150.36670685 74720964.97767
38599	1502692 7464 10997 16471 158.75 218 238 0.973 11.200708441096 589.50427713397 2725.1724827353
38598	1510156 6768 10997 16471 158.75 218 238 -8.6544361114502 4 35.795072555542 478.35014899822
38597	1516924 7188 10968 16471 158.5 218 239 0 15.02499961853 2218.0963418484 30381.505709367
38596	1524112 8400 10938 16471 158.25 218 240 483.14999389648 483.14999389648 115955.99853516 56024139.984521
38595	1532512 8378 10938 16471 158.25 218 240 184.17810058594 735.35032653809 109757.18598938 54533307.306567
vector 38721  IntersectionExampleScenario.node[64].veinsmobility  posx  ETV
vector 38722  IntersectionExampleScenario.node[64].veinsmobility  posy  ETV
38613	1541044 7517 11462 16546 162.75 219.25 227 0.973 11.200708441096 588.66197848468 2744.9185323185
38612	1548561 7466 11462 16546 162.75 219.25 227 -4.5 2.5000002384186 37.15309715271 416.73488868513
38611	1556027 7766 11431 16546 162.5 219.25 228 0 15.02499961853 2203.8587139826 29841.578571
38610	1563793 7999 11400 16546 162.25 219.25 229 236.93713378906 483.14999389648 102309.2071228 46769449.874021
38609	1571792 7978 11400 16546 162.25 219.25 229 177.97814941406 483.32571411133 94811.49697876 41323492.993252
vector 38723  IntersectionExampleScenario.node[64].veinsmobility  speed  ETV
vector 38724  IntersectionExampleScenario.node[64].veinsmobility  acceleration  ETV
vector 38725  IntersectionExampleScenario.node[64].veinsmobility  co2emission  ETV
38620	1580017 6627 12238 16682 170 221.25 206 0.973 11.200708441096 555.09579551958 2617.6389013428
38619	1586644 6993 12238 16682 170 221.25 206 -2.1334800720215 2.5 36.98334312439 296.90144164817
38618	1593637 7218 12214 16682 169.75 221.25 207 0.98132240772247 15.02499961853 2205.9725644588 28485.133225734
38617	1600855 7252 12189 16682 169.5 221.25 208 236.68487548828 486.85000610352 92627.746124268 42325743.2562
38616	1608107 7269 12189 16682 169.5 221.25 208 483.06878662109 785.82187652588 116391.28528595 67050965.33724
38655	1615376 5206 13455 16784 184 222.75 156 0.973 12.099024792222 568.96289443421 3547.2762367355
38654	1620582 5011 13455 16784 184 222.75 156 -3.3372745513916 2.5 41.736440658569 341.21205055607
38653	1625593 5179 13430 16784 183.75 222.75 157 5.6500000953674 16.27499961853 2191.0554423332 32153.401684568
38652	1630772 5517 13405 16784 183.5 222.75 158 235.34173583984 483.14999389648 68443.007995605 30549997.863823
38651	1636289 5506 13405 16784 183.5 222.75 158 184.17810058594 483.14999389648 62809.048034668 26674346.846602
38634	1641795 5572 13260 16852 182 223.75 168 0.973 11.36141391502 550.15094395351 3265.7409900078
38633	1647367 5363 13260 16852 182 223.75 168 -3.8253517150879 2.5 35.964826583862 363.99420904421
38632	1652730 5591 13237 16852 181.75 223.75 169 5.6500000953674 15.25 2185.514298439 29422.517142373
38631	1658321 5942 13214 16852 181.5 223.75 170 486.85000610352 733.73377990723 91298.091766357 50005153.611882
38630	1664263 5943 13214 16852 181.5 223.75 170 486.80557250977 785.82187652588 97261.783287048 57424177.871753
38669	1670206 5226 13620 16937 185.5 225 159 0.973 12.017054428452 545.10738435391 3172.0354188956
38668	1675432 5277 13620 16937 185.5 225 159 -4.1370506286621 2.5 41.587331771851 312.94407511408
38667	1680709 5290 13592 16937 185.25 225 160 5.6500000953674 16.161724090576 2127.8621764183 29745.348193243
38666	1685999 5628 13563 16937 185 225 161 486.85000610352 733.80474853516 86497.205444336 47396379.399792
38665	1691627 5623 13563 16937 185 225 161 486.85000610352 771.18830108643 91172.434249878 53158978.558861
vector 38728  IntersectionExampleScenario.node[65].veinsmobility  posx  ETV
vector 38729  IntersectionExampleScenario.node[65].veinsmobility  posy  ETV
vector 38730  IntersectionExampleScenario.node[65].veinsmobility  speed  ETV
vector 38731  IntersectionExampleScenario.node[65].veinsmobility  acceleration  ETV
vector 38732  IntersectionExampleScenario.node[65].veinsmobility  co2emission  ETV
38648	1697651 5817 13333 16989 182.75 225.75 173 0.973 11.990504229548 597.91719945254 3392.2175707608
38647	1703468 5467 13333 16989 182.75 225.75 173 -4.5 2.5 39.869146347046 457.02803111557
38646	1708935 5833 13308 16989 182.5 225.75 174 5.6499996185303 16.125 2306.0977239609 32031.022183001
38645	1714768 6127 13283 16989 182.25 225.75 175 486.85000610352 486.85000610352 85198.751068115 41479012.477524
38644	1720895 6099 13283 16989 182.25 225.75 175 237.728515625 808.82032012939 95459.567008972 57075263.713932
38676	1726994 5506 13810 17108 187.25 227.5 162 0.973 11.200708441096 488.8189491426 2519.0395698726
38675	1732500 5247 13810 17108 187.25 227.5 162 -3.1198654174805 2.5 37.32285118103 219.12812115095
38674	1737747 5513 13783 17108 187 227.5 163 5.6500000953674 15.223085403442 2248.7926931381 31879.304736859
38673	1743260 5731 13755 17108 186.75 227.5 164 483.14999389648 732.31715393066 87722.05619812 47891913.209395
38672	1748991 5710 13755 17108 186.75 227.5 164 172.9296875 486.87634277344 64543.555206299 27365668.613357
38662	1754701 5951 13509 17193 184.5 228.75 178 0.973 10.933754836192 569.56308600694 2984.0156912278
38661	1760652 6047 13509 17193 184.5 228.75 178 -4.5 2.5 40.691736221313 317.70319194561
38660	1766699 5986 13482 17193 184.25 228.75 179 5.6500000953674 16.015892028809 2303.2559776306 31463.949260996
38659	1772685 6294 13455 17193 184 228.75 180 486.85000610352 731.95623779297 95700.317276001 51834270.273003
38658	1778979 6291 13455 17193 184 228.75 180 486.83508300781 816.55704498291 106243.23311615 65188552.017317
vector 38735  IntersectionExampleScenario.node[66].veinsmobility  posx  ETV
vector 38736  IntersectionExampleScenario.node[66].veinsmobility  posy  ETV
vector 38737  IntersectionExampleScenario.node[66].veinsmobility  speed  ETV
vector 38738  IntersectionExampleScenario.node[66].veinsmobility  acceleration  ETV
vector 38739  IntersectionExampleScenario.node[66].veinsmobility  co2emission  ETV
38641	1785671 6311 13260 17299 182 230.25 194 0.97223939240464 11.648172402475 577.8875520369 3048.5263639716
38640	1791982 5787 13260 17299 182 230.25 194 -6.8643207550049 4 38.680875778198 493.25548090098
38639	1797769 6158 13237 17299 181.75 230.25 195 0 15.64999961853 2204.2657690048 31264.027622036
38638	1803927 6855 13214 17299 181.5 230.25 196 483.14999389648 785.82187652588 109390.3506546 62982315.473654
38637	1810782 6854 13214 17299 181.5 230.25 196 483.14999389648 733.78205871582 103100.35681152 55275834.702857
vector 38742  IntersectionExampleScenario.node[67].veinsmobility  posx  ETV
vector 38743  IntersectionExampleScenario.node[67].veinsmobility  posy  ETV
38627	1817790 7433 13195 17927 181.25 241 240 0.973 11.90022389248 622.52399561788 3124.6850490688
38626	1825223 6716 13195 17927 181.25 241 240 -6.9388580322266 4 39.869146347046 483.42859168984
38625	1831939 7078 13176 17927 181 241 241 0 16 2206.8656001091 31827.855714461
38624	1839017 8446 13156 17927 180.75 241 242 184.17810058594 486.85000610352 102540.55664062 45501828.49954
38623	1847463 8464 13156 17927 180.75 241 242 235.83721923828 486.85000610352 109545.66604614 50688102.719643
vector 38744  IntersectionExampleScenario.node[67].veinsmobility  speed  ETV
vector 38745  IntersectionExampleScenario.node[67].veinsmobility  acceleration  ETV
vector 38746  IntersectionExampleScenario.node[67].veinsmobility  co2emission  ETV
38704	1856174 5191 16114 18233 211.75 249.5 152 0.973 11.990504229548 480.56587504167 2612.2460010431
38703	1861365 4755 16114 18233 211.75 249.5 152 -3.0983085632324 2.5 39.699392318726 198.74124400146
38702	1866120 5105 16099 18233 211.5 249.5 153 5.6500000953674 16.125 2223.7700643539 33036.011175474
38701	1871225 5352 16084 18233 211.25 249.5 154 184.17810058594 734.81689453125 69104.698577881 35120460.892283
38700	1876577 5391 16084 18233 211.25 249.5 154 486.85000610352 486.85000610352 74974.900939941 36501530.980221
38683	1881968 7083 14564 18305 194.5 251.5 229 0.973 11.90022389248 616.53717815892 3179.4282162283
38682	1889051 6795 14564 18305 194.5 251.5 229 -7.1652641296387 4 40.378400802612 494.17118351545
38681	1895846 6821 14537 18305 194.25 251.5 230 0 16 2181.5979747772 31482.893458863
38680	1902667 8078 14510 18305 194 251.5 231 483.14999389648 732.74102783203 119724.88925171 63116586.336241
38679	1910745 8058 14510 18305 194 251.5 231 184.17810058594 486.85000610352 97298.588409424 43007706.176503
vector 38749  IntersectionExampleScenario.node[68].veinsmobility  posx  ETV
vector 38750  IntersectionExampleScenario.node[68].veinsmobility  posy  ETV
38697	1918957 6022 15809 18341 207.25 252.5 182 0.973 11.450879080643 543.24036947008 2799.3329483342
38696	1924979 5624 15809 18341 207.25 252.5 182 -6.7711477279663 4 36.98334312439 456.08212473492
38695	1930603 5974 15790 18341 207 252.5 183 0 15.375 2209.3353545666 30725.485793837
38694	1936577 6440 15771 18341 206.75 252.5 184 486.85000610352 486.85000610352 89580.401123047 43612218.833511
38693	1943017 6433 15771 18341 206.75 252.5 184 237.32635498047 785.82187652588 95370.256141663 53639454.064885
vector 38751  IntersectionExampleScenario.node[68].veinsmobility  speed  ETV
vector 38752  IntersectionExampleScenario.node[68].veinsmobility  acceleration  ETV
vector 38753  IntersectionExampleScenario.node[68].veinsmobility  co2emission  ETV
38690	1949697 6292 15560 18374 204.25 253.25 197 0.973 11.648172402475 553.02237054925 2897.7234155506
38689	1955989 6549 15560 18374 204.25 253.25 197 -2.1501121520996 2.5 38.341367721558 313.4902375083
38688	1962538 6773 15537 18374 204 253.25 198 1.0894556045532 15.64999961853 2212.2239854336 29620.854840818
38687	1969311 6965 15514 18374 203.75 253.25 199 483.14999389648 483.14999389648 96146.8487854 46453349.403832
38686	1976276 6929 15514 18374 203.75 253.25 199 184.17810058594 732.32995605469 89255.633392334 44165926.234893
vector 38756  IntersectionExampleScenario.node[69].veinsmobility  posx  ETV
vector 38757  IntersectionExampleScenario.node[69].veinsmobility  posy  ETV
38711	1983359 5326 16265 18418 214.5 254.25 160 0.973 11.90022389248 553.42216959186 3222.793853234
38710	1988685 5044 16265 18418 214.5 254.25 160 -3.7365684509277 2.5 41.227170944214 323.5189420494
38709	1993729 5329 16251 18418 214.25 254.25 161 5.6500000953674 16 2207.0709075928 31679.393258752
38708	1999058 5665 16236 18418 214 254.25 162 236.93096923828 486.85000610352 70825.584259033 31902804.762507
38707	2004723 5664 16236 18418 214 254.25 162 482.95635986328 785.82187652588 92552.325035095 54628634.614567
vector 38758  IntersectionExampleScenario.node[69].veinsmobility  speed  ETV
vector 38759  IntersectionExampleScenario.node[69].veinsmobility  acceleration  ETV
vector 38760  IntersectionExampleScenario.node[69].veinsmobility  co2emission  ETV
38718	2010634 5381 16321 18496 215.5 255.75 162 0.973 11.648172402475 519.05585918399 2935.3646656414
38717	2016015 5140 16321 18496 215.5 255.75 162 -2.1022872924805 2.5 39.529638290405 246.38558724962
38716	2021155 5473 16306 18496 215.25 255.75 163 5.6500000953674 15.64999961853 2215.0669136047 31137.412371803
38715	2026628 5740 16291 18496 215 255.75 164 483.14999389648 483.14999389648 79236.598999023 38283162.322756
38714	2032368 5705 16291 18496 215 255.75 164 184.17810058594 732.92904663086 73127.725662231 36703308.565925
vector 38763  IntersectionExampleScenario.node[70].veinsmobility  posx  ETV
vector 38764  IntersectionExampleScenario.node[70].veinsmobility  posy  ETV
vector 38765  IntersectionExampleScenario.node[70].veinsmobility  speed  ETV
vector 38766  IntersectionExampleScenario.node[70].veinsmobility  acceleration  ETV
vector 38767  IntersectionExampleScenario.node[70].veinsmobility  co2emission  ETV
vector 38770  IntersectionExampleScenario.node[71].veinsmobility  posx  ETV
vector 38771  IntersectionExampleScenario.node[71].veinsmobility  posy  ETV
vector 38772  IntersectionExampleScenario.node[71].veinsmobility  speed  ETV
vector 38773  IntersectionExampleScenario.node[71].veinsmobility  acceleration  ETV
vector 38774  IntersectionExampleScenario.node[71].veinsmobility  co2emission  ETV
vector 38777  IntersectionExampleScenario.node[72].veinsmobility  posx  ETV
vector 38778  IntersectionExampleScenario.node[72].veinsmobility  posy  ETV
vector 38779  IntersectionExampleScenario.node[72].veinsmobility  speed  ETV
vector 38780  IntersectionExampleScenario.node[72].veinsmobility  acceleration  ETV
vector 38781  IntersectionExampleScenario.node[72].veinsmobility  co2emission  ETV
vector 38784  IntersectionExampleScenario.node[73].veinsmobility  posx  ETV
vector 38785  IntersectionExampleScenario.node[73].veinsmobility  posy  ETV
vector 38786  IntersectionExampleScenario.node[73].veinsmobility  speed  ETV
vector 38787  IntersectionExampleScenario.node[73].veinsmobility  acceleration  ETV
vector 38788  IntersectionExampleScenario.node[73].veinsmobility  co2emission  ETV
vector 38791  IntersectionExampleScenario.node[74].veinsmobility  posx  ETV
vector 38792  IntersectionExampleScenario.node[74].veinsmobility  posy  ETV
vector 38793  IntersectionExampleScenario.node[74].veinsmobility  speed  ETV
vector 38794  IntersectionExampleScenario.node[74].veinsmobility  acceleration  ETV
vector 38795  IntersectionExampleScenario.node[74].veinsmobility  co2emission  ETV
vector 38798  IntersectionExampleScenario.node[75].veinsmobility  posx  ETV
vector 38799  IntersectionExampleScenario.node[75].veinsmobility  posy  ETV
vector 38800  IntersectionExampleScenario.node[75].veinsmobility  speed  ETV
vector 38801  IntersectionExampleScenario.node[75].veinsmobility  acceleration  ETV
vector 38802  IntersectionExampleScenario.node[75].veinsmobility  co2emission  ETV
38725	2040479 7082 16580 19844 219.75 276 226 0.973 11.90022389248 608.90199561788 3111.4308430688
38724	2047561 6421 16580 19844 219.75 276 226 -6.9388580322266 4 39.869146347046 483.42859168984
38723	2053982 6785 16563 19844 219.5 276 227 0 16 2206.8656001091 31827.855714461
38722	2060767 7957 16546 19844 219.25 276 228 184.17810058594 486.85000610352 95938.156555176 42388136.578944
38721	2068724 7975 16546 19844 219.25 276 228 235.83721923828 486.85000610352 102729.76596069 47369781.721441
38732	2076699 6690 16989 19919 225.75 277.25 207 0.973 11.648172402475 574.66490592917 2939.0337705134
38731	2083389 6874 16989 19919 225.75 277.25 207 -3.741096496582 2.5000002384186 39.190130233765 357.13730505287
38730	2090263 7108 16972 19919 225.5 277.25 208 0 15.64999961853 2217.4129472561 30456.656280134
38729	2097371 7285 16954 19919 225.25 277.25 209 184.17810058594 733.63885498047 94224.61505127 46601499.731362
38728	2104656 7316 16954 19919 225.25 277.25 209 486.85000610352 486.85000610352 101751.65127563 49537792.044585
38746	2111972 5195 17945 20099 241.5 280.25 156 0.973 12.099024792222 566.9400710785 3722.7181465006
38745	2117167 4825 17945 20099 241.5 280.25 156 -3.2099838256836 2.5 41.227170944214 338.40109179312
38744	2121992 5196 17936 20099 241.25 280.25 157 5.6500000953674 16.27499961853 2207.6485242844 32184.841341098
38743	2127188 5497 17927 20099 241 280.25 158 184.17810058594 486.88079833984 62833.882080078 26724137.731762
38742	2132685 5525 17927 20099 241 280.25 158 236.94360351562 486.85000610352 68877.258972168 30953636.034677
vector 38805  IntersectionExampleScenario.node[76].veinsmobility  posx  ETV
vector 38806  IntersectionExampleScenario.node[76].veinsmobility  posy  ETV
vector 38807  IntersectionExampleScenario.node[76].veinsmobility  speed  ETV
vector 38808  IntersectionExampleScenario.node[76].veinsmobility  acceleration  ETV
vector 38809  IntersectionExampleScenario.node[76].veinsmobility  co2emission  ETV
vector 38812  IntersectionExampleScenario.node[77].veinsmobility  posx  ETV
vector 38813  IntersectionExampleScenario.node[77].veinsmobility  posy  ETV
vector 38814  IntersectionExampleScenario.node[77].veinsmobility  speed  ETV
vector 38815  IntersectionExampleScenario.node[77].veinsmobility  acceleration  ETV
vector 38816  IntersectionExampleScenario.node[77].veinsmobility  co2emission  ETV
38739	2139012 7416 17299 20627 230.25 288.5 234 0.973 10.756497587458 560.86028741963 2422.5381245251
38738	2146428 6653 17299 20627 230.25 288.5 234 -9.1816129684448 4 32.909269332886 458.47958563836
38737	2153081 7143 17280 20627 230 288.5 235 0 14.39999961853 2174.017226696 28253.595764363
38736	2160224 8199 17261 20627 229.75 288.5 236 486.85000610352 732.37574768066 123783.87135315 66044494.233078
38735	2168423 8253 17261 20627 229.75 288.5 236 486.63604736328 785.82187652588 130329.61446381 74048989.892577
vector 38819  IntersectionExampleScenario.node[78].veinsmobility  posx  ETV
vector 38820  IntersectionExampleScenario.node[78].veinsmobility  posy  ETV
vector 38821  IntersectionExampleScenario.node[78].veinsmobility  speed  ETV
vector 38822  IntersectionExampleScenario.node[78].veinsmobility  acceleration  ETV
vector 38823  IntersectionExampleScenario.node[78].veinsmobility  co2emission  ETV
vector 38826  IntersectionExampleScenario.node[79].veinsmobility  posx  ETV
vector 38827  IntersectionExampleScenario.node[79].veinsmobility  posy  ETV
vector 38828  IntersectionExampleScenario.node[79].veinsmobility  speed  ETV
vector 38829  IntersectionExampleScenario.node[79].veinsmobility  acceleration  ETV
vector 38830  IntersectionExampleScenario.node[79].veinsmobility  co2emission  ETV
38753	2177478 5448 18363 20910 253 292.25 158 0.973 11.200708441096 459.94954698944 2214.6057482136
38752	2182926 4897 18363 20910 253 292.25 158 -3.4818496704102 2.5 36.474081039429 177.10562459569
38751	2187823 5350 18352 20910 252.75 292.25 159 5.6500000953674 15.02499961853 2220.3934650421 31545.182214062
38750	2193173 5600 18341 20910 252.5 292.25 160 483.14999389648 483.14999389648 77303.999023438 37349426.656348
38749	2198773 5574 18341 20910 252.5 292.25 160 184.17810058594 734.28512573242 71958.904418945 36620631.865385
vector 38833  IntersectionExampleScenario.node[80].veinsmobility  posx  ETV
vector 38834  IntersectionExampleScenario.node[80].veinsmobility  posy  ETV
vector 38835  IntersectionExampleScenario.node[80].veinsmobility  speed  ETV
vector 38836  IntersectionExampleScenario.node[80].veinsmobility  acceleration  ETV
vector 38837  IntersectionExampleScenario.node[80].veinsmobility  co2emission  ETV
vector 38840  IntersectionExampleScenario.node[81].veinsmobility  posx  ETV
vector 38841  IntersectionExampleScenario.node[81].veinsmobility  posy  ETV
vector 38842  IntersectionExampleScenario.node[81].veinsmobility  speed  ETV
vector 38843  IntersectionExampleScenario.node[81].veinsmobility  acceleration  ETV
vector 38844  IntersectionExampleScenario.node[81].veinsmobility  co2emission  ETV
vector 38847  IntersectionExampleScenario.node[82].veinsmobility  posx  ETV
vector 38848  IntersectionExampleScenario.node[82].veinsmobility  posy  ETV
vector 38849  IntersectionExampleScenario.node[82].veinsmobility  speed  ETV
vector 38850  IntersectionExampleScenario.node[82].veinsmobility  acceleration  ETV
vector 38851  IntersectionExampleScenario.node[82].veinsmobility  co2emission  ETV
38774	2205550 5143 18676 21256 258.75 296 150 0.973 11.200708441096 491.18326898776 2424.2541239702
38773	2210693 4797 18676 21256 258.75 296 150 -3.541633605957 2.5 41.396924972534 194.88200968437
38772	2215490 5059 18659 21256 258.5 296 151 5.6500000953674 16.021320343018 2223.7821989059 33539.597479201
38771	2220549 5320 18642 21256 258.25 296 152 483.14999389648 483.14999389648 73438.799072266 35481955.32353
38770	2225869 5284 18642 21256 258.25 296 152 184.17810058594 734.79138183594 68096.865875244 34563368.703964
vector 38854  IntersectionExampleScenario.node[83].veinsmobility  posx  ETV
vector 38855  IntersectionExampleScenario.node[83].veinsmobility  posy  ETV
vector 38856  IntersectionExampleScenario.node[83].veinsmobility  speed  ETV
vector 38857  IntersectionExampleScenario.node[83].veinsmobility  acceleration  ETV
vector 38858  IntersectionExampleScenario.node[83].veinsmobility  co2emission  ETV
vector 38861  IntersectionExampleScenario.node[84].veinsmobility  posx  ETV
vector 38862  IntersectionExampleScenario.node[84].veinsmobility  posy  ETV
vector 38863  IntersectionExampleScenario.node[84].veinsmobility  speed  ETV
vector 38864  IntersectionExampleScenario.node[84].veinsmobility  acceleration  ETV
vector 38865  IntersectionExampleScenario.node[84].veinsmobility  co2emission  ETV
vector 38868  IntersectionExampleScenario.node[85].veinsmobility  posx  ETV
vector 38869  IntersectionExampleScenario.node[85].veinsmobility  posy  ETV
vector 38870  IntersectionExampleScenario.node[85].veinsmobility  speed  ETV
vector 38871  IntersectionExampleScenario.node[85].veinsmobility  acceleration  ETV
vector 38872  IntersectionExampleScenario.node[85].veinsmobility  co2emission  ETV
vector 38875  IntersectionExampleScenario.node[86].veinsmobility  posx  ETV
vector 38876  IntersectionExampleScenario.node[86].veinsmobility  posy  ETV
vector 38877  IntersectionExampleScenario.node[86].veinsmobility  speed  ETV
vector 38882  IntersectionExampleScenario.node[87].veinsmobility  posx  ETV
vector 38883  IntersectionExampleScenario.node[87].veinsmobility  posy  ETV
vector 38878  IntersectionExampleScenario.node[86].veinsmobility  acceleration  ETV
vector 38879  IntersectionExampleScenario.node[86].veinsmobility  co2emission  ETV
vector 38884  IntersectionExampleScenario.node[87].veinsmobility  speed  ETV
vector 38885  IntersectionExampleScenario.node[87].veinsmobility  acceleration  ETV
vector 38886  IntersectionExampleScenario.node[87].veinsmobility  co2emission  ETV
vector 38889  IntersectionExampleScenario.node[88].veinsmobility  posx  ETV
vector 38890  IntersectionExampleScenario.node[88].veinsmobility  posy  ETV
vector 38891  IntersectionExampleScenario.node[88].veinsmobility  speed  ETV
vector 38892  IntersectionExampleScenario.node[88].veinsmobility  acceleration  ETV
vector 38893  IntersectionExampleScenario.node[88].veinsmobility  co2emission  ETV
38760	2233559 7329 18444 22970 254.75 312.5 232 0.973 10.916047529558 565.10534894223 2529.0708171508
38759	2240888 6776 18444 22970 254.75 312.5 232 -7.0879330635071 4 33.588277816772 438.56450643612
38758	2247664 7070 18431 22970 254.5 312.5 233 0 14.625 2185.0652257204 28729.772087228
38757	2254734 8170 18418 22970 254.25 312.5 234 184.17810058594 483.36395263672 97744.4246521 42892986.007117
38756	2262904 8122 18418 22970 254.25 312.5 234 486.85000610352 735.32281494141 122909.74766541 65701810.732171
vector 38896  IntersectionExampleScenario.node[89].veinsmobility  posx  ETV
vector 38897  IntersectionExampleScenario.node[89].veinsmobility  posy  ETV
vector 38898  IntersectionExampleScenario.node[89].veinsmobility  speed  ETV
38767	2271258 7587 18552 23041 256.75 313.25 227 0.973 11.00486315618 586.0319539895 2624.907483438
38766	2278845 7169 18552 23041 256.75 313.25 227 -4.5 2.5 35.964826583862 423.30183463195
38765	2286014 7581 18537 23041 256.5 313.25 228 0 14.75 2283.909771191 30829.185423603
38764	2293595 7964 18522 23041 256.25 313.25 229 166.078125 486.86468505859 93934.762329102 40871979.539044
38763	2301559 8009 18522 23041 256.25 313.25 229 235.49279785156 486.85000610352 102665.809021 47166563.024542
vector 38899  IntersectionExampleScenario.node[89].veinsmobility  acceleration  ETV
vector 38900  IntersectionExampleScenario.node[89].veinsmobility  co2emission  ETV
38802	2309737 5809 19522 23241 271.25 315.25 177 0.973 11.648172402475 532.58186644141 2785.6505963875
38801	2315546 5764 19522 23241 271.25 315.25 177 -2.2052955627441 2.5 38.171613693237 274.24178822679
38800	2321310 5959 19505 23241 271 315.25 178 5.0156435966492 15.64999961853 2215.679915905 29651.111002619
38799	2327269 6236 19488 23241 270.75 315.25 179 184.17810058594 486.85473632812 71950.174926758 30728590.151811
38798	2333505 6252 19488 23241 270.75 315.25 179 235.09777832031 486.85000610352 78594.021514893 35533740.49608
vector 38903  IntersectionExampleScenario.node[90].veinsmobility  posx  ETV
vector 38904  IntersectionExampleScenario.node[90].veinsmobility  posy  ETV
vector 38905  IntersectionExampleScenario.node[90].veinsmobility  speed  ETV
vector 38906  IntersectionExampleScenario.node[90].veinsmobility  acceleration  ETV
vector 38907  IntersectionExampleScenario.node[90].veinsmobility  co2emission  ETV
vector 38910  IntersectionExampleScenario.node[91].veinsmobility  posx  ETV
vector 38911  IntersectionExampleScenario.node[91].veinsmobility  posy  ETV
vector 38912  IntersectionExampleScenario.node[91].veinsmobility  speed  ETV
vector 38913  IntersectionExampleScenario.node[91].veinsmobility  acceleration  ETV
vector 38914  IntersectionExampleScenario.node[91].veinsmobility  co2emission  ETV
38781	2340559 7805 18813 23946 260.75 323 250 0.973 11.200708441096 601.10028336705 2702.1260664852
38780	2348364 6998 18813 23946 260.75 323 250 -7.2094254493713 4 35.455564498901 447.8279607729
38779	2355362 7469 18796 23946 260.5 323 251 0 15.02499961853 2254.2244576216 30504.02363275
38778	2362831 8756 18778 23946 260.25 323 252 235.55383300781 483.14999389648 113094.65036011 51884704.673453
38777	2371587 8775 18778 23946 260.25 323 252 166.078125 483.36395263672 104909.51501465 46101632.986817
vector 38917  IntersectionExampleScenario.node[92].veinsmobility  posx  ETV
vector 38918  IntersectionExampleScenario.node[92].veinsmobility  posy  ETV
vector 38919  IntersectionExampleScenario.node[92].veinsmobility  speed  ETV
vector 38920  IntersectionExampleScenario.node[92].veinsmobility  acceleration  ETV
vector 38921  IntersectionExampleScenario.node[92].veinsmobility  co2emission  ETV
38788	2380763 7919 18989 24208 263.5 326 251 0.973 10.756497587458 578.34433705154 2391.2170391015
38787	2388682 7445 18989 24208 263.5 326 251 -7.102258682251 4 32.739515304565 427.77253709639
38786	2396127 7885 18972 24208 263.25 326 252 0 14.39999961853 2194.2331466638 28451.743854601
38785	2404012 8841 18955 24208 263 326 253 237.00720214844 486.85000610352 113951.54208374 52523079.059776
38784	2412853 8842 18955 24208 263 326 253 483.01712036133 785.82187652588 138533.31116486 78015005.92041
38795	2421695 7992 19044 24231 264.25 326.25 249 0.973 11.36141391502 605.56064795957 2646.1397345857
38794	2429687 7586 19044 24231 264.25 326.25 249 -4.5 2.5 35.964826583862 437.78217072518
38793	2437273 7767 19025 24231 264 326.25 250 0 15.25 2275.9323543711 30484.642604893
38792	2445040 8777 19006 24231 263.75 326.25 251 486.85000610352 733.15184020996 130688.11486816 69150457.001908
38791	2453817 8758 19006 24231 263.75 326.25 251 486.85000610352 808.82032012939 140091.81904602 80662654.052673
38816	2462575 5774 20287 24323 283.5 327.25 176 0.973 11.781192379403 581.30631516321 3242.4933068352
38815	2468349 5868 20287 24323 283.5 327.25 176 -3.8286209106445 2.5 40.739591598511 365.20016639654
38814	2474217 6049 20270 24323 283.25 327.25 177 5.6500000953674 15.834897994995 2182.9596586227 28696.152391257
38813	2480266 6215 20253 24323 283 327.25 178 237.39453125 483.14999389648 77172.430999756 34466032.850956
38812	2486481 6198 20253 24323 283 327.25 178 184.17810058594 483.14999389648 71654.167266846 30626954.986896
vector 38924  IntersectionExampleScenario.node[93].veinsmobility  posx  ETV
vector 38925  IntersectionExampleScenario.node[93].veinsmobility  posy  ETV
vector 38926  IntersectionExampleScenario.node[93].veinsmobility  speed  ETV
38809	2492911 5924 20223 24371 282.5 327.75 182 0.973 11.648172402475 547.45320059227 2901.9437620302
38808	2498835 5858 20223 24371 282.5 327.75 182 -2.1867713928223 2.5 39.869146347046 291.89052049615
38807	2504693 6102 20208 24371 282.25 327.75 183 3.5392801761627 15.64999961853 2188.1741466522 29377.074781525
38806	2510795 6429 20193 24371 282 327.75 184 486.85000610352 733.76904296875 97621.479812622 52760080.068194
38805	2517224 6431 20193 24371 282 327.75 184 486.85000610352 785.82187652588 104444.91399384 61050653.27596
vector 38927  IntersectionExampleScenario.node[93].veinsmobility  acceleration  ETV
vector 38928  IntersectionExampleScenario.node[93].veinsmobility  co2emission  ETV
[...]
41377	14898713 5440 124340 128094 1727.75 1766 154 -4.021671295166 2.5 39.699392318726 265.32841676582
41376	14904153 5437 124315 128094 1727.5 1766 155 5.6500000953674 16.071252822876 2203.5287275314 32333.859650744
41375	14909590 5770 124290 128094 1727.25 1766 156 483.14999389648 732.44219970703 83554.454574585 45681812.87626
41374	14915360 5738 124290 128094 1727.25 1766 156 184.17810058594 487.0569152832 62009.792572021 26401833.659615
vector 41465  IntersectionExampleScenario.node[456].veinsmobility  posx  ETV
vector 41466  IntersectionExampleScenario.node[456].veinsmobility  posy  ETV
vector 41467  IntersectionExampleScenario.node[456].veinsmobility  speed  ETV
vector 41468  IntersectionExampleScenario.node[456].veinsmobility  acceleration  ETV
vector 41469  IntersectionExampleScenario.node[456].veinsmobility  co2emission  ETV
vector 41472  IntersectionExampleScenario.node[457].veinsmobility  posx  ETV
vector 41473  IntersectionExampleScenario.node[457].veinsmobility  posy  ETV
vector 41479  IntersectionExampleScenario.node[458].veinsmobility  posx  ETV
vector 41480  IntersectionExampleScenario.node[458].veinsmobility  posy  ETV
vector 41474  IntersectionExampleScenario.node[457].veinsmobility  speed  ETV
41350	14921895 7153 123322 128447 1716.5 1769.75 214 0.973 12.099024792222 604.19104907872 3221.6435680359
41349	14929048 6677 123322 128447 1716.5 1769.75 214 -7.2880325317383 4 41.057416915894 489.2655858791
41348	14935725 6916 123299 128447 1716.25 1769.75 215 0 16.27499961853 2181.4381747246 31742.808872615
41347	14942641 7983 123276 128447 1716 1769.75 216 486.63604736328 785.82187652588 119346.87621307 67883854.091415
41346	14950624 7924 123276 128447 1716 1769.75 216 236.07275390625 483.14999389648 96450.41696167 44075048.340448
vector 41475  IntersectionExampleScenario.node[457].veinsmobility  acceleration  ETV
vector 41476  IntersectionExampleScenario.node[457].veinsmobility  co2emission  ETV
vector 41481  IntersectionExampleScenario.node[458].veinsmobility  speed  ETV
vector 41482  IntersectionExampleScenario.node[458].veinsmobility  acceleration  ETV
vector 41483  IntersectionExampleScenario.node[458].veinsmobility  co2emission  ETV
vector 41486  IntersectionExampleScenario.node[459].veinsmobility  posx  ETV
vector 41487  IntersectionExampleScenario.node[459].veinsmobility  posy  ETV
vector 41488  IntersectionExampleScenario.node[459].veinsmobility  speed  ETV
vector 41489  IntersectionExampleScenario.node[459].veinsmobility  acceleration  ETV
vector 41490  IntersectionExampleScenario.node[459].veinsmobility  co2emission  ETV
vector 41493  IntersectionExampleScenario.node[460].veinsmobility  posx  ETV
vector 41494  IntersectionExampleScenario.node[460].veinsmobility  posy  ETV
vector 41495  IntersectionExampleScenario.node[460].veinsmobility  speed  ETV
vector 41496  IntersectionExampleScenario.node[460].veinsmobility  acceleration  ETV
vector 41497  IntersectionExampleScenario.node[460].veinsmobility  co2emission  ETV
41357	14959781 7441 123595 128733 1719.5 1772.25 212 0.973 11.810082123732 591.3669323479 3049.8600704013
41356	14967222 7347 123595 128733 1719.5 1772.25 212 -4.5 2.5000009536743 39.869146347046 420.03883567727
41355	14974569 7608 123572 128733 1719.25 1772.25 213 0 15.875 2226.5028208904 31368.959670748
41354	14982177 7899 123549 128733 1719 1772.25 214 486.8395690918 798.59687805176 119977.60932159 69377689.944739
41353	14990076 7905 123549 128733 1719 1772.25 214 238.84851074219 483.14999389648 95519.409057617 43622433.58835
vector 41500  IntersectionExampleScenario.node[461].veinsmobility  posx  ETV
vector 41501  IntersectionExampleScenario.node[461].veinsmobility  posy  ETV
vector 41502  IntersectionExampleScenario.node[461].veinsmobility  speed  ETV
vector 41503  IntersectionExampleScenario.node[461].veinsmobility  acceleration  ETV
vector 41504  IntersectionExampleScenario.node[461].veinsmobility  co2emission  ETV
vector 41507  IntersectionExampleScenario.node[462].veinsmobility  posx  ETV
vector 41508  IntersectionExampleScenario.node[462].veinsmobility  posy  ETV
41371	14998543 7274 124340 129712 1727.75 1781.25 215 0.97223939240464 11.648172402475 588.94376922157 2981.024282937
41370	15005817 6665 124340 129712 1727.75 1781.25 215 -7.1630792617798 4 38.680875778198 475.21272998936
41369	15012482 7057 124315 129712 1727.5 1781.25 216 0 15.64999961853 2217.0011982918 31576.668155059
41368	15019539 7996 124290 129712 1727.25 1781.25 217 184.17810058594 734.53523254395 98795.572418213 49153048.120034
41367	15027535 8030 124290 129712 1727.25 1781.25 217 486.85000610352 486.85000610352 105646.45132446 51433975.472129
vector 41509  IntersectionExampleScenario.node[462].veinsmobility  speed  ETV
vector 41510  IntersectionExampleScenario.node[462].veinsmobility  acceleration  ETV
vector 41511  IntersectionExampleScenario.node[462].veinsmobility  co2emission  ETV
41385	15035815 7709 124444 129930 1728.75 1783.5 220 0.973 11.00486315618 564.0702812921 2515.9095293729
41384	15043524 7522 124444 129930 1728.75 1783.5 220 -4.5 2.5 34.437047958374 392.1939123252
41383	15051046 7804 124417 129930 1728.5 1783.5 221 0 14.75 2291.9877927396 30252.568300344
41382	15058850 8193 124390 129930 1728.25 1783.5 222 162.00311279297 487.05368041992 90023.257202148 38924205.792901
41381	15067043 8206 124390 129930 1728.25 1783.5 222 237.24877929688 486.85000610352 99162.814880371 45421757.567994
vector 41514  IntersectionExampleScenario.node[463].veinsmobility  posx  ETV
vector 41515  IntersectionExampleScenario.node[463].veinsmobility  posy  ETV
vector 41516  IntersectionExampleScenario.node[463].veinsmobility  speed  ETV
vector 41517  IntersectionExampleScenario.node[463].veinsmobility  acceleration  ETV
vector 41518  IntersectionExampleScenario.node[463].veinsmobility  co2emission  ETV
41392	15075655 7630 124630 130053 1730.5 1784.75 218 0.973 11.54047740176 603.31434474892 2865.7739379323
41391	15083285 7601 124630 130053 1730.5 1784.75 218 -4.5 2.5 37.492597579956 463.19884885038
41390	15090886 7913 124603 130053 1730.25 1784.75 219 0 15.5 2343.631374266 31634.767945444
41389	15098799 8090 124576 130053 1730 1784.75 220 153.85467529297 735.39750671387 96528.889175415 47330229.08264
41388	15106889 8140 124576 130053 1730 1784.75 220 486.85000610352 486.85000610352 107107.00134277 52145044.257458
vector 41521  IntersectionExampleScenario.node[464].veinsmobility  posx  ETV
vector 41522  IntersectionExampleScenario.node[464].veinsmobility  posy  ETV
vector 41523  IntersectionExampleScenario.node[464].veinsmobility  speed  ETV
vector 41524  IntersectionExampleScenario.node[464].veinsmobility  acceleration  ETV
vector 41525  IntersectionExampleScenario.node[464].veinsmobility  co2emission  ETV
vector 41528  IntersectionExampleScenario.node[465].veinsmobility  posx  ETV
vector 41529  IntersectionExampleScenario.node[465].veinsmobility  posy  ETV
vector 41530  IntersectionExampleScenario.node[465].veinsmobility  speed  ETV
vector 41531  IntersectionExampleScenario.node[465].veinsmobility  acceleration  ETV
vector 41532  IntersectionExampleScenario.node[465].veinsmobility  co2emission  ETV
vector 41535  IntersectionExampleScenario.node[466].veinsmobility  posx  ETV
vector 41536  IntersectionExampleScenario.node[466].veinsmobility  posy  ETV
vector 41537  IntersectionExampleScenario.node[466].veinsmobility  speed  ETV
vector 41538  IntersectionExampleScenario.node[466].veinsmobility  acceleration  ETV
vector 41539  IntersectionExampleScenario.node[466].veinsmobility  co2emission  ETV
41427	15116247 5881 126677 130767 1750.5 1791.25 164 0.973 11.36141391502 493.09962632924 2581.4212800182
41426	15122128 5493 126677 130767 1750.5 1791.25 164 -3.5891742706299 2.5 35.964826583862 268.88141109557
41425	15127621 5782 126656 130767 1750.25 1791.25 165 5.6500000953674 15.25 2185.01689291 30091.63973049
41424	15133403 6107 126634 130767 1750 1791.25 166 184.17810058594 483.21524047852 66034.037567139 28045524.268368
41423	15139510 6137 126634 130767 1750 1791.25 166 486.85000610352 733.70579528809 89348.637619019 49054584.602944
vector 41542  IntersectionExampleScenario.node[467].veinsmobility  posx  ETV
vector 41543  IntersectionExampleScenario.node[467].veinsmobility  posy  ETV
vector 41544  IntersectionExampleScenario.node[467].veinsmobility  speed  ETV
vector 41545  IntersectionExampleScenario.node[467].veinsmobility  acceleration  ETV
vector 41546  IntersectionExampleScenario.node[467].veinsmobility  co2emission  ETV
41406	15146053 7722 125105 130910 1735 1792.5 231 0.973 11.36141391502 588.97098256408 2805.5502077943
41405	15153775 7046 125105 130910 1735 1792.5 231 -8.4870233535767 4 37.15309715271 476.36027920365
41404	15160821 7400 125076 130910 1734.75 1792.5 232 0 15.25 2176.74477458 30094.703439055
41403	15168221 8556 125047 130910 1734.5 1792.5 233 236.84155273438 483.14999389648 104236.61026001 47699467.149107
41402	15176777 8602 125047 130910 1734.5 1792.5 233 184.17810058594 483.36395263672 97729.992645264 43016654.956249
41399	15185379 7948 125020 130997 1734.25 1793.25 237 0.973 11.00486315618 579.66203301268 2600.4782194613
41398	15193327 7186 125020 130997 1734.25 1793.25 237 -9.2687568664551 4 34.606801986694 481.52837339951
41397	15200513 7670 124993 130997 1734 1793.25 238 0 14.75 2214.838476181 29825.319639003
41396	15208183 8843 124966 130997 1733.75 1793.25 239 486.85000610352 486.85000610352 116357.15145874 56648479.897875
41395	15217026 8827 124966 130997 1733.75 1793.25 239 235.27844238281 785.82187652588 122594.95680237 67278631.129554
41413	15225853 8102 125341 131084 1737 1794 229 0.973 11.450879080643 597.24550526792 2840.4978640245
41412	15233955 7866 125341 131084 1737 1794 229 -4.5 2.5000002384186 37.15309715271 432.62312646252
41411	15241821 8266 125310 131084 1736.75 1794 230 0 15.375 2287.9593425673 31422.341742671
41410	15250087 8537 125279 131084 1736.5 1794 231 483.14999389648 735.45359802246 120323.8473053 63812224.109623
41409	15258624 8505 125279 131084 1736.5 1794 231 166.078125 486.86715698242 95027.968017578 41421500.88937
41420	15267129 6269 126634 131200 1750 1795 181 0.97223939240464 11.648172402475 539.17760806545 2795.2808848748
41419	15273398 6274 126634 131200 1750 1795 181 -2.0591773986816 2.5 38.680875778198 284.22651935583
41418	15279672 6515 126613 131200 1749.75 1795 182 3.3408823013306 15.64999961853 2224.7411663532 30032.555405643
41417	15286187 6770 126592 131200 1749.5 1795 183 483.14999389648 483.14999389648 88416.448883057 42718406.738198
41416	15292957 6732 126592 131200 1749.5 1795 183 184.17810058594 734.97415161133 81872.763504028 40805272.653496
41448	15299689 5518 127420 131554 1759.25 1798.25 157 0.973 12.099024792222 574.499500679 3710.3290618177
41447	15305207 5071 127420 131554 1759.25 1798.25 157 -3.291332244873 2.5000038146973 40.887662887573 339.19583191592
41446	15310278 5562 127397 131554 1759 1798.25 158 5.6500000953674 16.27499961853 2203.806769371 31797.506212399
41445	15315840 5875 127374 131554 1758.75 1798.25 159 483.14999389648 732.04756164551 84849.510345459 46202806.349526
41444	15321715 5863 127374 131554 1758.75 1798.25 159 184.17810058594 486.85095214844 63159.013549805 26831189.496016
41434	15327578 5785 126972 131741 1754 1800 185 0.973 11.200708441096 418.04157912597 1763.4240388212
41433	15333363 5435 126972 131741 1754 1800 185 -7.0314569473267 4 8.3999996185303 417.30500007176
41432	15338798 5528 126951 131741 1753.75 1800 186 0 16.729139328003 1268.283952713 17978.890031814
41431	15344326 6884 126929 131741 1753.5 1800 187 174.53436279297 483.36395263672 75060.318328857 32019528.002477
41430	15351210 6909 126929 131741 1753.5 1800 187 486.85000610352 498.5234375 91092.854705811 44374205.953164
41441	15358119 5987 127164 131741 1756.25 1800 176 0.973 12.099024792222 546.36633118284 3150.8322009886
41440	15364106 5821 127164 131741 1756.25 1800 176 -9.4888134002686 4 40.887678146362 535.3553578168
41439	15369927 5822 127142 131741 1756 1800 177 0 16.27499961853 1916.4607441425 27780.548738683
41438	15375749 6575 127119 131741 1755.75 1800 178 311.05377197266 785.82187652588 96608.764259338 55223104.972205
41437	15382324 6585 127119 131741 1755.75 1800 178 483.14999389648 483.14999389648 86000.698913574 41551237.155187
41455	15388909 5296 127631 131741 1761.5 1800 155 0.973 12.099024792222 505.93524520449 3043.4855684295
41454	15394205 5413 127631 131741 1761.5 1800 155 -3.5344657897949 2.5 41.057554244995 365.8994201304
41453	15399618 5529 127606 131741 1761.25 1800 156 1.2243802547455 16.27499961853 1822.0341131687 25167.547653692
41452	15405147 5789 127581 131741 1761 1800 157 482.94573974609 785.82187652588 90451.135246277 53747066.255326
41451	15410936 5804 127581 131741 1761 1800 157 483.14999389648 636.76776123047 78986.445892334 39992919.297989
41462	15416740 4717 127910 131741 1764.25 1800 144 0.973 11.648172402475 352.58016081774 1734.2532640955
41461	15421457 5187 127910 131741 1764.25 1800 144 -3.7085783481598 2.5000009536743 13.39999961853 281.06119553318
41460	15426644 5305 127883 131741 1764 1800 145 0 15.64999961853 1195.3887259122 14620.638411299
41459	15431949 5366 127856 131741 1763.75 1800 146 184.17810058594 479.83010864258 55116.779998779 22156196.58465
41458	15437315 5401 127856 131741 1763.75 1800 146 484.44570922852 486.85000610352 71075.111328125 34600497.774381
41469	15442716 4125 128353 131741 1768.75 1800 126 0.973 11.648172402475 302.75321852595 1506.3266768715
41468	15446841 4682 128353 131741 1768.75 1800 126 -4.4338531494141 2.5 0.2640438079834 257.4999424413
41467	15451523 4676 128329 131741 1768.5 1800 127 1.5488505363464 15.64999961853 1119.9574871063 13470.386400643
41466	15456199 4703 128304 131741 1768.25 1800 128 184.17810058594 462.68621826172 46068.585235596 17665687.178236
41465	15460902 4736 128304 131741 1768.25 1800 128 486.85000610352 486.85000610352 62316.80078125 30338934.840703
41476	15465638 3977 128474 131741 1770 1800 121 0.973 11.200708441096 286.33088545919 1337.8644697087
41475	15469615 3817 128474 131741 1770 1800 121 -7.5428676605225 2.5 -22.60000038147 314.86937316267
41474	15473432 4051 128447 131741 1769.75 1800 122 0 15.02499961853 1146.4485878944 15593.979968867
41473	15477483 4550 128422 131741 1769.5 1800 123 486.85000610352 486.85000610352 59882.550750732 29153820.198488
41472	15482033 4544 128422 131741 1769.5 1800 123 498.39999389648 785.82187652588 74450.533256531 46331075.696853
41483	15486577 4039 128501 131741 1770.25 1800 120 0.973 11.648172402475 301.04537335086 1500.2194884899
41482	15490616 4259 128501 131741 1770.25 1800 120 -4.5 2.5 -11.556597709656 294.09819852443
41481	15494875 4455 128474 131741 1770 1800 121 1.1870529651642 15.651133537292 1157.2422733307 14659.095727898
41480	15499330 4480 128447 131741 1769.75 1800 122 163.88433837891 451.89068603516 41700.242553711 15409233.740988
41479	15503810 4513 128447 131741 1769.75 1800 122 486.85000610352 486.85000610352 59395.700744629 28916797.270045
41490	15508323 3833 128613 131741 1771.25 1800 116 0.973 11.200708441096 284.06693764434 1343.4855782589
41489	15512156 3678 128613 131741 1771.25 1800 116 -6.7711095809937 2.5 -22.60000038147 295.80706608753
41488	15515834 3933 128584 131741 1771 1800 117 0 15.02499961853 1147.4392580986 15754.918830419
41487	15519767 4365 128555 131741 1770.75 1800 118 483.14999389648 483.14999389648 57011.699279785 27545202.159056
41486	15524132 4338 128555 131741 1770.75 1800 118 184.17810058594 471.60000610352 42619.505187988 16606934.916268
41497	15528470 3937 128733 131741 1772.25 1800 112 0.973 11.648172402475 415.26748183456 2723.5402931216
41496	15532407 3792 128733 131741 1772.25 1800 112 -3.4495162963867 2.5 38.225805282593 294.93760600957
41495	15536199 3875 128702 131741 1772 1800 113 5.6500000953674 15.64999961853 1452.5864801407 19797.879590834
41494	15540074 4209 128671 131741 1771.75 1800 114 486.85000610352 785.82187652588 69384.635063171 43472528.630236
41493	15544283 4198 128671 131741 1771.75 1800 114 419.8141784668 483.14999389648 54420.818206787 26001619.780447
41504	15548481 3310 129100 131741 1775.25 1800 100 0.973 11.200708441096 268.62161546638 1355.5325985311
41503	15551791 3632 129100 131741 1775.25 1800 100 -4.2964057922363 2.5 -22.205000221729 241.03641186314
41502	15555423 3711 129069 131741 1775 1800 101 0 15.665707588196 1117.7472194843 15436.605311038
41501	15559134 3773 129038 131741 1774.75 1800 102 486.85000610352 486.85000610352 49658.700622559 24176338.701185
41500	15562907 3772 129038 131741 1774.75 1800 102 505.97943115234 785.82187652588 63792.43245697 40854935.651342
41511	15566679 2540 129762 131741 1781.75 1800 74 0.973 11.648172402475 232.8562796755 1373.4126127376
41510	15569219 2679 129762 131741 1781.75 1800 74 -2.0975685119629 2.5 7.1712093353271 156.16557231135
41509	15571898 2757 129737 131741 1781.5 1800 75 5.6500000953674 15.64999961853 980.70381116867 13456.749100898
41508	15574655 2812 129712 131741 1781.25 1800 76 483.14999389648 483.14999389648 36719.399536133 17740977.661765
41507	15577467 2791 129712 131741 1781.25 1800 76 184.17810058594 426.91253662109 23023.412567139 7440095.3510942
41518	15580258 2344 130003 131741 1784.25 1800 64 0.973 10.756497587458 208.74412589508 1120.1980208082
41517	15582602 2302 130003 131741 1784.25 1800 64 -2.2759132385254 2.5 31.313554763794 92.888181123872
41516	15584904 2392 129978 131741 1784 1800 65 5.6500000953674 14.39999961853 862.35294151306 11755.838466601
41515	15587296 2441 129953 131741 1783.75 1800 66 483.14999389648 483.14999389648 31887.899597168 15406638.495743
41514	15589737 2420 129953 131741 1783.75 1800 66 168.58435058594 379.65567016602 17530.983032227 4939131.6002811
41525	15592157 2097 130157 131741 1785.75 1800 58 0.973 11.200708441096 204.58951571972 1215.2256242504
41524	15594254 2103 130157 131741 1785.75 1800 58 -1.8577346801758 2.5 30.651887893677 103.51328769247
41523	15596357 2170 130130 131741 1785.5 1800 59 5.6500000953674 15.02499961853 793.09513568878 11008.42051921
41522	15598527 2220 130103 131741 1785.25 1800 60 486.85000610352 486.85000610352 29211.000366211 14221375.70658
41521	15600747 2215 130103 131741 1785.25 1800 60 592.09918212891 785.82187652588 41860.613639832 29424647.74265
41532	15602962 1795 130404 131741 1788 1800 49 0.97223939240464 11.648172402475 200.2204185136 1324.4131992232
41531	15604757 1744 130404 131741 1788 1800 49 -1.4380493164062 2.5 37.242948532104 102.31656192386
41530	15606501 1835 130375 131741 1787.75 1800 50 5.6500000953674 15.64999961853 687.24692726135 9852.5215096316
41529	15608336 1866 130346 131741 1787.5 1800 51 184.17810058594 350.93890380859 13160.535766602 3536169.4688298
41528	15610202 1886 130346 131741 1787.5 1800 51 486.85000610352 486.85000610352 24829.350311279 12088169.350593
41539	15612088 1396 130713 131741 1790.75 1800 38 2.2506769263306 11.200708441096 188.467387773 1247.2548046896
41538	15613484 1267 130713 131741 1790.75 1800 38 -0.0025100708007812 2.5 41.397668838501 94.841128497548
41537	15614751 1431 130686 131741 1790.5 1800 39 5.6500000953674 16.001739501953 527.18199062347 7535.5244947928
41536	15616182 1480 130658 131741 1790.25 1800 40 486.85000610352 486.85000610352 19474.000244141 9480917.1377197
41535	15617662 1478 130658 131741 1790.25 1800 40 659.37113952637 785.82187652588 29280.369911194 21496967.032334
41546	15619140 1214 130852 131741 1792 1800 33 1.7373410990981 10.756497587458 149.86583081174 1006.9430484704
41545	15620354 1117 130852 131741 1792 1800 33 -0.098300933837891 2.5 34.735830307007 87.616836028963
41544	15621471 1249 130823 131741 1791.75 1800 34 5.6500000953674 14.39999961853 422.51219558716 5514.7184756759
41543	15622720 1294 130794 131741 1791.5 1800 35 483.14999389648 483.14999389648 16910.249786377 8170187.0810761
41542	15624014 1276 130794 131741 1791.5 1800 35 184.17810058594 285.05291748047 7962.084777832 1847059.527509
38269	15625290 628 0 131740 0 1800 31 0 20 378 4990
38270	15625918 639 0 131740 0 1800 31 0 144 2205 209457
