version 2
run nodebug-17-20200606-18:40:31-22420
attr configname nodebug
attr datetime 20200606-18:40:31
attr experiment nodebug
attr inifile omnetpp.ini
attr iterationvars ""
attr iterationvars2 $repetition=17
attr measurement ""
attr network "\"org.car2x.veins.modules.application.ExtTraCIScenarioManagerLaunchd.IntersectionExampleScenario\""
attr processid 22420
attr repetition 17
attr replication #17
attr resultdir results
attr runnumber 17
attr seedset 17
param **.coreDebug false
param **.debug false
param *.**.nic.mac1609_4.bitrate 18Mbps
param *.**.nic.mac1609_4.txPower 20mW
param *.**.nic.mac1609_4.useServiceChannel false
param *.**.nic.phy80211p.analogueModels "xmldoc(\"config.xml\")"
param *.**.nic.phy80211p.decider "xmldoc(\"config.xml\")"
param *.**.nic.phy80211p.sensitivity -89dBm
param *.**.nic.phy80211p.thermalNoise -110dBm
param *.**.nic.phy80211p.usePropagationDelay true
param *.**.nic.phy80211p.useThermalNoise true
param *.annotations.draw false
param *.connectionManager.alpha 2.0
param *.connectionManager.carrierFrequency "5.890e9 Hz"
param *.connectionManager.pMax 20mW
param *.connectionManager.sat -89dBm
param *.connectionManager.sendDirect true
param *.manager.autoShutdown true
param *.manager.host "\"localhost\""
param *.manager.launchConfig "xmldoc(\"paramics.launchd.xml\")"
param *.manager.margin 25
param *.manager.moduleDisplayString "\"\""
param *.manager.moduleName "\"node\""
param *.manager.moduleType "\"org.car2x.veins.nodes.Car\""
param *.manager.port 9999
param *.manager.updateInterval 250ms
param *.node[*0].veinsmobility.accidentCount 0
param *.node[*0].veinsmobility.accidentDuration 30s
param *.node[*0].veinsmobility.accidentStart 75s
param *.node[*].appl.LiderSelectZoneRadio 55.0
param *.node[*].appl.ShareDataZoneRadio 110.0
param *.node[*].appl.TiempoSemaforo 30.0
param *.node[*].appl.beaconInterval 1s
param *.node[*].appl.beaconPriority 3
param *.node[*].appl.dataOnSch false
param *.node[*].appl.dataPriority 2
param *.node[*].appl.debug false
param *.node[*].appl.headerLength "256 bit"
param *.node[*].appl.maxOffset 0.005s
param *.node[*].appl.sendBeacons false
param *.node[*].appl.sendData true
param *.node[*].applType "\"Dummy\""
param *.node[*].mobilityType "\"TraCIMobility\""
param *.node[*].mobilityType.debug true
param *.node[*].veinsmobility.x 0
param *.node[*].veinsmobility.y 0
param *.node[*].veinsmobility.z 1.895
param *.node[*].veinsmobilityType "\"org.car2x.veins.modules.mobility.traci.TraCIMobility\""
param *.node[*].veinsmobilityType.debug true
param *.playgroundSizeX 8500m
param *.playgroundSizeY 8500m
param *.playgroundSizeZ 50m
param *.world.use2D false
param *.world.useTorus false

scalar IntersectionExampleScenario.node[0].appl 	VehicleRemoved 	0
scalar IntersectionExampleScenario.node[0].appl 	ArrivedAtDest 	1
scalar IntersectionExampleScenario.node[0].appl 	IntersectionEnterTime 	9
scalar IntersectionExampleScenario.node[0].appl 	IntersectionExitTime 	32.508487544488
scalar IntersectionExampleScenario.node[0].appl 	NumberOfCollisions 	0
scalar IntersectionExampleScenario.node[0].nic.phy80211p 	busyTime 	0
scalar IntersectionExampleScenario.node[0].nic.mac1609_4 	ReceivedUnicastPackets 	0
scalar IntersectionExampleScenario.node[0].nic.mac1609_4 	ReceivedBroadcasts 	0
scalar IntersectionExampleScenario.node[0].nic.mac1609_4 	SentPackets 	0
scalar IntersectionExampleScenario.node[0].nic.mac1609_4 	SNIRLostPackets 	0
scalar IntersectionExampleScenario.node[0].nic.mac1609_4 	RXTXLostPackets 	0
scalar IntersectionExampleScenario.node[0].nic.mac1609_4 	TotalLostPackets 	0
scalar IntersectionExampleScenario.node[0].nic.mac1609_4 	DroppedPacketsInMac 	0
scalar IntersectionExampleScenario.node[0].nic.mac1609_4 	TooLittleTime 	0
scalar IntersectionExampleScenario.node[0].nic.mac1609_4 	TimesIntoBackoff 	0
scalar IntersectionExampleScenario.node[0].nic.mac1609_4 	SlotsBackoff 	0
scalar IntersectionExampleScenario.node[0].nic.mac1609_4 	NumInternalContention 	0
scalar IntersectionExampleScenario.node[0].nic.mac1609_4 	totalBusyTime 	0
scalar IntersectionExampleScenario.node[0].veinsmobility 	startTime 	9
scalar IntersectionExampleScenario.node[0].veinsmobility 	totalTime 	40
scalar IntersectionExampleScenario.node[0].veinsmobility 	stopTime 	49.25
scalar IntersectionExampleScenario.node[0].veinsmobility 	minSpeed 	5.6500000953674
scalar IntersectionExampleScenario.node[0].veinsmobility 	maxSpeed 	15.02499961853
scalar IntersectionExampleScenario.node[0].veinsmobility 	totalDistance 	551.1623916626
scalar IntersectionExampleScenario.node[0].veinsmobility 	totalCO2Emission 	113.5050478188
scalar IntersectionExampleScenario.node[2].appl 	VehicleRemoved 	0
scalar IntersectionExampleScenario.node[2].appl 	ArrivedAtDest 	1
scalar IntersectionExampleScenario.node[2].appl 	IntersectionEnterTime 	13.5
scalar IntersectionExampleScenario.node[2].appl 	IntersectionExitTime 	37.507505584595
scalar IntersectionExampleScenario.node[2].appl 	NumberOfCollisions 	0
scalar IntersectionExampleScenario.node[2].nic.phy80211p 	busyTime 	0
scalar IntersectionExampleScenario.node[2].nic.mac1609_4 	ReceivedUnicastPackets 	0
scalar IntersectionExampleScenario.node[2].nic.mac1609_4 	ReceivedBroadcasts 	0
scalar IntersectionExampleScenario.node[2].nic.mac1609_4 	SentPackets 	0
scalar IntersectionExampleScenario.node[2].nic.mac1609_4 	SNIRLostPackets 	0
scalar IntersectionExampleScenario.node[2].nic.mac1609_4 	RXTXLostPackets 	0
scalar IntersectionExampleScenario.node[2].nic.mac1609_4 	TotalLostPackets 	0
scalar IntersectionExampleScenario.node[2].nic.mac1609_4 	DroppedPacketsInMac 	0
scalar IntersectionExampleScenario.node[2].nic.mac1609_4 	TooLittleTime 	0
scalar IntersectionExampleScenario.node[2].nic.mac1609_4 	TimesIntoBackoff 	0
scalar IntersectionExampleScenario.node[2].nic.mac1609_4 	SlotsBackoff 	0
scalar IntersectionExampleScenario.node[2].nic.mac1609_4 	NumInternalContention 	0
scalar IntersectionExampleScenario.node[2].nic.mac1609_4 	totalBusyTime 	0
scalar IntersectionExampleScenario.node[2].veinsmobility 	startTime 	13.5
scalar IntersectionExampleScenario.node[2].veinsmobility 	totalTime 	41.5
scalar IntersectionExampleScenario.node[2].veinsmobility 	stopTime 	55.25
scalar IntersectionExampleScenario.node[2].veinsmobility 	minSpeed 	5.6500000953674
scalar IntersectionExampleScenario.node[2].veinsmobility 	maxSpeed 	15.02499961853
scalar IntersectionExampleScenario.node[2].veinsmobility 	totalDistance 	545.64593895774
scalar IntersectionExampleScenario.node[2].veinsmobility 	totalCO2Emission 	122.38280771176
scalar IntersectionExampleScenario.node[1].appl 	VehicleRemoved 	0
scalar IntersectionExampleScenario.node[1].appl 	ArrivedAtDest 	1
scalar IntersectionExampleScenario.node[1].appl 	IntersectionEnterTime 	12.25
scalar IntersectionExampleScenario.node[1].appl 	IntersectionExitTime 	50.321950361336
scalar IntersectionExampleScenario.node[1].appl 	NumberOfCollisions 	0
scalar IntersectionExampleScenario.node[1].nic.phy80211p 	busyTime 	0
scalar IntersectionExampleScenario.node[1].nic.mac1609_4 	ReceivedUnicastPackets 	0
scalar IntersectionExampleScenario.node[1].nic.mac1609_4 	ReceivedBroadcasts 	0
scalar IntersectionExampleScenario.node[1].nic.mac1609_4 	SentPackets 	0
scalar IntersectionExampleScenario.node[1].nic.mac1609_4 	SNIRLostPackets 	0
scalar IntersectionExampleScenario.node[1].nic.mac1609_4 	RXTXLostPackets 	0
scalar IntersectionExampleScenario.node[1].nic.mac1609_4 	TotalLostPackets 	0
scalar IntersectionExampleScenario.node[1].nic.mac1609_4 	DroppedPacketsInMac 	0
scalar IntersectionExampleScenario.node[1].nic.mac1609_4 	TooLittleTime 	0
scalar IntersectionExampleScenario.node[1].nic.mac1609_4 	TimesIntoBackoff 	0
scalar IntersectionExampleScenario.node[1].nic.mac1609_4 	SlotsBackoff 	0
scalar IntersectionExampleScenario.node[1].nic.mac1609_4 	NumInternalContention 	0
scalar IntersectionExampleScenario.node[1].nic.mac1609_4 	totalBusyTime 	0
scalar IntersectionExampleScenario.node[1].veinsmobility 	startTime 	12.25
scalar IntersectionExampleScenario.node[1].veinsmobility 	totalTime 	54.25
scalar IntersectionExampleScenario.node[1].veinsmobility 	stopTime 	66.75
scalar IntersectionExampleScenario.node[1].veinsmobility 	minSpeed 	0
scalar IntersectionExampleScenario.node[1].veinsmobility 	maxSpeed 	15.375
scalar IntersectionExampleScenario.node[1].veinsmobility 	totalDistance 	549.30344499698
scalar IntersectionExampleScenario.node[1].veinsmobility 	totalCO2Emission 	144.15500936613
scalar IntersectionExampleScenario.node[3].appl 	VehicleRemoved 	0
scalar IntersectionExampleScenario.node[3].appl 	ArrivedAtDest 	1
scalar IntersectionExampleScenario.node[3].appl 	IntersectionEnterTime 	14.75
scalar IntersectionExampleScenario.node[3].appl 	IntersectionExitTime 	51.081552327552
scalar IntersectionExampleScenario.node[3].appl 	NumberOfCollisions 	0
scalar IntersectionExampleScenario.node[3].nic.phy80211p 	busyTime 	0
scalar IntersectionExampleScenario.node[3].nic.mac1609_4 	ReceivedUnicastPackets 	0
scalar IntersectionExampleScenario.node[3].nic.mac1609_4 	ReceivedBroadcasts 	0
scalar IntersectionExampleScenario.node[3].nic.mac1609_4 	SentPackets 	0
scalar IntersectionExampleScenario.node[3].nic.mac1609_4 	SNIRLostPackets 	0
scalar IntersectionExampleScenario.node[3].nic.mac1609_4 	RXTXLostPackets 	0
scalar IntersectionExampleScenario.node[3].nic.mac1609_4 	TotalLostPackets 	0
scalar IntersectionExampleScenario.node[3].nic.mac1609_4 	DroppedPacketsInMac 	0
scalar IntersectionExampleScenario.node[3].nic.mac1609_4 	TooLittleTime 	0
scalar IntersectionExampleScenario.node[3].nic.mac1609_4 	TimesIntoBackoff 	0
scalar IntersectionExampleScenario.node[3].nic.mac1609_4 	SlotsBackoff 	0
scalar IntersectionExampleScenario.node[3].nic.mac1609_4 	NumInternalContention 	0
scalar IntersectionExampleScenario.node[3].nic.mac1609_4 	totalBusyTime 	0
scalar IntersectionExampleScenario.node[3].veinsmobility 	startTime 	14.75
scalar IntersectionExampleScenario.node[3].veinsmobility 	totalTime 	52.75
scalar IntersectionExampleScenario.node[3].veinsmobility 	stopTime 	67.75
scalar IntersectionExampleScenario.node[3].veinsmobility 	minSpeed 	0
scalar IntersectionExampleScenario.node[3].veinsmobility 	maxSpeed 	15.875
scalar IntersectionExampleScenario.node[3].veinsmobility 	totalDistance 	561.16174206479
scalar IntersectionExampleScenario.node[3].veinsmobility 	totalCO2Emission 	148.61903160452
scalar IntersectionExampleScenario.node[4].appl 	VehicleRemoved 	0
scalar IntersectionExampleScenario.node[4].appl 	ArrivedAtDest 	1
scalar IntersectionExampleScenario.node[4].appl 	IntersectionEnterTime 	24
scalar IntersectionExampleScenario.node[4].appl 	IntersectionExitTime 	61.285373520252
scalar IntersectionExampleScenario.node[4].appl 	NumberOfCollisions 	0
scalar IntersectionExampleScenario.node[4].nic.phy80211p 	busyTime 	0
scalar IntersectionExampleScenario.node[4].nic.mac1609_4 	ReceivedUnicastPackets 	0
scalar IntersectionExampleScenario.node[4].nic.mac1609_4 	ReceivedBroadcasts 	0
scalar IntersectionExampleScenario.node[4].nic.mac1609_4 	SentPackets 	0
scalar IntersectionExampleScenario.node[4].nic.mac1609_4 	SNIRLostPackets 	0
scalar IntersectionExampleScenario.node[4].nic.mac1609_4 	RXTXLostPackets 	0
scalar IntersectionExampleScenario.node[4].nic.mac1609_4 	TotalLostPackets 	0
scalar IntersectionExampleScenario.node[4].nic.mac1609_4 	DroppedPacketsInMac 	0
scalar IntersectionExampleScenario.node[4].nic.mac1609_4 	TooLittleTime 	0
scalar IntersectionExampleScenario.node[4].nic.mac1609_4 	TimesIntoBackoff 	0
scalar IntersectionExampleScenario.node[4].nic.mac1609_4 	SlotsBackoff 	0
scalar IntersectionExampleScenario.node[4].nic.mac1609_4 	NumInternalContention 	0
scalar IntersectionExampleScenario.node[4].nic.mac1609_4 	totalBusyTime 	0
scalar IntersectionExampleScenario.node[4].veinsmobility 	startTime 	24
scalar IntersectionExampleScenario.node[4].veinsmobility 	totalTime 	53.25
scalar IntersectionExampleScenario.node[4].veinsmobility 	stopTime 	77.5
scalar IntersectionExampleScenario.node[4].veinsmobility 	minSpeed 	0
scalar IntersectionExampleScenario.node[4].veinsmobility 	maxSpeed 	15.64999961853
scalar IntersectionExampleScenario.node[4].veinsmobility 	totalDistance 	553.61804199219
scalar IntersectionExampleScenario.node[4].veinsmobility 	totalCO2Emission 	146.10906828446
scalar IntersectionExampleScenario.node[5].appl 	VehicleRemoved 	0
scalar IntersectionExampleScenario.node[5].appl 	ArrivedAtDest 	1
scalar IntersectionExampleScenario.node[5].appl 	IntersectionEnterTime 	26
scalar IntersectionExampleScenario.node[5].appl 	IntersectionExitTime 	62.348587589106
scalar IntersectionExampleScenario.node[5].appl 	NumberOfCollisions 	0
scalar IntersectionExampleScenario.node[5].nic.phy80211p 	busyTime 	0
scalar IntersectionExampleScenario.node[5].nic.mac1609_4 	ReceivedUnicastPackets 	0
scalar IntersectionExampleScenario.node[5].nic.mac1609_4 	ReceivedBroadcasts 	0
scalar IntersectionExampleScenario.node[5].nic.mac1609_4 	SentPackets 	0
scalar IntersectionExampleScenario.node[5].nic.mac1609_4 	SNIRLostPackets 	0
scalar IntersectionExampleScenario.node[5].nic.mac1609_4 	RXTXLostPackets 	0
scalar IntersectionExampleScenario.node[5].nic.mac1609_4 	TotalLostPackets 	0
scalar IntersectionExampleScenario.node[5].nic.mac1609_4 	DroppedPacketsInMac 	0
scalar IntersectionExampleScenario.node[5].nic.mac1609_4 	TooLittleTime 	0
scalar IntersectionExampleScenario.node[5].nic.mac1609_4 	TimesIntoBackoff 	0
scalar IntersectionExampleScenario.node[5].nic.mac1609_4 	SlotsBackoff 	0
scalar IntersectionExampleScenario.node[5].nic.mac1609_4 	NumInternalContention 	0
scalar IntersectionExampleScenario.node[5].nic.mac1609_4 	totalBusyTime 	0
scalar IntersectionExampleScenario.node[5].veinsmobility 	startTime 	26
scalar IntersectionExampleScenario.node[5].veinsmobility 	totalTime 	52.75
scalar IntersectionExampleScenario.node[5].veinsmobility 	stopTime 	79
scalar IntersectionExampleScenario.node[5].veinsmobility 	minSpeed 	0
scalar IntersectionExampleScenario.node[5].veinsmobility 	maxSpeed 	15.375
scalar IntersectionExampleScenario.node[5].veinsmobility 	totalDistance 	568.25764808212
scalar IntersectionExampleScenario.node[5].veinsmobility 	totalCO2Emission 	144.57706859574
scalar IntersectionExampleScenario.node[8].appl 	VehicleRemoved 	0
scalar IntersectionExampleScenario.node[8].appl 	ArrivedAtDest 	1
scalar IntersectionExampleScenario.node[8].appl 	IntersectionEnterTime 	33.25
scalar IntersectionExampleScenario.node[8].appl 	IntersectionExitTime 	63.769869843061
scalar IntersectionExampleScenario.node[8].appl 	NumberOfCollisions 	0
scalar IntersectionExampleScenario.node[8].nic.phy80211p 	busyTime 	0
scalar IntersectionExampleScenario.node[8].nic.mac1609_4 	ReceivedUnicastPackets 	0
scalar IntersectionExampleScenario.node[8].nic.mac1609_4 	ReceivedBroadcasts 	0
scalar IntersectionExampleScenario.node[8].nic.mac1609_4 	SentPackets 	0
scalar IntersectionExampleScenario.node[8].nic.mac1609_4 	SNIRLostPackets 	0
scalar IntersectionExampleScenario.node[8].nic.mac1609_4 	RXTXLostPackets 	0
scalar IntersectionExampleScenario.node[8].nic.mac1609_4 	TotalLostPackets 	0
scalar IntersectionExampleScenario.node[8].nic.mac1609_4 	DroppedPacketsInMac 	0
scalar IntersectionExampleScenario.node[8].nic.mac1609_4 	TooLittleTime 	0
scalar IntersectionExampleScenario.node[8].nic.mac1609_4 	TimesIntoBackoff 	0
scalar IntersectionExampleScenario.node[8].nic.mac1609_4 	SlotsBackoff 	0
scalar IntersectionExampleScenario.node[8].nic.mac1609_4 	NumInternalContention 	0
scalar IntersectionExampleScenario.node[8].nic.mac1609_4 	totalBusyTime 	0
scalar IntersectionExampleScenario.node[8].veinsmobility 	startTime 	33.25
scalar IntersectionExampleScenario.node[8].veinsmobility 	totalTime 	46.25
scalar IntersectionExampleScenario.node[8].veinsmobility 	stopTime 	79.75
scalar IntersectionExampleScenario.node[8].veinsmobility 	minSpeed 	2.6918962001801
scalar IntersectionExampleScenario.node[8].veinsmobility 	maxSpeed 	15.722347259521
scalar IntersectionExampleScenario.node[8].veinsmobility 	totalDistance 	553.98751831055
scalar IntersectionExampleScenario.node[8].veinsmobility 	totalCO2Emission 	137.49871145022
scalar IntersectionExampleScenario.node[10].appl 	VehicleRemoved 	0
scalar IntersectionExampleScenario.node[10].appl 	ArrivedAtDest 	1
scalar IntersectionExampleScenario.node[10].appl 	IntersectionEnterTime 	40.75
scalar IntersectionExampleScenario.node[10].appl 	IntersectionExitTime 	64.595398535574
scalar IntersectionExampleScenario.node[10].appl 	NumberOfCollisions 	0
scalar IntersectionExampleScenario.node[10].nic.phy80211p 	busyTime 	0
scalar IntersectionExampleScenario.node[10].nic.mac1609_4 	ReceivedUnicastPackets 	0
scalar IntersectionExampleScenario.node[10].nic.mac1609_4 	ReceivedBroadcasts 	0
scalar IntersectionExampleScenario.node[10].nic.mac1609_4 	SentPackets 	0
scalar IntersectionExampleScenario.node[10].nic.mac1609_4 	SNIRLostPackets 	0
scalar IntersectionExampleScenario.node[10].nic.mac1609_4 	RXTXLostPackets 	0
scalar IntersectionExampleScenario.node[10].nic.mac1609_4 	TotalLostPackets 	0
scalar IntersectionExampleScenario.node[10].nic.mac1609_4 	DroppedPacketsInMac 	0
scalar IntersectionExampleScenario.node[10].nic.mac1609_4 	TooLittleTime 	0
scalar IntersectionExampleScenario.node[10].nic.mac1609_4 	TimesIntoBackoff 	0
scalar IntersectionExampleScenario.node[10].nic.mac1609_4 	SlotsBackoff 	0
scalar IntersectionExampleScenario.node[10].nic.mac1609_4 	NumInternalContention 	0
scalar IntersectionExampleScenario.node[10].nic.mac1609_4 	totalBusyTime 	0
scalar IntersectionExampleScenario.node[10].veinsmobility 	startTime 	40.75
scalar IntersectionExampleScenario.node[10].veinsmobility 	totalTime 	40.75
scalar IntersectionExampleScenario.node[10].veinsmobility 	stopTime 	81.75
scalar IntersectionExampleScenario.node[10].veinsmobility 	minSpeed 	5.6500000953674
scalar IntersectionExampleScenario.node[10].veinsmobility 	maxSpeed 	15.25
scalar IntersectionExampleScenario.node[10].veinsmobility 	totalDistance 	545.97980973588
scalar IntersectionExampleScenario.node[10].veinsmobility 	totalCO2Emission 	124.9411878982
scalar IntersectionExampleScenario.node[11].appl 	VehicleRemoved 	0
scalar IntersectionExampleScenario.node[11].appl 	ArrivedAtDest 	1
scalar IntersectionExampleScenario.node[11].appl 	IntersectionEnterTime 	41
scalar IntersectionExampleScenario.node[11].appl 	IntersectionExitTime 	66.026637338829
scalar IntersectionExampleScenario.node[11].appl 	NumberOfCollisions 	0
scalar IntersectionExampleScenario.node[11].nic.phy80211p 	busyTime 	0
scalar IntersectionExampleScenario.node[11].nic.mac1609_4 	ReceivedUnicastPackets 	0
scalar IntersectionExampleScenario.node[11].nic.mac1609_4 	ReceivedBroadcasts 	0
scalar IntersectionExampleScenario.node[11].nic.mac1609_4 	SentPackets 	0
scalar IntersectionExampleScenario.node[11].nic.mac1609_4 	SNIRLostPackets 	0
scalar IntersectionExampleScenario.node[11].nic.mac1609_4 	RXTXLostPackets 	0
scalar IntersectionExampleScenario.node[11].nic.mac1609_4 	TotalLostPackets 	0
scalar IntersectionExampleScenario.node[11].nic.mac1609_4 	DroppedPacketsInMac 	0
scalar IntersectionExampleScenario.node[11].nic.mac1609_4 	TooLittleTime 	0
scalar IntersectionExampleScenario.node[11].nic.mac1609_4 	TimesIntoBackoff 	0
scalar IntersectionExampleScenario.node[11].nic.mac1609_4 	SlotsBackoff 	0
scalar IntersectionExampleScenario.node[11].nic.mac1609_4 	NumInternalContention 	0
scalar IntersectionExampleScenario.node[11].nic.mac1609_4 	totalBusyTime 	0
scalar IntersectionExampleScenario.node[11].veinsmobility 	startTime 	41
scalar IntersectionExampleScenario.node[11].veinsmobility 	totalTime 	40.5
scalar IntersectionExampleScenario.node[11].veinsmobility 	stopTime 	81.75
scalar IntersectionExampleScenario.node[11].veinsmobility 	minSpeed 	5.6500000953674
scalar IntersectionExampleScenario.node[11].veinsmobility 	maxSpeed 	16.625
scalar IntersectionExampleScenario.node[11].veinsmobility 	totalDistance 	576.67837392059
scalar IntersectionExampleScenario.node[11].veinsmobility 	totalCO2Emission 	135.84679801413
scalar IntersectionExampleScenario.node[6].appl 	VehicleRemoved 	0
scalar IntersectionExampleScenario.node[6].appl 	ArrivedAtDest 	1
scalar IntersectionExampleScenario.node[6].appl 	IntersectionEnterTime 	27.75
scalar IntersectionExampleScenario.node[6].appl 	IntersectionExitTime 	74.256905168528
scalar IntersectionExampleScenario.node[6].appl 	NumberOfCollisions 	0
scalar IntersectionExampleScenario.node[6].nic.phy80211p 	busyTime 	0
scalar IntersectionExampleScenario.node[6].nic.mac1609_4 	ReceivedUnicastPackets 	0
scalar IntersectionExampleScenario.node[6].nic.mac1609_4 	ReceivedBroadcasts 	0
scalar IntersectionExampleScenario.node[6].nic.mac1609_4 	SentPackets 	0
scalar IntersectionExampleScenario.node[6].nic.mac1609_4 	SNIRLostPackets 	0
scalar IntersectionExampleScenario.node[6].nic.mac1609_4 	RXTXLostPackets 	0
scalar IntersectionExampleScenario.node[6].nic.mac1609_4 	TotalLostPackets 	0
scalar IntersectionExampleScenario.node[6].nic.mac1609_4 	DroppedPacketsInMac 	0
scalar IntersectionExampleScenario.node[6].nic.mac1609_4 	TooLittleTime 	0
scalar IntersectionExampleScenario.node[6].nic.mac1609_4 	TimesIntoBackoff 	0
scalar IntersectionExampleScenario.node[6].nic.mac1609_4 	SlotsBackoff 	0
scalar IntersectionExampleScenario.node[6].nic.mac1609_4 	NumInternalContention 	0
scalar IntersectionExampleScenario.node[6].nic.mac1609_4 	totalBusyTime 	0
scalar IntersectionExampleScenario.node[6].veinsmobility 	startTime 	27.75
scalar IntersectionExampleScenario.node[6].veinsmobility 	totalTime 	62.75
scalar IntersectionExampleScenario.node[6].veinsmobility 	stopTime 	90.75
scalar IntersectionExampleScenario.node[6].veinsmobility 	minSpeed 	0
scalar IntersectionExampleScenario.node[6].veinsmobility 	maxSpeed 	15.375
scalar IntersectionExampleScenario.node[6].veinsmobility 	totalDistance 	550.42292894473
scalar IntersectionExampleScenario.node[6].veinsmobility 	totalCO2Emission 	153.49969719981
scalar IntersectionExampleScenario.node[7].appl 	VehicleRemoved 	0
scalar IntersectionExampleScenario.node[7].appl 	ArrivedAtDest 	1
scalar IntersectionExampleScenario.node[7].appl 	IntersectionEnterTime 	33.25
scalar IntersectionExampleScenario.node[7].appl 	IntersectionExitTime 	75.103920490306
scalar IntersectionExampleScenario.node[7].appl 	NumberOfCollisions 	0
scalar IntersectionExampleScenario.node[7].nic.phy80211p 	busyTime 	0
scalar IntersectionExampleScenario.node[7].nic.mac1609_4 	ReceivedUnicastPackets 	0
scalar IntersectionExampleScenario.node[7].nic.mac1609_4 	ReceivedBroadcasts 	0
scalar IntersectionExampleScenario.node[7].nic.mac1609_4 	SentPackets 	0
scalar IntersectionExampleScenario.node[7].nic.mac1609_4 	SNIRLostPackets 	0
scalar IntersectionExampleScenario.node[7].nic.mac1609_4 	RXTXLostPackets 	0
scalar IntersectionExampleScenario.node[7].nic.mac1609_4 	TotalLostPackets 	0
scalar IntersectionExampleScenario.node[7].nic.mac1609_4 	DroppedPacketsInMac 	0
scalar IntersectionExampleScenario.node[7].nic.mac1609_4 	TooLittleTime 	0
scalar IntersectionExampleScenario.node[7].nic.mac1609_4 	TimesIntoBackoff 	0
scalar IntersectionExampleScenario.node[7].nic.mac1609_4 	SlotsBackoff 	0
scalar IntersectionExampleScenario.node[7].nic.mac1609_4 	NumInternalContention 	0
scalar IntersectionExampleScenario.node[7].nic.mac1609_4 	totalBusyTime 	0
scalar IntersectionExampleScenario.node[7].veinsmobility 	startTime 	33.25
scalar IntersectionExampleScenario.node[7].veinsmobility 	totalTime 	58.75
scalar IntersectionExampleScenario.node[7].veinsmobility 	stopTime 	92.25
scalar IntersectionExampleScenario.node[7].veinsmobility 	minSpeed 	0
scalar IntersectionExampleScenario.node[7].veinsmobility 	maxSpeed 	15.25
scalar IntersectionExampleScenario.node[7].veinsmobility 	totalDistance 	544.02751334495
scalar IntersectionExampleScenario.node[7].veinsmobility 	totalCO2Emission 	145.98377102555
scalar IntersectionExampleScenario.node[13].appl 	VehicleRemoved 	0
scalar IntersectionExampleScenario.node[13].appl 	ArrivedAtDest 	1
scalar IntersectionExampleScenario.node[13].appl 	IntersectionEnterTime 	48
scalar IntersectionExampleScenario.node[13].appl 	IntersectionExitTime 	77.292703333718
scalar IntersectionExampleScenario.node[13].appl 	NumberOfCollisions 	0
scalar IntersectionExampleScenario.node[13].nic.phy80211p 	busyTime 	0
scalar IntersectionExampleScenario.node[13].nic.mac1609_4 	ReceivedUnicastPackets 	0
scalar IntersectionExampleScenario.node[13].nic.mac1609_4 	ReceivedBroadcasts 	0
scalar IntersectionExampleScenario.node[13].nic.mac1609_4 	SentPackets 	0
scalar IntersectionExampleScenario.node[13].nic.mac1609_4 	SNIRLostPackets 	0
scalar IntersectionExampleScenario.node[13].nic.mac1609_4 	RXTXLostPackets 	0
scalar IntersectionExampleScenario.node[13].nic.mac1609_4 	TotalLostPackets 	0
scalar IntersectionExampleScenario.node[13].nic.mac1609_4 	DroppedPacketsInMac 	0
scalar IntersectionExampleScenario.node[13].nic.mac1609_4 	TooLittleTime 	0
scalar IntersectionExampleScenario.node[13].nic.mac1609_4 	TimesIntoBackoff 	0
scalar IntersectionExampleScenario.node[13].nic.mac1609_4 	SlotsBackoff 	0
scalar IntersectionExampleScenario.node[13].nic.mac1609_4 	NumInternalContention 	0
scalar IntersectionExampleScenario.node[13].nic.mac1609_4 	totalBusyTime 	0
scalar IntersectionExampleScenario.node[13].veinsmobility 	startTime 	48
scalar IntersectionExampleScenario.node[13].veinsmobility 	totalTime 	45.25
scalar IntersectionExampleScenario.node[13].veinsmobility 	stopTime 	93.5
scalar IntersectionExampleScenario.node[13].veinsmobility 	minSpeed 	3.3247590065002
scalar IntersectionExampleScenario.node[13].veinsmobility 	maxSpeed 	16.507112503052
scalar IntersectionExampleScenario.node[13].veinsmobility 	totalDistance 	544.95796293505
scalar IntersectionExampleScenario.node[13].veinsmobility 	totalCO2Emission 	142.44048655799
scalar IntersectionExampleScenario.node[17].appl 	VehicleRemoved 	0
scalar IntersectionExampleScenario.node[17].appl 	ArrivedAtDest 	1
scalar IntersectionExampleScenario.node[17].appl 	IntersectionEnterTime 	54.75
scalar IntersectionExampleScenario.node[17].appl 	IntersectionExitTime 	81.081231338176
scalar IntersectionExampleScenario.node[17].appl 	NumberOfCollisions 	0
scalar IntersectionExampleScenario.node[17].nic.phy80211p 	busyTime 	0
scalar IntersectionExampleScenario.node[17].nic.mac1609_4 	ReceivedUnicastPackets 	0
scalar IntersectionExampleScenario.node[17].nic.mac1609_4 	ReceivedBroadcasts 	0
scalar IntersectionExampleScenario.node[17].nic.mac1609_4 	SentPackets 	0
scalar IntersectionExampleScenario.node[17].nic.mac1609_4 	SNIRLostPackets 	0
scalar IntersectionExampleScenario.node[17].nic.mac1609_4 	RXTXLostPackets 	0
scalar IntersectionExampleScenario.node[17].nic.mac1609_4 	TotalLostPackets 	0
scalar IntersectionExampleScenario.node[17].nic.mac1609_4 	DroppedPacketsInMac 	0
scalar IntersectionExampleScenario.node[17].nic.mac1609_4 	TooLittleTime 	0
scalar IntersectionExampleScenario.node[17].nic.mac1609_4 	TimesIntoBackoff 	0
scalar IntersectionExampleScenario.node[17].nic.mac1609_4 	SlotsBackoff 	0
scalar IntersectionExampleScenario.node[17].nic.mac1609_4 	NumInternalContention 	0
scalar IntersectionExampleScenario.node[17].nic.mac1609_4 	totalBusyTime 	0
scalar IntersectionExampleScenario.node[17].veinsmobility 	startTime 	54.75
scalar IntersectionExampleScenario.node[17].veinsmobility 	totalTime 	41.75
scalar IntersectionExampleScenario.node[17].veinsmobility 	stopTime 	96.75
scalar IntersectionExampleScenario.node[17].veinsmobility 	minSpeed 	5.6500000953674
scalar IntersectionExampleScenario.node[17].veinsmobility 	maxSpeed 	16.125
scalar IntersectionExampleScenario.node[17].veinsmobility 	totalDistance 	560.02574157715
scalar IntersectionExampleScenario.node[17].veinsmobility 	totalCO2Emission 	127.1557995054
scalar IntersectionExampleScenario.node[14].appl 	VehicleRemoved 	0
scalar IntersectionExampleScenario.node[14].appl 	ArrivedAtDest 	1
scalar IntersectionExampleScenario.node[14].appl 	IntersectionEnterTime 	49.75
scalar IntersectionExampleScenario.node[14].appl 	IntersectionExitTime 	79.796521252109
scalar IntersectionExampleScenario.node[14].appl 	NumberOfCollisions 	0
scalar IntersectionExampleScenario.node[14].nic.phy80211p 	busyTime 	0
scalar IntersectionExampleScenario.node[14].nic.mac1609_4 	ReceivedUnicastPackets 	0
scalar IntersectionExampleScenario.node[14].nic.mac1609_4 	ReceivedBroadcasts 	0
scalar IntersectionExampleScenario.node[14].nic.mac1609_4 	SentPackets 	0
scalar IntersectionExampleScenario.node[14].nic.mac1609_4 	SNIRLostPackets 	0
scalar IntersectionExampleScenario.node[14].nic.mac1609_4 	RXTXLostPackets 	0
scalar IntersectionExampleScenario.node[14].nic.mac1609_4 	TotalLostPackets 	0
scalar IntersectionExampleScenario.node[14].nic.mac1609_4 	DroppedPacketsInMac 	0
scalar IntersectionExampleScenario.node[14].nic.mac1609_4 	TooLittleTime 	0
scalar IntersectionExampleScenario.node[14].nic.mac1609_4 	TimesIntoBackoff 	0
scalar IntersectionExampleScenario.node[14].nic.mac1609_4 	SlotsBackoff 	0
scalar IntersectionExampleScenario.node[14].nic.mac1609_4 	NumInternalContention 	0
scalar IntersectionExampleScenario.node[14].nic.mac1609_4 	totalBusyTime 	0
scalar IntersectionExampleScenario.node[14].veinsmobility 	startTime 	49.75
scalar IntersectionExampleScenario.node[14].veinsmobility 	totalTime 	46.75
scalar IntersectionExampleScenario.node[14].veinsmobility 	stopTime 	96.75
scalar IntersectionExampleScenario.node[14].veinsmobility 	minSpeed 	4.6361527442932
scalar IntersectionExampleScenario.node[14].veinsmobility 	maxSpeed 	15.64999961853
scalar IntersectionExampleScenario.node[14].veinsmobility 	totalDistance 	564.91546255494
scalar IntersectionExampleScenario.node[14].veinsmobility 	totalCO2Emission 	138.23035860859
scalar IntersectionExampleScenario.node[9].appl 	VehicleRemoved 	0
scalar IntersectionExampleScenario.node[9].appl 	ArrivedAtDest 	1
scalar IntersectionExampleScenario.node[9].appl 	IntersectionEnterTime 	40
scalar IntersectionExampleScenario.node[9].appl 	IntersectionExitTime 	85.360997803946
scalar IntersectionExampleScenario.node[9].appl 	NumberOfCollisions 	0
scalar IntersectionExampleScenario.node[9].nic.phy80211p 	busyTime 	0
scalar IntersectionExampleScenario.node[9].nic.mac1609_4 	ReceivedUnicastPackets 	0
scalar IntersectionExampleScenario.node[9].nic.mac1609_4 	ReceivedBroadcasts 	0
scalar IntersectionExampleScenario.node[9].nic.mac1609_4 	SentPackets 	0
scalar IntersectionExampleScenario.node[9].nic.mac1609_4 	SNIRLostPackets 	0
scalar IntersectionExampleScenario.node[9].nic.mac1609_4 	RXTXLostPackets 	0
scalar IntersectionExampleScenario.node[9].nic.mac1609_4 	TotalLostPackets 	0
scalar IntersectionExampleScenario.node[9].nic.mac1609_4 	DroppedPacketsInMac 	0
scalar IntersectionExampleScenario.node[9].nic.mac1609_4 	TooLittleTime 	0
scalar IntersectionExampleScenario.node[9].nic.mac1609_4 	TimesIntoBackoff 	0
scalar IntersectionExampleScenario.node[9].nic.mac1609_4 	SlotsBackoff 	0
scalar IntersectionExampleScenario.node[9].nic.mac1609_4 	NumInternalContention 	0
scalar IntersectionExampleScenario.node[9].nic.mac1609_4 	totalBusyTime 	0
scalar IntersectionExampleScenario.node[9].veinsmobility 	startTime 	40
scalar IntersectionExampleScenario.node[9].veinsmobility 	totalTime 	61
scalar IntersectionExampleScenario.node[9].veinsmobility 	stopTime 	101.25
scalar IntersectionExampleScenario.node[9].veinsmobility 	minSpeed 	0
scalar IntersectionExampleScenario.node[9].veinsmobility 	maxSpeed 	16.27499961853
scalar IntersectionExampleScenario.node[9].veinsmobility 	totalDistance 	551.1127101337
scalar IntersectionExampleScenario.node[9].veinsmobility 	totalCO2Emission 	157.13046484454
scalar IntersectionExampleScenario.node[12].appl 	VehicleRemoved 	0
scalar IntersectionExampleScenario.node[12].appl 	ArrivedAtDest 	1
scalar IntersectionExampleScenario.node[12].appl 	IntersectionEnterTime 	41
scalar IntersectionExampleScenario.node[12].appl 	IntersectionExitTime 	87.528920705518
scalar IntersectionExampleScenario.node[12].appl 	NumberOfCollisions 	0
scalar IntersectionExampleScenario.node[12].nic.phy80211p 	busyTime 	0
scalar IntersectionExampleScenario.node[12].nic.mac1609_4 	ReceivedUnicastPackets 	0
scalar IntersectionExampleScenario.node[12].nic.mac1609_4 	ReceivedBroadcasts 	0
scalar IntersectionExampleScenario.node[12].nic.mac1609_4 	SentPackets 	0
scalar IntersectionExampleScenario.node[12].nic.mac1609_4 	SNIRLostPackets 	0
scalar IntersectionExampleScenario.node[12].nic.mac1609_4 	RXTXLostPackets 	0
scalar IntersectionExampleScenario.node[12].nic.mac1609_4 	TotalLostPackets 	0
scalar IntersectionExampleScenario.node[12].nic.mac1609_4 	DroppedPacketsInMac 	0
scalar IntersectionExampleScenario.node[12].nic.mac1609_4 	TooLittleTime 	0
scalar IntersectionExampleScenario.node[12].nic.mac1609_4 	TimesIntoBackoff 	0
scalar IntersectionExampleScenario.node[12].nic.mac1609_4 	SlotsBackoff 	0
scalar IntersectionExampleScenario.node[12].nic.mac1609_4 	NumInternalContention 	0
scalar IntersectionExampleScenario.node[12].nic.mac1609_4 	totalBusyTime 	0
scalar IntersectionExampleScenario.node[12].veinsmobility 	startTime 	41
scalar IntersectionExampleScenario.node[12].veinsmobility 	totalTime 	63.25
scalar IntersectionExampleScenario.node[12].veinsmobility 	stopTime 	104.5
scalar IntersectionExampleScenario.node[12].veinsmobility 	minSpeed 	0
scalar IntersectionExampleScenario.node[12].veinsmobility 	maxSpeed 	15.375
scalar IntersectionExampleScenario.node[12].veinsmobility 	totalDistance 	574.10935372047
scalar IntersectionExampleScenario.node[12].veinsmobility 	totalCO2Emission 	155.29251878358
scalar IntersectionExampleScenario.node[18].appl 	VehicleRemoved 	0
scalar IntersectionExampleScenario.node[18].appl 	ArrivedAtDest 	1
scalar IntersectionExampleScenario.node[18].appl 	IntersectionEnterTime 	56
scalar IntersectionExampleScenario.node[18].appl 	IntersectionExitTime 	90.049070027337
scalar IntersectionExampleScenario.node[18].appl 	NumberOfCollisions 	0
scalar IntersectionExampleScenario.node[18].nic.phy80211p 	busyTime 	0
scalar IntersectionExampleScenario.node[18].nic.mac1609_4 	ReceivedUnicastPackets 	0
scalar IntersectionExampleScenario.node[18].nic.mac1609_4 	ReceivedBroadcasts 	0
scalar IntersectionExampleScenario.node[18].nic.mac1609_4 	SentPackets 	0
scalar IntersectionExampleScenario.node[18].nic.mac1609_4 	SNIRLostPackets 	0
scalar IntersectionExampleScenario.node[18].nic.mac1609_4 	RXTXLostPackets 	0
scalar IntersectionExampleScenario.node[18].nic.mac1609_4 	TotalLostPackets 	0
scalar IntersectionExampleScenario.node[18].nic.mac1609_4 	DroppedPacketsInMac 	0
scalar IntersectionExampleScenario.node[18].nic.mac1609_4 	TooLittleTime 	0
scalar IntersectionExampleScenario.node[18].nic.mac1609_4 	TimesIntoBackoff 	0
scalar IntersectionExampleScenario.node[18].nic.mac1609_4 	SlotsBackoff 	0
scalar IntersectionExampleScenario.node[18].nic.mac1609_4 	NumInternalContention 	0
scalar IntersectionExampleScenario.node[18].nic.mac1609_4 	totalBusyTime 	0
scalar IntersectionExampleScenario.node[18].veinsmobility 	startTime 	56
scalar IntersectionExampleScenario.node[18].veinsmobility 	totalTime 	50.25
scalar IntersectionExampleScenario.node[18].veinsmobility 	stopTime 	106.5
scalar IntersectionExampleScenario.node[18].veinsmobility 	minSpeed 	0.81558680534363
scalar IntersectionExampleScenario.node[18].veinsmobility 	maxSpeed 	15.64999961853
scalar IntersectionExampleScenario.node[18].veinsmobility 	totalDistance 	548.47314004775
scalar IntersectionExampleScenario.node[18].veinsmobility 	totalCO2Emission 	139.92529786564
scalar IntersectionExampleScenario.node[19].appl 	VehicleRemoved 	0
scalar IntersectionExampleScenario.node[19].appl 	ArrivedAtDest 	1
scalar IntersectionExampleScenario.node[19].appl 	IntersectionEnterTime 	57.25
scalar IntersectionExampleScenario.node[19].appl 	IntersectionExitTime 	92.291412259947
scalar IntersectionExampleScenario.node[19].appl 	NumberOfCollisions 	0
scalar IntersectionExampleScenario.node[19].nic.phy80211p 	busyTime 	0
scalar IntersectionExampleScenario.node[19].nic.mac1609_4 	ReceivedUnicastPackets 	0
scalar IntersectionExampleScenario.node[19].nic.mac1609_4 	ReceivedBroadcasts 	0
scalar IntersectionExampleScenario.node[19].nic.mac1609_4 	SentPackets 	0
scalar IntersectionExampleScenario.node[19].nic.mac1609_4 	SNIRLostPackets 	0
scalar IntersectionExampleScenario.node[19].nic.mac1609_4 	RXTXLostPackets 	0
scalar IntersectionExampleScenario.node[19].nic.mac1609_4 	TotalLostPackets 	0
scalar IntersectionExampleScenario.node[19].nic.mac1609_4 	DroppedPacketsInMac 	0
scalar IntersectionExampleScenario.node[19].nic.mac1609_4 	TooLittleTime 	0
scalar IntersectionExampleScenario.node[19].nic.mac1609_4 	TimesIntoBackoff 	0
scalar IntersectionExampleScenario.node[19].nic.mac1609_4 	SlotsBackoff 	0
scalar IntersectionExampleScenario.node[19].nic.mac1609_4 	NumInternalContention 	0
scalar IntersectionExampleScenario.node[19].nic.mac1609_4 	totalBusyTime 	0
scalar IntersectionExampleScenario.node[19].veinsmobility 	startTime 	57.25
scalar IntersectionExampleScenario.node[19].veinsmobility 	totalTime 	52.5
scalar IntersectionExampleScenario.node[19].veinsmobility 	stopTime 	110
scalar IntersectionExampleScenario.node[19].veinsmobility 	minSpeed 	3.5280063152313
scalar IntersectionExampleScenario.node[19].veinsmobility 	maxSpeed 	14.504761695862
scalar IntersectionExampleScenario.node[19].veinsmobility 	totalDistance 	573.72006589137
scalar IntersectionExampleScenario.node[19].veinsmobility 	totalCO2Emission 	136.16349874495
scalar IntersectionExampleScenario.node[15].appl 	VehicleRemoved 	0
scalar IntersectionExampleScenario.node[15].appl 	ArrivedAtDest 	1
scalar IntersectionExampleScenario.node[15].appl 	IntersectionEnterTime 	52
scalar IntersectionExampleScenario.node[15].appl 	IntersectionExitTime 	96.27820287284
scalar IntersectionExampleScenario.node[15].appl 	NumberOfCollisions 	0
scalar IntersectionExampleScenario.node[15].nic.phy80211p 	busyTime 	0
scalar IntersectionExampleScenario.node[15].nic.mac1609_4 	ReceivedUnicastPackets 	0
scalar IntersectionExampleScenario.node[15].nic.mac1609_4 	ReceivedBroadcasts 	0
scalar IntersectionExampleScenario.node[15].nic.mac1609_4 	SentPackets 	0
scalar IntersectionExampleScenario.node[15].nic.mac1609_4 	SNIRLostPackets 	0
scalar IntersectionExampleScenario.node[15].nic.mac1609_4 	RXTXLostPackets 	0
scalar IntersectionExampleScenario.node[15].nic.mac1609_4 	TotalLostPackets 	0
scalar IntersectionExampleScenario.node[15].nic.mac1609_4 	DroppedPacketsInMac 	0
scalar IntersectionExampleScenario.node[15].nic.mac1609_4 	TooLittleTime 	0
scalar IntersectionExampleScenario.node[15].nic.mac1609_4 	TimesIntoBackoff 	0
scalar IntersectionExampleScenario.node[15].nic.mac1609_4 	SlotsBackoff 	0
scalar IntersectionExampleScenario.node[15].nic.mac1609_4 	NumInternalContention 	0
scalar IntersectionExampleScenario.node[15].nic.mac1609_4 	totalBusyTime 	0
scalar IntersectionExampleScenario.node[15].veinsmobility 	startTime 	52
scalar IntersectionExampleScenario.node[15].veinsmobility 	totalTime 	60.5
scalar IntersectionExampleScenario.node[15].veinsmobility 	stopTime 	112.75
scalar IntersectionExampleScenario.node[15].veinsmobility 	minSpeed 	0
scalar IntersectionExampleScenario.node[15].veinsmobility 	maxSpeed 	15.375
scalar IntersectionExampleScenario.node[15].veinsmobility 	totalDistance 	548.18892015567
scalar IntersectionExampleScenario.node[15].veinsmobility 	totalCO2Emission 	149.82711843639
scalar IntersectionExampleScenario.node[16].appl 	VehicleRemoved 	0
scalar IntersectionExampleScenario.node[16].appl 	ArrivedAtDest 	1
scalar IntersectionExampleScenario.node[16].appl 	IntersectionEnterTime 	53.75
scalar IntersectionExampleScenario.node[16].appl 	IntersectionExitTime 	97.122093906713
scalar IntersectionExampleScenario.node[16].appl 	NumberOfCollisions 	0
scalar IntersectionExampleScenario.node[16].nic.phy80211p 	busyTime 	0
scalar IntersectionExampleScenario.node[16].nic.mac1609_4 	ReceivedUnicastPackets 	0
scalar IntersectionExampleScenario.node[16].nic.mac1609_4 	ReceivedBroadcasts 	0
scalar IntersectionExampleScenario.node[16].nic.mac1609_4 	SentPackets 	0
scalar IntersectionExampleScenario.node[16].nic.mac1609_4 	SNIRLostPackets 	0
scalar IntersectionExampleScenario.node[16].nic.mac1609_4 	RXTXLostPackets 	0
scalar IntersectionExampleScenario.node[16].nic.mac1609_4 	TotalLostPackets 	0
scalar IntersectionExampleScenario.node[16].nic.mac1609_4 	DroppedPacketsInMac 	0
scalar IntersectionExampleScenario.node[16].nic.mac1609_4 	TooLittleTime 	0
scalar IntersectionExampleScenario.node[16].nic.mac1609_4 	TimesIntoBackoff 	0
scalar IntersectionExampleScenario.node[16].nic.mac1609_4 	SlotsBackoff 	0
scalar IntersectionExampleScenario.node[16].nic.mac1609_4 	NumInternalContention 	0
scalar IntersectionExampleScenario.node[16].nic.mac1609_4 	totalBusyTime 	0
scalar IntersectionExampleScenario.node[16].veinsmobility 	startTime 	53.75
scalar IntersectionExampleScenario.node[16].veinsmobility 	totalTime 	60.75
scalar IntersectionExampleScenario.node[16].veinsmobility 	stopTime 	114.75
scalar IntersectionExampleScenario.node[16].veinsmobility 	minSpeed 	0
scalar IntersectionExampleScenario.node[16].veinsmobility 	maxSpeed 	15.02499961853
scalar IntersectionExampleScenario.node[16].veinsmobility 	totalDistance 	566.26432904528
scalar IntersectionExampleScenario.node[16].veinsmobility 	totalCO2Emission 	149.91124073113
scalar IntersectionExampleScenario.node[22].appl 	VehicleRemoved 	0
scalar IntersectionExampleScenario.node[22].appl 	ArrivedAtDest 	1
scalar IntersectionExampleScenario.node[22].appl 	IntersectionEnterTime 	60
scalar IntersectionExampleScenario.node[22].appl 	IntersectionExitTime 	98.564460072434
scalar IntersectionExampleScenario.node[22].appl 	NumberOfCollisions 	0
scalar IntersectionExampleScenario.node[22].nic.phy80211p 	busyTime 	0
scalar IntersectionExampleScenario.node[22].nic.mac1609_4 	ReceivedUnicastPackets 	0
scalar IntersectionExampleScenario.node[22].nic.mac1609_4 	ReceivedBroadcasts 	0
scalar IntersectionExampleScenario.node[22].nic.mac1609_4 	SentPackets 	0
scalar IntersectionExampleScenario.node[22].nic.mac1609_4 	SNIRLostPackets 	0
scalar IntersectionExampleScenario.node[22].nic.mac1609_4 	RXTXLostPackets 	0
scalar IntersectionExampleScenario.node[22].nic.mac1609_4 	TotalLostPackets 	0
scalar IntersectionExampleScenario.node[22].nic.mac1609_4 	DroppedPacketsInMac 	0
scalar IntersectionExampleScenario.node[22].nic.mac1609_4 	TooLittleTime 	0
scalar IntersectionExampleScenario.node[22].nic.mac1609_4 	TimesIntoBackoff 	0
scalar IntersectionExampleScenario.node[22].nic.mac1609_4 	SlotsBackoff 	0
scalar IntersectionExampleScenario.node[22].nic.mac1609_4 	NumInternalContention 	0
scalar IntersectionExampleScenario.node[22].nic.mac1609_4 	totalBusyTime 	0
scalar IntersectionExampleScenario.node[22].veinsmobility 	startTime 	60
scalar IntersectionExampleScenario.node[22].veinsmobility 	totalTime 	55
scalar IntersectionExampleScenario.node[22].veinsmobility 	stopTime 	115.25
scalar IntersectionExampleScenario.node[22].veinsmobility 	minSpeed 	0
scalar IntersectionExampleScenario.node[22].veinsmobility 	maxSpeed 	15.372477531433
scalar IntersectionExampleScenario.node[22].veinsmobility 	totalDistance 	513.38629297571
scalar IntersectionExampleScenario.node[22].veinsmobility 	totalCO2Emission 	144.45104860903
scalar IntersectionExampleScenario.node[20].appl 	VehicleRemoved 	0
scalar IntersectionExampleScenario.node[20].appl 	ArrivedAtDest 	1
scalar IntersectionExampleScenario.node[20].appl 	IntersectionEnterTime 	58.5
scalar IntersectionExampleScenario.node[20].appl 	IntersectionExitTime 	100.09092656514
scalar IntersectionExampleScenario.node[20].appl 	NumberOfCollisions 	0
scalar IntersectionExampleScenario.node[20].nic.phy80211p 	busyTime 	0
scalar IntersectionExampleScenario.node[20].nic.mac1609_4 	ReceivedUnicastPackets 	0
scalar IntersectionExampleScenario.node[20].nic.mac1609_4 	ReceivedBroadcasts 	0
scalar IntersectionExampleScenario.node[20].nic.mac1609_4 	SentPackets 	0
scalar IntersectionExampleScenario.node[20].nic.mac1609_4 	SNIRLostPackets 	0
scalar IntersectionExampleScenario.node[20].nic.mac1609_4 	RXTXLostPackets 	0
scalar IntersectionExampleScenario.node[20].nic.mac1609_4 	TotalLostPackets 	0
scalar IntersectionExampleScenario.node[20].nic.mac1609_4 	DroppedPacketsInMac 	0
scalar IntersectionExampleScenario.node[20].nic.mac1609_4 	TooLittleTime 	0
scalar IntersectionExampleScenario.node[20].nic.mac1609_4 	TimesIntoBackoff 	0
scalar IntersectionExampleScenario.node[20].nic.mac1609_4 	SlotsBackoff 	0
scalar IntersectionExampleScenario.node[20].nic.mac1609_4 	NumInternalContention 	0
scalar IntersectionExampleScenario.node[20].nic.mac1609_4 	totalBusyTime 	0
scalar IntersectionExampleScenario.node[20].veinsmobility 	startTime 	58.5
scalar IntersectionExampleScenario.node[20].veinsmobility 	totalTime 	57.5
scalar IntersectionExampleScenario.node[20].veinsmobility 	stopTime 	116.25
scalar IntersectionExampleScenario.node[20].veinsmobility 	minSpeed 	0
scalar IntersectionExampleScenario.node[20].veinsmobility 	maxSpeed 	15.73671913147
scalar IntersectionExampleScenario.node[20].veinsmobility 	totalDistance 	550.04257394804
scalar IntersectionExampleScenario.node[20].veinsmobility 	totalCO2Emission 	154.95780226493
scalar IntersectionExampleScenario.node[21].appl 	VehicleRemoved 	0
scalar IntersectionExampleScenario.node[21].appl 	ArrivedAtDest 	1
scalar IntersectionExampleScenario.node[21].appl 	IntersectionEnterTime 	59
scalar IntersectionExampleScenario.node[21].appl 	IntersectionExitTime 	102.33010935396
scalar IntersectionExampleScenario.node[21].appl 	NumberOfCollisions 	0
scalar IntersectionExampleScenario.node[21].nic.phy80211p 	busyTime 	0
scalar IntersectionExampleScenario.node[21].nic.mac1609_4 	ReceivedUnicastPackets 	0
scalar IntersectionExampleScenario.node[21].nic.mac1609_4 	ReceivedBroadcasts 	0
scalar IntersectionExampleScenario.node[21].nic.mac1609_4 	SentPackets 	0
scalar IntersectionExampleScenario.node[21].nic.mac1609_4 	SNIRLostPackets 	0
scalar IntersectionExampleScenario.node[21].nic.mac1609_4 	RXTXLostPackets 	0
scalar IntersectionExampleScenario.node[21].nic.mac1609_4 	TotalLostPackets 	0
scalar IntersectionExampleScenario.node[21].nic.mac1609_4 	DroppedPacketsInMac 	0
scalar IntersectionExampleScenario.node[21].nic.mac1609_4 	TooLittleTime 	0
scalar IntersectionExampleScenario.node[21].nic.mac1609_4 	TimesIntoBackoff 	0
scalar IntersectionExampleScenario.node[21].nic.mac1609_4 	SlotsBackoff 	0
scalar IntersectionExampleScenario.node[21].nic.mac1609_4 	NumInternalContention 	0
scalar IntersectionExampleScenario.node[21].nic.mac1609_4 	totalBusyTime 	0
scalar IntersectionExampleScenario.node[21].veinsmobility 	startTime 	59
scalar IntersectionExampleScenario.node[21].veinsmobility 	totalTime 	60.25
scalar IntersectionExampleScenario.node[21].veinsmobility 	stopTime 	119.5
scalar IntersectionExampleScenario.node[21].veinsmobility 	minSpeed 	0
scalar IntersectionExampleScenario.node[21].veinsmobility 	maxSpeed 	15.25
scalar IntersectionExampleScenario.node[21].veinsmobility 	totalDistance 	570.25560639257
scalar IntersectionExampleScenario.node[21].veinsmobility 	totalCO2Emission 	151.91443069703
scalar IntersectionExampleScenario.node[23].appl 	VehicleRemoved 	0
scalar IntersectionExampleScenario.node[23].appl 	ArrivedAtDest 	1
scalar IntersectionExampleScenario.node[23].appl 	IntersectionEnterTime 	72.25
scalar IntersectionExampleScenario.node[23].appl 	IntersectionExitTime 	104.56226796072
scalar IntersectionExampleScenario.node[23].appl 	NumberOfCollisions 	0
scalar IntersectionExampleScenario.node[23].nic.phy80211p 	busyTime 	0
scalar IntersectionExampleScenario.node[23].nic.mac1609_4 	ReceivedUnicastPackets 	0
scalar IntersectionExampleScenario.node[23].nic.mac1609_4 	ReceivedBroadcasts 	0
scalar IntersectionExampleScenario.node[23].nic.mac1609_4 	SentPackets 	0
scalar IntersectionExampleScenario.node[23].nic.mac1609_4 	SNIRLostPackets 	0
scalar IntersectionExampleScenario.node[23].nic.mac1609_4 	RXTXLostPackets 	0
scalar IntersectionExampleScenario.node[23].nic.mac1609_4 	TotalLostPackets 	0
scalar IntersectionExampleScenario.node[23].nic.mac1609_4 	DroppedPacketsInMac 	0
scalar IntersectionExampleScenario.node[23].nic.mac1609_4 	TooLittleTime 	0
scalar IntersectionExampleScenario.node[23].nic.mac1609_4 	TimesIntoBackoff 	0
scalar IntersectionExampleScenario.node[23].nic.mac1609_4 	SlotsBackoff 	0
scalar IntersectionExampleScenario.node[23].nic.mac1609_4 	NumInternalContention 	0
scalar IntersectionExampleScenario.node[23].nic.mac1609_4 	totalBusyTime 	0
scalar IntersectionExampleScenario.node[23].veinsmobility 	startTime 	72.25
scalar IntersectionExampleScenario.node[23].veinsmobility 	totalTime 	48.5
scalar IntersectionExampleScenario.node[23].veinsmobility 	stopTime 	121
scalar IntersectionExampleScenario.node[23].veinsmobility 	minSpeed 	2.4223790168762
scalar IntersectionExampleScenario.node[23].veinsmobility 	maxSpeed 	16.27499961853
scalar IntersectionExampleScenario.node[23].veinsmobility 	totalDistance 	544.85443591415
scalar IntersectionExampleScenario.node[23].veinsmobility 	totalCO2Emission 	143.22026725732
scalar IntersectionExampleScenario.node[24].appl 	VehicleRemoved 	0
scalar IntersectionExampleScenario.node[24].appl 	ArrivedAtDest 	1
scalar IntersectionExampleScenario.node[24].appl 	IntersectionEnterTime 	81.25
scalar IntersectionExampleScenario.node[24].appl 	IntersectionExitTime 	109.34151400614
scalar IntersectionExampleScenario.node[24].appl 	NumberOfCollisions 	0
scalar IntersectionExampleScenario.node[24].nic.phy80211p 	busyTime 	0
scalar IntersectionExampleScenario.node[24].nic.mac1609_4 	ReceivedUnicastPackets 	0
scalar IntersectionExampleScenario.node[24].nic.mac1609_4 	ReceivedBroadcasts 	0
scalar IntersectionExampleScenario.node[24].nic.mac1609_4 	SentPackets 	0
scalar IntersectionExampleScenario.node[24].nic.mac1609_4 	SNIRLostPackets 	0
scalar IntersectionExampleScenario.node[24].nic.mac1609_4 	RXTXLostPackets 	0
scalar IntersectionExampleScenario.node[24].nic.mac1609_4 	TotalLostPackets 	0
scalar IntersectionExampleScenario.node[24].nic.mac1609_4 	DroppedPacketsInMac 	0
scalar IntersectionExampleScenario.node[24].nic.mac1609_4 	TooLittleTime 	0
scalar IntersectionExampleScenario.node[24].nic.mac1609_4 	TimesIntoBackoff 	0
scalar IntersectionExampleScenario.node[24].nic.mac1609_4 	SlotsBackoff 	0
scalar IntersectionExampleScenario.node[24].nic.mac1609_4 	NumInternalContention 	0
scalar IntersectionExampleScenario.node[24].nic.mac1609_4 	totalBusyTime 	0
scalar IntersectionExampleScenario.node[24].veinsmobility 	startTime 	81.25
scalar IntersectionExampleScenario.node[24].veinsmobility 	totalTime 	44.75
scalar IntersectionExampleScenario.node[24].veinsmobility 	stopTime 	126.25
scalar IntersectionExampleScenario.node[24].veinsmobility 	minSpeed 	0
scalar IntersectionExampleScenario.node[24].veinsmobility 	maxSpeed 	15.02499961853
scalar IntersectionExampleScenario.node[24].veinsmobility 	totalDistance 	552.37699127197
scalar IntersectionExampleScenario.node[24].veinsmobility 	totalCO2Emission 	132.41083762015
scalar IntersectionExampleScenario.node[25].appl 	VehicleRemoved 	0
scalar IntersectionExampleScenario.node[25].appl 	ArrivedAtDest 	1
scalar IntersectionExampleScenario.node[25].appl 	IntersectionEnterTime 	83
scalar IntersectionExampleScenario.node[25].appl 	IntersectionExitTime 	109.56433816679
scalar IntersectionExampleScenario.node[25].appl 	NumberOfCollisions 	0
scalar IntersectionExampleScenario.node[25].nic.phy80211p 	busyTime 	0
scalar IntersectionExampleScenario.node[25].nic.mac1609_4 	ReceivedUnicastPackets 	0
scalar IntersectionExampleScenario.node[25].nic.mac1609_4 	ReceivedBroadcasts 	0
scalar IntersectionExampleScenario.node[25].nic.mac1609_4 	SentPackets 	0
scalar IntersectionExampleScenario.node[25].nic.mac1609_4 	SNIRLostPackets 	0
scalar IntersectionExampleScenario.node[25].nic.mac1609_4 	RXTXLostPackets 	0
scalar IntersectionExampleScenario.node[25].nic.mac1609_4 	TotalLostPackets 	0
scalar IntersectionExampleScenario.node[25].nic.mac1609_4 	DroppedPacketsInMac 	0
scalar IntersectionExampleScenario.node[25].nic.mac1609_4 	TooLittleTime 	0
scalar IntersectionExampleScenario.node[25].nic.mac1609_4 	TimesIntoBackoff 	0
scalar IntersectionExampleScenario.node[25].nic.mac1609_4 	SlotsBackoff 	0
scalar IntersectionExampleScenario.node[25].nic.mac1609_4 	NumInternalContention 	0
scalar IntersectionExampleScenario.node[25].nic.mac1609_4 	totalBusyTime 	0
scalar IntersectionExampleScenario.node[25].veinsmobility 	startTime 	83
scalar IntersectionExampleScenario.node[25].veinsmobility 	totalTime 	43
scalar IntersectionExampleScenario.node[25].veinsmobility 	stopTime 	126.25
scalar IntersectionExampleScenario.node[25].veinsmobility 	minSpeed 	4.265941619873
scalar IntersectionExampleScenario.node[25].veinsmobility 	maxSpeed 	15.875
scalar IntersectionExampleScenario.node[25].veinsmobility 	totalDistance 	562.55282531847
scalar IntersectionExampleScenario.node[25].veinsmobility 	totalCO2Emission 	134.5084581185
scalar IntersectionExampleScenario.node[27].appl 	VehicleRemoved 	0
scalar IntersectionExampleScenario.node[27].appl 	ArrivedAtDest 	1
scalar IntersectionExampleScenario.node[27].appl 	IntersectionEnterTime 	92
scalar IntersectionExampleScenario.node[27].appl 	IntersectionExitTime 	120.31163779271
scalar IntersectionExampleScenario.node[27].appl 	NumberOfCollisions 	0
scalar IntersectionExampleScenario.node[27].nic.phy80211p 	busyTime 	0
scalar IntersectionExampleScenario.node[27].nic.mac1609_4 	ReceivedUnicastPackets 	0
scalar IntersectionExampleScenario.node[27].nic.mac1609_4 	ReceivedBroadcasts 	0
scalar IntersectionExampleScenario.node[27].nic.mac1609_4 	SentPackets 	0
scalar IntersectionExampleScenario.node[27].nic.mac1609_4 	SNIRLostPackets 	0
scalar IntersectionExampleScenario.node[27].nic.mac1609_4 	RXTXLostPackets 	0
scalar IntersectionExampleScenario.node[27].nic.mac1609_4 	TotalLostPackets 	0
scalar IntersectionExampleScenario.node[27].nic.mac1609_4 	DroppedPacketsInMac 	0
scalar IntersectionExampleScenario.node[27].nic.mac1609_4 	TooLittleTime 	0
scalar IntersectionExampleScenario.node[27].nic.mac1609_4 	TimesIntoBackoff 	0
scalar IntersectionExampleScenario.node[27].nic.mac1609_4 	SlotsBackoff 	0
scalar IntersectionExampleScenario.node[27].nic.mac1609_4 	NumInternalContention 	0
scalar IntersectionExampleScenario.node[27].nic.mac1609_4 	totalBusyTime 	0
scalar IntersectionExampleScenario.node[27].veinsmobility 	startTime 	92
scalar IntersectionExampleScenario.node[27].veinsmobility 	totalTime 	45
scalar IntersectionExampleScenario.node[27].veinsmobility 	stopTime 	137.25
scalar IntersectionExampleScenario.node[27].veinsmobility 	minSpeed 	0
scalar IntersectionExampleScenario.node[27].veinsmobility 	maxSpeed 	15.02499961853
scalar IntersectionExampleScenario.node[27].veinsmobility 	totalDistance 	553.59945678711
scalar IntersectionExampleScenario.node[27].veinsmobility 	totalCO2Emission 	132.30012262687
scalar IntersectionExampleScenario.node[26].appl 	VehicleRemoved 	0
scalar IntersectionExampleScenario.node[26].appl 	ArrivedAtDest 	1
scalar IntersectionExampleScenario.node[26].appl 	IntersectionEnterTime 	91
scalar IntersectionExampleScenario.node[26].appl 	IntersectionExitTime 	130.76492329943
scalar IntersectionExampleScenario.node[26].appl 	NumberOfCollisions 	0
scalar IntersectionExampleScenario.node[26].nic.phy80211p 	busyTime 	0
scalar IntersectionExampleScenario.node[26].nic.mac1609_4 	ReceivedUnicastPackets 	0
scalar IntersectionExampleScenario.node[26].nic.mac1609_4 	ReceivedBroadcasts 	0
scalar IntersectionExampleScenario.node[26].nic.mac1609_4 	SentPackets 	0
scalar IntersectionExampleScenario.node[26].nic.mac1609_4 	SNIRLostPackets 	0
scalar IntersectionExampleScenario.node[26].nic.mac1609_4 	RXTXLostPackets 	0
scalar IntersectionExampleScenario.node[26].nic.mac1609_4 	TotalLostPackets 	0
scalar IntersectionExampleScenario.node[26].nic.mac1609_4 	DroppedPacketsInMac 	0
scalar IntersectionExampleScenario.node[26].nic.mac1609_4 	TooLittleTime 	0
scalar IntersectionExampleScenario.node[26].nic.mac1609_4 	TimesIntoBackoff 	0
scalar IntersectionExampleScenario.node[26].nic.mac1609_4 	SlotsBackoff 	0
scalar IntersectionExampleScenario.node[26].nic.mac1609_4 	NumInternalContention 	0
scalar IntersectionExampleScenario.node[26].nic.mac1609_4 	totalBusyTime 	0
scalar IntersectionExampleScenario.node[26].veinsmobility 	startTime 	91
scalar IntersectionExampleScenario.node[26].veinsmobility 	totalTime 	56.75
scalar IntersectionExampleScenario.node[26].veinsmobility 	stopTime 	148
scalar IntersectionExampleScenario.node[26].veinsmobility 	minSpeed 	0
scalar IntersectionExampleScenario.node[26].veinsmobility 	maxSpeed 	15.02499961853
scalar IntersectionExampleScenario.node[26].veinsmobility 	totalDistance 	550.86341219377
scalar IntersectionExampleScenario.node[26].veinsmobility 	totalCO2Emission 	143.08594287722
scalar IntersectionExampleScenario.node[28].appl 	VehicleRemoved 	0
scalar IntersectionExampleScenario.node[28].appl 	ArrivedAtDest 	1
scalar IntersectionExampleScenario.node[28].appl 	IntersectionEnterTime 	94.25
scalar IntersectionExampleScenario.node[28].appl 	IntersectionExitTime 	133.61849037692
scalar IntersectionExampleScenario.node[28].appl 	NumberOfCollisions 	0
scalar IntersectionExampleScenario.node[28].nic.phy80211p 	busyTime 	0
scalar IntersectionExampleScenario.node[28].nic.mac1609_4 	ReceivedUnicastPackets 	0
scalar IntersectionExampleScenario.node[28].nic.mac1609_4 	ReceivedBroadcasts 	0
scalar IntersectionExampleScenario.node[28].nic.mac1609_4 	SentPackets 	0
scalar IntersectionExampleScenario.node[28].nic.mac1609_4 	SNIRLostPackets 	0
scalar IntersectionExampleScenario.node[28].nic.mac1609_4 	RXTXLostPackets 	0
scalar IntersectionExampleScenario.node[28].nic.mac1609_4 	TotalLostPackets 	0
scalar IntersectionExampleScenario.node[28].nic.mac1609_4 	DroppedPacketsInMac 	0
scalar IntersectionExampleScenario.node[28].nic.mac1609_4 	TooLittleTime 	0
scalar IntersectionExampleScenario.node[28].nic.mac1609_4 	TimesIntoBackoff 	0
scalar IntersectionExampleScenario.node[28].nic.mac1609_4 	SlotsBackoff 	0
scalar IntersectionExampleScenario.node[28].nic.mac1609_4 	NumInternalContention 	0
scalar IntersectionExampleScenario.node[28].nic.mac1609_4 	totalBusyTime 	0
scalar IntersectionExampleScenario.node[28].veinsmobility 	startTime 	94.25
scalar IntersectionExampleScenario.node[28].veinsmobility 	totalTime 	55.5
scalar IntersectionExampleScenario.node[28].veinsmobility 	stopTime 	150
scalar IntersectionExampleScenario.node[28].veinsmobility 	minSpeed 	0
scalar IntersectionExampleScenario.node[28].veinsmobility 	maxSpeed 	15.297855377197
scalar IntersectionExampleScenario.node[28].veinsmobility 	totalDistance 	560.49669358652
scalar IntersectionExampleScenario.node[28].veinsmobility 	totalCO2Emission 	148.51019511189
scalar IntersectionExampleScenario.node[29].appl 	VehicleRemoved 	0
scalar IntersectionExampleScenario.node[29].appl 	ArrivedAtDest 	1
scalar IntersectionExampleScenario.node[29].appl 	IntersectionEnterTime 	101
scalar IntersectionExampleScenario.node[29].appl 	IntersectionExitTime 	135.28861734574
scalar IntersectionExampleScenario.node[29].appl 	NumberOfCollisions 	0
scalar IntersectionExampleScenario.node[29].nic.phy80211p 	busyTime 	0
scalar IntersectionExampleScenario.node[29].nic.mac1609_4 	ReceivedUnicastPackets 	0
scalar IntersectionExampleScenario.node[29].nic.mac1609_4 	ReceivedBroadcasts 	0
scalar IntersectionExampleScenario.node[29].nic.mac1609_4 	SentPackets 	0
scalar IntersectionExampleScenario.node[29].nic.mac1609_4 	SNIRLostPackets 	0
scalar IntersectionExampleScenario.node[29].nic.mac1609_4 	RXTXLostPackets 	0
scalar IntersectionExampleScenario.node[29].nic.mac1609_4 	TotalLostPackets 	0
scalar IntersectionExampleScenario.node[29].nic.mac1609_4 	DroppedPacketsInMac 	0
scalar IntersectionExampleScenario.node[29].nic.mac1609_4 	TooLittleTime 	0
scalar IntersectionExampleScenario.node[29].nic.mac1609_4 	TimesIntoBackoff 	0
scalar IntersectionExampleScenario.node[29].nic.mac1609_4 	SlotsBackoff 	0
scalar IntersectionExampleScenario.node[29].nic.mac1609_4 	NumInternalContention 	0
scalar IntersectionExampleScenario.node[29].nic.mac1609_4 	totalBusyTime 	0
scalar IntersectionExampleScenario.node[29].veinsmobility 	startTime 	101
scalar IntersectionExampleScenario.node[29].veinsmobility 	totalTime 	49.5
scalar IntersectionExampleScenario.node[29].veinsmobility 	stopTime 	150.75
scalar IntersectionExampleScenario.node[29].veinsmobility 	minSpeed 	1.311931014061
scalar IntersectionExampleScenario.node[29].veinsmobility 	maxSpeed 	16.125
scalar IntersectionExampleScenario.node[29].veinsmobility 	totalDistance 	552.25291442871
scalar IntersectionExampleScenario.node[29].veinsmobility 	totalCO2Emission 	143.66847170181
scalar IntersectionExampleScenario.node[32].appl 	VehicleRemoved 	0
scalar IntersectionExampleScenario.node[32].appl 	ArrivedAtDest 	1
scalar IntersectionExampleScenario.node[32].appl 	IntersectionEnterTime 	111.25
scalar IntersectionExampleScenario.node[32].appl 	IntersectionExitTime 	137.51101252777
scalar IntersectionExampleScenario.node[32].appl 	NumberOfCollisions 	0
scalar IntersectionExampleScenario.node[32].nic.phy80211p 	busyTime 	0
scalar IntersectionExampleScenario.node[32].nic.mac1609_4 	ReceivedUnicastPackets 	0
scalar IntersectionExampleScenario.node[32].nic.mac1609_4 	ReceivedBroadcasts 	0
scalar IntersectionExampleScenario.node[32].nic.mac1609_4 	SentPackets 	0
scalar IntersectionExampleScenario.node[32].nic.mac1609_4 	SNIRLostPackets 	0
scalar IntersectionExampleScenario.node[32].nic.mac1609_4 	RXTXLostPackets 	0
scalar IntersectionExampleScenario.node[32].nic.mac1609_4 	TotalLostPackets 	0
scalar IntersectionExampleScenario.node[32].nic.mac1609_4 	DroppedPacketsInMac 	0
scalar IntersectionExampleScenario.node[32].nic.mac1609_4 	TooLittleTime 	0
scalar IntersectionExampleScenario.node[32].nic.mac1609_4 	TimesIntoBackoff 	0
scalar IntersectionExampleScenario.node[32].nic.mac1609_4 	SlotsBackoff 	0
scalar IntersectionExampleScenario.node[32].nic.mac1609_4 	NumInternalContention 	0
scalar IntersectionExampleScenario.node[32].nic.mac1609_4 	totalBusyTime 	0
scalar IntersectionExampleScenario.node[32].veinsmobility 	startTime 	111.25
scalar IntersectionExampleScenario.node[32].veinsmobility 	totalTime 	42.5
scalar IntersectionExampleScenario.node[32].veinsmobility 	stopTime 	154
scalar IntersectionExampleScenario.node[32].veinsmobility 	minSpeed 	5.6500000953674
scalar IntersectionExampleScenario.node[32].veinsmobility 	maxSpeed 	15.64999961853
scalar IntersectionExampleScenario.node[32].veinsmobility 	totalDistance 	549.22481097096
scalar IntersectionExampleScenario.node[32].veinsmobility 	totalCO2Emission 	137.54921520608
scalar IntersectionExampleScenario.node[33].appl 	VehicleRemoved 	0
scalar IntersectionExampleScenario.node[33].appl 	ArrivedAtDest 	1
scalar IntersectionExampleScenario.node[33].appl 	IntersectionEnterTime 	112.25
scalar IntersectionExampleScenario.node[33].appl 	IntersectionExitTime 	139.1195887576
scalar IntersectionExampleScenario.node[33].appl 	NumberOfCollisions 	0
scalar IntersectionExampleScenario.node[33].nic.phy80211p 	busyTime 	0
scalar IntersectionExampleScenario.node[33].nic.mac1609_4 	ReceivedUnicastPackets 	0
scalar IntersectionExampleScenario.node[33].nic.mac1609_4 	ReceivedBroadcasts 	0
scalar IntersectionExampleScenario.node[33].nic.mac1609_4 	SentPackets 	0
scalar IntersectionExampleScenario.node[33].nic.mac1609_4 	SNIRLostPackets 	0
scalar IntersectionExampleScenario.node[33].nic.mac1609_4 	RXTXLostPackets 	0
scalar IntersectionExampleScenario.node[33].nic.mac1609_4 	TotalLostPackets 	0
scalar IntersectionExampleScenario.node[33].nic.mac1609_4 	DroppedPacketsInMac 	0
scalar IntersectionExampleScenario.node[33].nic.mac1609_4 	TooLittleTime 	0
scalar IntersectionExampleScenario.node[33].nic.mac1609_4 	TimesIntoBackoff 	0
scalar IntersectionExampleScenario.node[33].nic.mac1609_4 	SlotsBackoff 	0
scalar IntersectionExampleScenario.node[33].nic.mac1609_4 	NumInternalContention 	0
scalar IntersectionExampleScenario.node[33].nic.mac1609_4 	totalBusyTime 	0
scalar IntersectionExampleScenario.node[33].veinsmobility 	startTime 	112.25
scalar IntersectionExampleScenario.node[33].veinsmobility 	totalTime 	43.25
scalar IntersectionExampleScenario.node[33].veinsmobility 	stopTime 	155.75
scalar IntersectionExampleScenario.node[33].veinsmobility 	minSpeed 	5.6500000953674
scalar IntersectionExampleScenario.node[33].veinsmobility 	maxSpeed 	15.02499961853
scalar IntersectionExampleScenario.node[33].veinsmobility 	totalDistance 	575.19940185547
scalar IntersectionExampleScenario.node[33].veinsmobility 	totalCO2Emission 	127.0894661712
scalar IntersectionExampleScenario.node[34].appl 	VehicleRemoved 	0
scalar IntersectionExampleScenario.node[34].appl 	ArrivedAtDest 	1
scalar IntersectionExampleScenario.node[34].appl 	IntersectionEnterTime 	116.5
scalar IntersectionExampleScenario.node[34].appl 	IntersectionExitTime 	139.83732363657
scalar IntersectionExampleScenario.node[34].appl 	NumberOfCollisions 	0
scalar IntersectionExampleScenario.node[34].nic.phy80211p 	busyTime 	0
scalar IntersectionExampleScenario.node[34].nic.mac1609_4 	ReceivedUnicastPackets 	0
scalar IntersectionExampleScenario.node[34].nic.mac1609_4 	ReceivedBroadcasts 	0
scalar IntersectionExampleScenario.node[34].nic.mac1609_4 	SentPackets 	0
scalar IntersectionExampleScenario.node[34].nic.mac1609_4 	SNIRLostPackets 	0
scalar IntersectionExampleScenario.node[34].nic.mac1609_4 	RXTXLostPackets 	0
scalar IntersectionExampleScenario.node[34].nic.mac1609_4 	TotalLostPackets 	0
scalar IntersectionExampleScenario.node[34].nic.mac1609_4 	DroppedPacketsInMac 	0
scalar IntersectionExampleScenario.node[34].nic.mac1609_4 	TooLittleTime 	0
scalar IntersectionExampleScenario.node[34].nic.mac1609_4 	TimesIntoBackoff 	0
scalar IntersectionExampleScenario.node[34].nic.mac1609_4 	SlotsBackoff 	0
scalar IntersectionExampleScenario.node[34].nic.mac1609_4 	NumInternalContention 	0
scalar IntersectionExampleScenario.node[34].nic.mac1609_4 	totalBusyTime 	0
scalar IntersectionExampleScenario.node[34].veinsmobility 	startTime 	116.5
scalar IntersectionExampleScenario.node[34].veinsmobility 	totalTime 	40
scalar IntersectionExampleScenario.node[34].veinsmobility 	stopTime 	156.75
scalar IntersectionExampleScenario.node[34].veinsmobility 	minSpeed 	5.6500000953674
scalar IntersectionExampleScenario.node[34].veinsmobility 	maxSpeed 	15.875
scalar IntersectionExampleScenario.node[34].veinsmobility 	totalDistance 	545.62878780216
scalar IntersectionExampleScenario.node[34].veinsmobility 	totalCO2Emission 	127.12384671915
scalar IntersectionExampleScenario.node[30].appl 	VehicleRemoved 	0
scalar IntersectionExampleScenario.node[30].appl 	ArrivedAtDest 	1
scalar IntersectionExampleScenario.node[30].appl 	IntersectionEnterTime 	102.25
scalar IntersectionExampleScenario.node[30].appl 	IntersectionExitTime 	144.31447281761
scalar IntersectionExampleScenario.node[30].appl 	NumberOfCollisions 	0
scalar IntersectionExampleScenario.node[30].nic.phy80211p 	busyTime 	0
scalar IntersectionExampleScenario.node[30].nic.mac1609_4 	ReceivedUnicastPackets 	0
scalar IntersectionExampleScenario.node[30].nic.mac1609_4 	ReceivedBroadcasts 	0
scalar IntersectionExampleScenario.node[30].nic.mac1609_4 	SentPackets 	0
scalar IntersectionExampleScenario.node[30].nic.mac1609_4 	SNIRLostPackets 	0
scalar IntersectionExampleScenario.node[30].nic.mac1609_4 	RXTXLostPackets 	0
scalar IntersectionExampleScenario.node[30].nic.mac1609_4 	TotalLostPackets 	0
scalar IntersectionExampleScenario.node[30].nic.mac1609_4 	DroppedPacketsInMac 	0
scalar IntersectionExampleScenario.node[30].nic.mac1609_4 	TooLittleTime 	0
scalar IntersectionExampleScenario.node[30].nic.mac1609_4 	TimesIntoBackoff 	0
scalar IntersectionExampleScenario.node[30].nic.mac1609_4 	SlotsBackoff 	0
scalar IntersectionExampleScenario.node[30].nic.mac1609_4 	NumInternalContention 	0
scalar IntersectionExampleScenario.node[30].nic.mac1609_4 	totalBusyTime 	0
scalar IntersectionExampleScenario.node[30].veinsmobility 	startTime 	102.25
scalar IntersectionExampleScenario.node[30].veinsmobility 	totalTime 	58.5
scalar IntersectionExampleScenario.node[30].veinsmobility 	stopTime 	161
scalar IntersectionExampleScenario.node[30].veinsmobility 	minSpeed 	0
scalar IntersectionExampleScenario.node[30].veinsmobility 	maxSpeed 	15.02499961853
scalar IntersectionExampleScenario.node[30].veinsmobility 	totalDistance 	552.00149644961
scalar IntersectionExampleScenario.node[30].veinsmobility 	totalCO2Emission 	147.94503276266
scalar IntersectionExampleScenario.node[31].appl 	VehicleRemoved 	0
scalar IntersectionExampleScenario.node[31].appl 	ArrivedAtDest 	1
scalar IntersectionExampleScenario.node[31].appl 	IntersectionEnterTime 	110.75
scalar IntersectionExampleScenario.node[31].appl 	IntersectionExitTime 	155.30488366107
scalar IntersectionExampleScenario.node[31].appl 	NumberOfCollisions 	0
scalar IntersectionExampleScenario.node[31].nic.phy80211p 	busyTime 	0
scalar IntersectionExampleScenario.node[31].nic.mac1609_4 	ReceivedUnicastPackets 	0
scalar IntersectionExampleScenario.node[31].nic.mac1609_4 	ReceivedBroadcasts 	0
scalar IntersectionExampleScenario.node[31].nic.mac1609_4 	SentPackets 	0
scalar IntersectionExampleScenario.node[31].nic.mac1609_4 	SNIRLostPackets 	0
scalar IntersectionExampleScenario.node[31].nic.mac1609_4 	RXTXLostPackets 	0
scalar IntersectionExampleScenario.node[31].nic.mac1609_4 	TotalLostPackets 	0
scalar IntersectionExampleScenario.node[31].nic.mac1609_4 	DroppedPacketsInMac 	0
scalar IntersectionExampleScenario.node[31].nic.mac1609_4 	TooLittleTime 	0
scalar IntersectionExampleScenario.node[31].nic.mac1609_4 	TimesIntoBackoff 	0
scalar IntersectionExampleScenario.node[31].nic.mac1609_4 	SlotsBackoff 	0
scalar IntersectionExampleScenario.node[31].nic.mac1609_4 	NumInternalContention 	0
scalar IntersectionExampleScenario.node[31].nic.mac1609_4 	totalBusyTime 	0
scalar IntersectionExampleScenario.node[31].veinsmobility 	startTime 	110.75
scalar IntersectionExampleScenario.node[31].veinsmobility 	totalTime 	60.25
scalar IntersectionExampleScenario.node[31].veinsmobility 	stopTime 	171.25
scalar IntersectionExampleScenario.node[31].veinsmobility 	minSpeed 	0
scalar IntersectionExampleScenario.node[31].veinsmobility 	maxSpeed 	16.27499961853
scalar IntersectionExampleScenario.node[31].veinsmobility 	totalDistance 	551.4950953876
scalar IntersectionExampleScenario.node[31].veinsmobility 	totalCO2Emission 	156.50548038682
scalar IntersectionExampleScenario.node[36].appl 	VehicleRemoved 	0
scalar IntersectionExampleScenario.node[36].appl 	ArrivedAtDest 	1
scalar IntersectionExampleScenario.node[36].appl 	IntersectionEnterTime 	138
scalar IntersectionExampleScenario.node[36].appl 	IntersectionExitTime 	161.62494450141
scalar IntersectionExampleScenario.node[36].appl 	NumberOfCollisions 	0
scalar IntersectionExampleScenario.node[36].nic.phy80211p 	busyTime 	0
scalar IntersectionExampleScenario.node[36].nic.mac1609_4 	ReceivedUnicastPackets 	0
scalar IntersectionExampleScenario.node[36].nic.mac1609_4 	ReceivedBroadcasts 	0
scalar IntersectionExampleScenario.node[36].nic.mac1609_4 	SentPackets 	0
scalar IntersectionExampleScenario.node[36].nic.mac1609_4 	SNIRLostPackets 	0
scalar IntersectionExampleScenario.node[36].nic.mac1609_4 	RXTXLostPackets 	0
scalar IntersectionExampleScenario.node[36].nic.mac1609_4 	TotalLostPackets 	0
scalar IntersectionExampleScenario.node[36].nic.mac1609_4 	DroppedPacketsInMac 	0
scalar IntersectionExampleScenario.node[36].nic.mac1609_4 	TooLittleTime 	0
scalar IntersectionExampleScenario.node[36].nic.mac1609_4 	TimesIntoBackoff 	0
scalar IntersectionExampleScenario.node[36].nic.mac1609_4 	SlotsBackoff 	0
scalar IntersectionExampleScenario.node[36].nic.mac1609_4 	NumInternalContention 	0
scalar IntersectionExampleScenario.node[36].nic.mac1609_4 	totalBusyTime 	0
scalar IntersectionExampleScenario.node[36].veinsmobility 	startTime 	138
scalar IntersectionExampleScenario.node[36].veinsmobility 	totalTime 	40.25
scalar IntersectionExampleScenario.node[36].veinsmobility 	stopTime 	178.5
scalar IntersectionExampleScenario.node[36].veinsmobility 	minSpeed 	5.6500000953674
scalar IntersectionExampleScenario.node[36].veinsmobility 	maxSpeed 	15.64999961853
scalar IntersectionExampleScenario.node[36].veinsmobility 	totalDistance 	543.88909018596
scalar IntersectionExampleScenario.node[36].veinsmobility 	totalCO2Emission 	125.91256791225
scalar IntersectionExampleScenario.node[35].appl 	VehicleRemoved 	0
scalar IntersectionExampleScenario.node[35].appl 	ArrivedAtDest 	1
scalar IntersectionExampleScenario.node[35].appl 	IntersectionEnterTime 	122.25
scalar IntersectionExampleScenario.node[35].appl 	IntersectionExitTime 	165.50328186632
scalar IntersectionExampleScenario.node[35].appl 	NumberOfCollisions 	0
scalar IntersectionExampleScenario.node[35].nic.phy80211p 	busyTime 	0
scalar IntersectionExampleScenario.node[35].nic.mac1609_4 	ReceivedUnicastPackets 	0
scalar IntersectionExampleScenario.node[35].nic.mac1609_4 	ReceivedBroadcasts 	0
scalar IntersectionExampleScenario.node[35].nic.mac1609_4 	SentPackets 	0
scalar IntersectionExampleScenario.node[35].nic.mac1609_4 	SNIRLostPackets 	0
scalar IntersectionExampleScenario.node[35].nic.mac1609_4 	RXTXLostPackets 	0
scalar IntersectionExampleScenario.node[35].nic.mac1609_4 	TotalLostPackets 	0
scalar IntersectionExampleScenario.node[35].nic.mac1609_4 	DroppedPacketsInMac 	0
scalar IntersectionExampleScenario.node[35].nic.mac1609_4 	TooLittleTime 	0
scalar IntersectionExampleScenario.node[35].nic.mac1609_4 	TimesIntoBackoff 	0
scalar IntersectionExampleScenario.node[35].nic.mac1609_4 	SlotsBackoff 	0
scalar IntersectionExampleScenario.node[35].nic.mac1609_4 	NumInternalContention 	0
scalar IntersectionExampleScenario.node[35].nic.mac1609_4 	totalBusyTime 	0
scalar IntersectionExampleScenario.node[35].veinsmobility 	startTime 	122.25
scalar IntersectionExampleScenario.node[35].veinsmobility 	totalTime 	59
scalar IntersectionExampleScenario.node[35].veinsmobility 	stopTime 	181.5
scalar IntersectionExampleScenario.node[35].veinsmobility 	minSpeed 	0
scalar IntersectionExampleScenario.node[35].veinsmobility 	maxSpeed 	16.89999961853
scalar IntersectionExampleScenario.node[35].veinsmobility 	totalDistance 	542.29387570769
scalar IntersectionExampleScenario.node[35].veinsmobility 	totalCO2Emission 	160.41436135747
scalar IntersectionExampleScenario.node[37].appl 	VehicleRemoved 	0
scalar IntersectionExampleScenario.node[37].appl 	ArrivedAtDest 	1
scalar IntersectionExampleScenario.node[37].appl 	IntersectionEnterTime 	154.5
scalar IntersectionExampleScenario.node[37].appl 	IntersectionExitTime 	178.84552470583
scalar IntersectionExampleScenario.node[37].appl 	NumberOfCollisions 	0
scalar IntersectionExampleScenario.node[37].nic.phy80211p 	busyTime 	0
scalar IntersectionExampleScenario.node[37].nic.mac1609_4 	ReceivedUnicastPackets 	0
scalar IntersectionExampleScenario.node[37].nic.mac1609_4 	ReceivedBroadcasts 	0
scalar IntersectionExampleScenario.node[37].nic.mac1609_4 	SentPackets 	0
scalar IntersectionExampleScenario.node[37].nic.mac1609_4 	SNIRLostPackets 	0
scalar IntersectionExampleScenario.node[37].nic.mac1609_4 	RXTXLostPackets 	0
scalar IntersectionExampleScenario.node[37].nic.mac1609_4 	TotalLostPackets 	0
scalar IntersectionExampleScenario.node[37].nic.mac1609_4 	DroppedPacketsInMac 	0
scalar IntersectionExampleScenario.node[37].nic.mac1609_4 	TooLittleTime 	0
scalar IntersectionExampleScenario.node[37].nic.mac1609_4 	TimesIntoBackoff 	0
scalar IntersectionExampleScenario.node[37].nic.mac1609_4 	SlotsBackoff 	0
scalar IntersectionExampleScenario.node[37].nic.mac1609_4 	NumInternalContention 	0
scalar IntersectionExampleScenario.node[37].nic.mac1609_4 	totalBusyTime 	0
scalar IntersectionExampleScenario.node[37].veinsmobility 	startTime 	154.5
scalar IntersectionExampleScenario.node[37].veinsmobility 	totalTime 	39.25
scalar IntersectionExampleScenario.node[37].veinsmobility 	stopTime 	194
scalar IntersectionExampleScenario.node[37].veinsmobility 	minSpeed 	4.0068593025208
scalar IntersectionExampleScenario.node[37].veinsmobility 	maxSpeed 	16.89999961853
scalar IntersectionExampleScenario.node[37].veinsmobility 	totalDistance 	553.625831604
scalar IntersectionExampleScenario.node[37].veinsmobility 	totalCO2Emission 	139.68522431838
scalar IntersectionExampleScenario.node[41].appl 	VehicleRemoved 	0
scalar IntersectionExampleScenario.node[41].appl 	ArrivedAtDest 	1
scalar IntersectionExampleScenario.node[41].appl 	IntersectionEnterTime 	168
scalar IntersectionExampleScenario.node[41].appl 	IntersectionExitTime 	191.86952353409
scalar IntersectionExampleScenario.node[41].appl 	NumberOfCollisions 	0
scalar IntersectionExampleScenario.node[41].nic.phy80211p 	busyTime 	0
scalar IntersectionExampleScenario.node[41].nic.mac1609_4 	ReceivedUnicastPackets 	0
scalar IntersectionExampleScenario.node[41].nic.mac1609_4 	ReceivedBroadcasts 	0
scalar IntersectionExampleScenario.node[41].nic.mac1609_4 	SentPackets 	0
scalar IntersectionExampleScenario.node[41].nic.mac1609_4 	SNIRLostPackets 	0
scalar IntersectionExampleScenario.node[41].nic.mac1609_4 	RXTXLostPackets 	0
scalar IntersectionExampleScenario.node[41].nic.mac1609_4 	TotalLostPackets 	0
scalar IntersectionExampleScenario.node[41].nic.mac1609_4 	DroppedPacketsInMac 	0
scalar IntersectionExampleScenario.node[41].nic.mac1609_4 	TooLittleTime 	0
scalar IntersectionExampleScenario.node[41].nic.mac1609_4 	TimesIntoBackoff 	0
scalar IntersectionExampleScenario.node[41].nic.mac1609_4 	SlotsBackoff 	0
scalar IntersectionExampleScenario.node[41].nic.mac1609_4 	NumInternalContention 	0
scalar IntersectionExampleScenario.node[41].nic.mac1609_4 	totalBusyTime 	0
scalar IntersectionExampleScenario.node[41].veinsmobility 	startTime 	168
scalar IntersectionExampleScenario.node[41].veinsmobility 	totalTime 	40.75
scalar IntersectionExampleScenario.node[41].veinsmobility 	stopTime 	209
scalar IntersectionExampleScenario.node[41].veinsmobility 	minSpeed 	5.6500000953674
scalar IntersectionExampleScenario.node[41].veinsmobility 	maxSpeed 	15.02499961853
scalar IntersectionExampleScenario.node[41].veinsmobility 	totalDistance 	550.91109939169
scalar IntersectionExampleScenario.node[41].veinsmobility 	totalCO2Emission 	119.02187878506
scalar IntersectionExampleScenario.node[43].appl 	VehicleRemoved 	0
scalar IntersectionExampleScenario.node[43].appl 	ArrivedAtDest 	1
scalar IntersectionExampleScenario.node[43].appl 	IntersectionEnterTime 	170.25
scalar IntersectionExampleScenario.node[43].appl 	IntersectionExitTime 	195.04068979959
scalar IntersectionExampleScenario.node[43].appl 	NumberOfCollisions 	0
scalar IntersectionExampleScenario.node[43].nic.phy80211p 	busyTime 	0
scalar IntersectionExampleScenario.node[43].nic.mac1609_4 	ReceivedUnicastPackets 	0
scalar IntersectionExampleScenario.node[43].nic.mac1609_4 	ReceivedBroadcasts 	0
scalar IntersectionExampleScenario.node[43].nic.mac1609_4 	SentPackets 	0
scalar IntersectionExampleScenario.node[43].nic.mac1609_4 	SNIRLostPackets 	0
scalar IntersectionExampleScenario.node[43].nic.mac1609_4 	RXTXLostPackets 	0
scalar IntersectionExampleScenario.node[43].nic.mac1609_4 	TotalLostPackets 	0
scalar IntersectionExampleScenario.node[43].nic.mac1609_4 	DroppedPacketsInMac 	0
scalar IntersectionExampleScenario.node[43].nic.mac1609_4 	TooLittleTime 	0
scalar IntersectionExampleScenario.node[43].nic.mac1609_4 	TimesIntoBackoff 	0
scalar IntersectionExampleScenario.node[43].nic.mac1609_4 	SlotsBackoff 	0
[...]
scalar IntersectionExampleScenario.node[438].nic.mac1609_4 	NumInternalContention 	0
scalar IntersectionExampleScenario.node[438].nic.mac1609_4 	totalBusyTime 	0
scalar IntersectionExampleScenario.node[438].veinsmobility 	startTime 	1759
scalar IntersectionExampleScenario.node[438].veinsmobility 	totalTime 	40.75
scalar IntersectionExampleScenario.node[438].veinsmobility 	stopTime 	1800
scalar IntersectionExampleScenario.node[438].veinsmobility 	minSpeed 	5.6500000953674
scalar IntersectionExampleScenario.node[438].veinsmobility 	maxSpeed 	15.25
scalar IntersectionExampleScenario.node[438].veinsmobility 	totalDistance 	545.00396045028
scalar IntersectionExampleScenario.node[438].veinsmobility 	totalCO2Emission 	124.51165240541
scalar IntersectionExampleScenario.manager 	EndTime 	1591483384
scalar IntersectionExampleScenario.manager 	StartTime 	1591483231
scalar IntersectionExampleScenario.manager 	TotalDuration 	153
scalar IntersectionExampleScenario.manager 	TotalFlux 	14.666666666667
scalar IntersectionExampleScenario.manager 	Direction-South-Flux 	3.3666666666667
scalar IntersectionExampleScenario.manager 	Direction-West-Flux 	3.8666666666667
scalar IntersectionExampleScenario.manager 	Direction-North-Flux 	4
scalar IntersectionExampleScenario.manager 	Direction-East-Flux 	3.4333333333333
scalar IntersectionExampleScenario.manager 	TotalMeanTime 	33.921746302248
scalar IntersectionExampleScenario.manager 	Direction-South-MeanTime 	33.624235413256
scalar IntersectionExampleScenario.manager 	Direction-West-MeanTime 	34.028286556613
scalar IntersectionExampleScenario.manager 	Direction-North-MeanTime 	34.896498939328
scalar IntersectionExampleScenario.manager 	Direction-East-MeanTime 	32.9578590579
scalar IntersectionExampleScenario.manager 	TotalStandardDeviation 	8.2560421475301
scalar IntersectionExampleScenario.manager 	Direction-South-StDev 	7.9000994786135
scalar IntersectionExampleScenario.manager 	Direction-West-StDev 	7.5985421484952
scalar IntersectionExampleScenario.manager 	Direction-North-StDev 	8.8168063556637
scalar IntersectionExampleScenario.manager 	Direction-East-StDev 	8.5001004684932
scalar IntersectionExampleScenario.node[437].appl 	VehicleRemoved 	0
scalar IntersectionExampleScenario.node[437].appl 	ArrivedAtDest 	0
scalar IntersectionExampleScenario.node[437].appl 	IntersectionEnterTime 	1751.25
scalar IntersectionExampleScenario.node[437].appl 	IntersectionExitTime 	1788.5242303459
scalar IntersectionExampleScenario.node[437].appl 	NumberOfCollisions 	0
scalar IntersectionExampleScenario.node[437].nic.phy80211p 	busyTime 	0
scalar IntersectionExampleScenario.node[437].nic.mac1609_4 	ReceivedUnicastPackets 	0
scalar IntersectionExampleScenario.node[437].nic.mac1609_4 	ReceivedBroadcasts 	0
scalar IntersectionExampleScenario.node[437].nic.mac1609_4 	SentPackets 	0
scalar IntersectionExampleScenario.node[437].nic.mac1609_4 	SNIRLostPackets 	0
scalar IntersectionExampleScenario.node[437].nic.mac1609_4 	RXTXLostPackets 	0
scalar IntersectionExampleScenario.node[437].nic.mac1609_4 	TotalLostPackets 	0
scalar IntersectionExampleScenario.node[437].nic.mac1609_4 	DroppedPacketsInMac 	0
scalar IntersectionExampleScenario.node[437].nic.mac1609_4 	TooLittleTime 	0
scalar IntersectionExampleScenario.node[437].nic.mac1609_4 	TimesIntoBackoff 	0
scalar IntersectionExampleScenario.node[437].nic.mac1609_4 	SlotsBackoff 	0
scalar IntersectionExampleScenario.node[437].nic.mac1609_4 	NumInternalContention 	0
scalar IntersectionExampleScenario.node[437].nic.mac1609_4 	totalBusyTime 	0
scalar IntersectionExampleScenario.node[437].veinsmobility 	startTime 	1751.25
scalar IntersectionExampleScenario.node[437].veinsmobility 	totalTime 	48.75
scalar IntersectionExampleScenario.node[437].veinsmobility 	stopTime 	1800
scalar IntersectionExampleScenario.node[437].veinsmobility 	minSpeed 	0
scalar IntersectionExampleScenario.node[437].veinsmobility 	maxSpeed 	16.5
scalar IntersectionExampleScenario.node[437].veinsmobility 	totalDistance 	470.5149831906
scalar IntersectionExampleScenario.node[437].veinsmobility 	totalCO2Emission 	140.52046503272
scalar IntersectionExampleScenario.node[439].appl 	VehicleRemoved 	0
scalar IntersectionExampleScenario.node[439].appl 	ArrivedAtDest 	0
scalar IntersectionExampleScenario.node[439].appl 	IntersectionEnterTime 	1764.5
scalar IntersectionExampleScenario.node[439].appl 	IntersectionExitTime 	-1
scalar IntersectionExampleScenario.node[439].appl 	NumberOfCollisions 	0
scalar IntersectionExampleScenario.node[439].nic.phy80211p 	busyTime 	0
scalar IntersectionExampleScenario.node[439].nic.mac1609_4 	ReceivedUnicastPackets 	0
scalar IntersectionExampleScenario.node[439].nic.mac1609_4 	ReceivedBroadcasts 	0
scalar IntersectionExampleScenario.node[439].nic.mac1609_4 	SentPackets 	0
scalar IntersectionExampleScenario.node[439].nic.mac1609_4 	SNIRLostPackets 	0
scalar IntersectionExampleScenario.node[439].nic.mac1609_4 	RXTXLostPackets 	0
scalar IntersectionExampleScenario.node[439].nic.mac1609_4 	TotalLostPackets 	0
scalar IntersectionExampleScenario.node[439].nic.mac1609_4 	DroppedPacketsInMac 	0
scalar IntersectionExampleScenario.node[439].nic.mac1609_4 	TooLittleTime 	0
scalar IntersectionExampleScenario.node[439].nic.mac1609_4 	TimesIntoBackoff 	0
scalar IntersectionExampleScenario.node[439].nic.mac1609_4 	SlotsBackoff 	0
scalar IntersectionExampleScenario.node[439].nic.mac1609_4 	NumInternalContention 	0
scalar IntersectionExampleScenario.node[439].nic.mac1609_4 	totalBusyTime 	0
scalar IntersectionExampleScenario.node[439].veinsmobility 	startTime 	1764.5
scalar IntersectionExampleScenario.node[439].veinsmobility 	totalTime 	35.5
scalar IntersectionExampleScenario.node[439].veinsmobility 	stopTime 	1800
scalar IntersectionExampleScenario.node[439].veinsmobility 	minSpeed 	0
scalar IntersectionExampleScenario.node[439].veinsmobility 	maxSpeed 	14.39999961853
scalar IntersectionExampleScenario.node[439].veinsmobility 	totalDistance 	287.42188262939
scalar IntersectionExampleScenario.node[439].veinsmobility 	totalCO2Emission 	75.810811462205
scalar IntersectionExampleScenario.node[440].appl 	VehicleRemoved 	0
scalar IntersectionExampleScenario.node[440].appl 	ArrivedAtDest 	0
scalar IntersectionExampleScenario.node[440].appl 	IntersectionEnterTime 	1765
scalar IntersectionExampleScenario.node[440].appl 	IntersectionExitTime 	1791.6156755367
scalar IntersectionExampleScenario.node[440].appl 	NumberOfCollisions 	0
scalar IntersectionExampleScenario.node[440].nic.phy80211p 	busyTime 	0
scalar IntersectionExampleScenario.node[440].nic.mac1609_4 	ReceivedUnicastPackets 	0
scalar IntersectionExampleScenario.node[440].nic.mac1609_4 	ReceivedBroadcasts 	0
scalar IntersectionExampleScenario.node[440].nic.mac1609_4 	SentPackets 	0
scalar IntersectionExampleScenario.node[440].nic.mac1609_4 	SNIRLostPackets 	0
scalar IntersectionExampleScenario.node[440].nic.mac1609_4 	RXTXLostPackets 	0
scalar IntersectionExampleScenario.node[440].nic.mac1609_4 	TotalLostPackets 	0
scalar IntersectionExampleScenario.node[440].nic.mac1609_4 	DroppedPacketsInMac 	0
scalar IntersectionExampleScenario.node[440].nic.mac1609_4 	TooLittleTime 	0
scalar IntersectionExampleScenario.node[440].nic.mac1609_4 	TimesIntoBackoff 	0
scalar IntersectionExampleScenario.node[440].nic.mac1609_4 	SlotsBackoff 	0
scalar IntersectionExampleScenario.node[440].nic.mac1609_4 	NumInternalContention 	0
scalar IntersectionExampleScenario.node[440].nic.mac1609_4 	totalBusyTime 	0
scalar IntersectionExampleScenario.node[440].veinsmobility 	startTime 	1765
scalar IntersectionExampleScenario.node[440].veinsmobility 	totalTime 	35
scalar IntersectionExampleScenario.node[440].veinsmobility 	stopTime 	1800
scalar IntersectionExampleScenario.node[440].veinsmobility 	minSpeed 	5.6500000953674
scalar IntersectionExampleScenario.node[440].veinsmobility 	maxSpeed 	16
scalar IntersectionExampleScenario.node[440].veinsmobility 	totalDistance 	432.31406001283
scalar IntersectionExampleScenario.node[440].veinsmobility 	totalCO2Emission 	119.40286395299
scalar IntersectionExampleScenario.node[441].appl 	VehicleRemoved 	0
scalar IntersectionExampleScenario.node[441].appl 	ArrivedAtDest 	0
scalar IntersectionExampleScenario.node[441].appl 	IntersectionEnterTime 	1766.25
scalar IntersectionExampleScenario.node[441].appl 	IntersectionExitTime 	-1
scalar IntersectionExampleScenario.node[441].appl 	NumberOfCollisions 	0
scalar IntersectionExampleScenario.node[441].nic.phy80211p 	busyTime 	0
scalar IntersectionExampleScenario.node[441].nic.mac1609_4 	ReceivedUnicastPackets 	0
scalar IntersectionExampleScenario.node[441].nic.mac1609_4 	ReceivedBroadcasts 	0
scalar IntersectionExampleScenario.node[441].nic.mac1609_4 	SentPackets 	0
scalar IntersectionExampleScenario.node[441].nic.mac1609_4 	SNIRLostPackets 	0
scalar IntersectionExampleScenario.node[441].nic.mac1609_4 	RXTXLostPackets 	0
scalar IntersectionExampleScenario.node[441].nic.mac1609_4 	TotalLostPackets 	0
scalar IntersectionExampleScenario.node[441].nic.mac1609_4 	DroppedPacketsInMac 	0
scalar IntersectionExampleScenario.node[441].nic.mac1609_4 	TooLittleTime 	0
scalar IntersectionExampleScenario.node[441].nic.mac1609_4 	TimesIntoBackoff 	0
scalar IntersectionExampleScenario.node[441].nic.mac1609_4 	SlotsBackoff 	0
scalar IntersectionExampleScenario.node[441].nic.mac1609_4 	NumInternalContention 	0
scalar IntersectionExampleScenario.node[441].nic.mac1609_4 	totalBusyTime 	0
scalar IntersectionExampleScenario.node[441].veinsmobility 	startTime 	1766.25
scalar IntersectionExampleScenario.node[441].veinsmobility 	totalTime 	33.75
scalar IntersectionExampleScenario.node[441].veinsmobility 	stopTime 	1800
scalar IntersectionExampleScenario.node[441].veinsmobility 	minSpeed 	-2.0236999988556
scalar IntersectionExampleScenario.node[441].veinsmobility 	maxSpeed 	15.69487285614
scalar IntersectionExampleScenario.node[441].veinsmobility 	totalDistance 	302.81078338623
scalar IntersectionExampleScenario.node[441].veinsmobility 	totalCO2Emission 	82.259654443273
scalar IntersectionExampleScenario.node[442].appl 	VehicleRemoved 	0
scalar IntersectionExampleScenario.node[442].appl 	ArrivedAtDest 	0
scalar IntersectionExampleScenario.node[442].appl 	IntersectionEnterTime 	1775
scalar IntersectionExampleScenario.node[442].appl 	IntersectionExitTime 	-1
scalar IntersectionExampleScenario.node[442].appl 	NumberOfCollisions 	0
scalar IntersectionExampleScenario.node[442].nic.phy80211p 	busyTime 	0
scalar IntersectionExampleScenario.node[442].nic.mac1609_4 	ReceivedUnicastPackets 	0
scalar IntersectionExampleScenario.node[442].nic.mac1609_4 	ReceivedBroadcasts 	0
scalar IntersectionExampleScenario.node[442].nic.mac1609_4 	SentPackets 	0
scalar IntersectionExampleScenario.node[442].nic.mac1609_4 	SNIRLostPackets 	0
scalar IntersectionExampleScenario.node[442].nic.mac1609_4 	RXTXLostPackets 	0
scalar IntersectionExampleScenario.node[442].nic.mac1609_4 	TotalLostPackets 	0
scalar IntersectionExampleScenario.node[442].nic.mac1609_4 	DroppedPacketsInMac 	0
scalar IntersectionExampleScenario.node[442].nic.mac1609_4 	TooLittleTime 	0
scalar IntersectionExampleScenario.node[442].nic.mac1609_4 	TimesIntoBackoff 	0
scalar IntersectionExampleScenario.node[442].nic.mac1609_4 	SlotsBackoff 	0
scalar IntersectionExampleScenario.node[442].nic.mac1609_4 	NumInternalContention 	0
scalar IntersectionExampleScenario.node[442].nic.mac1609_4 	totalBusyTime 	0
scalar IntersectionExampleScenario.node[442].veinsmobility 	startTime 	1775
scalar IntersectionExampleScenario.node[442].veinsmobility 	totalTime 	25
scalar IntersectionExampleScenario.node[442].veinsmobility 	stopTime 	1800
scalar IntersectionExampleScenario.node[442].veinsmobility 	minSpeed 	2.4278225898743
scalar IntersectionExampleScenario.node[442].veinsmobility 	maxSpeed 	15.02499961853
scalar IntersectionExampleScenario.node[442].veinsmobility 	totalDistance 	268.88968658447
scalar IntersectionExampleScenario.node[442].veinsmobility 	totalCO2Emission 	62.14930221084
scalar IntersectionExampleScenario.node[443].appl 	VehicleRemoved 	0
scalar IntersectionExampleScenario.node[443].appl 	ArrivedAtDest 	0
scalar IntersectionExampleScenario.node[443].appl 	IntersectionEnterTime 	1776.75
scalar IntersectionExampleScenario.node[443].appl 	IntersectionExitTime 	-1
scalar IntersectionExampleScenario.node[443].appl 	NumberOfCollisions 	0
scalar IntersectionExampleScenario.node[443].nic.phy80211p 	busyTime 	0
scalar IntersectionExampleScenario.node[443].nic.mac1609_4 	ReceivedUnicastPackets 	0
scalar IntersectionExampleScenario.node[443].nic.mac1609_4 	ReceivedBroadcasts 	0
scalar IntersectionExampleScenario.node[443].nic.mac1609_4 	SentPackets 	0
scalar IntersectionExampleScenario.node[443].nic.mac1609_4 	SNIRLostPackets 	0
scalar IntersectionExampleScenario.node[443].nic.mac1609_4 	RXTXLostPackets 	0
scalar IntersectionExampleScenario.node[443].nic.mac1609_4 	TotalLostPackets 	0
scalar IntersectionExampleScenario.node[443].nic.mac1609_4 	DroppedPacketsInMac 	0
scalar IntersectionExampleScenario.node[443].nic.mac1609_4 	TooLittleTime 	0
scalar IntersectionExampleScenario.node[443].nic.mac1609_4 	TimesIntoBackoff 	0
scalar IntersectionExampleScenario.node[443].nic.mac1609_4 	SlotsBackoff 	0
scalar IntersectionExampleScenario.node[443].nic.mac1609_4 	NumInternalContention 	0
scalar IntersectionExampleScenario.node[443].nic.mac1609_4 	totalBusyTime 	0
scalar IntersectionExampleScenario.node[443].veinsmobility 	startTime 	1776.75
scalar IntersectionExampleScenario.node[443].veinsmobility 	totalTime 	23.25
scalar IntersectionExampleScenario.node[443].veinsmobility 	stopTime 	1800
scalar IntersectionExampleScenario.node[443].veinsmobility 	minSpeed 	5.6500000953674
scalar IntersectionExampleScenario.node[443].veinsmobility 	maxSpeed 	15.02499961853
scalar IntersectionExampleScenario.node[443].veinsmobility 	totalDistance 	301.03973237408
scalar IntersectionExampleScenario.node[443].veinsmobility 	totalCO2Emission 	67.832553878326
scalar IntersectionExampleScenario.node[444].appl 	VehicleRemoved 	0
scalar IntersectionExampleScenario.node[444].appl 	ArrivedAtDest 	0
scalar IntersectionExampleScenario.node[444].appl 	IntersectionEnterTime 	1783.5
scalar IntersectionExampleScenario.node[444].appl 	IntersectionExitTime 	-1
scalar IntersectionExampleScenario.node[444].appl 	NumberOfCollisions 	0
scalar IntersectionExampleScenario.node[444].nic.phy80211p 	busyTime 	0
scalar IntersectionExampleScenario.node[444].nic.mac1609_4 	ReceivedUnicastPackets 	0
scalar IntersectionExampleScenario.node[444].nic.mac1609_4 	ReceivedBroadcasts 	0
scalar IntersectionExampleScenario.node[444].nic.mac1609_4 	SentPackets 	0
scalar IntersectionExampleScenario.node[444].nic.mac1609_4 	SNIRLostPackets 	0
scalar IntersectionExampleScenario.node[444].nic.mac1609_4 	RXTXLostPackets 	0
scalar IntersectionExampleScenario.node[444].nic.mac1609_4 	TotalLostPackets 	0
scalar IntersectionExampleScenario.node[444].nic.mac1609_4 	DroppedPacketsInMac 	0
scalar IntersectionExampleScenario.node[444].nic.mac1609_4 	TooLittleTime 	0
scalar IntersectionExampleScenario.node[444].nic.mac1609_4 	TimesIntoBackoff 	0
scalar IntersectionExampleScenario.node[444].nic.mac1609_4 	SlotsBackoff 	0
scalar IntersectionExampleScenario.node[444].nic.mac1609_4 	NumInternalContention 	0
scalar IntersectionExampleScenario.node[444].nic.mac1609_4 	totalBusyTime 	0
scalar IntersectionExampleScenario.node[444].veinsmobility 	startTime 	1783.5
scalar IntersectionExampleScenario.node[444].veinsmobility 	totalTime 	16.5
scalar IntersectionExampleScenario.node[444].veinsmobility 	stopTime 	1800
scalar IntersectionExampleScenario.node[444].veinsmobility 	minSpeed 	5.6500000953674
scalar IntersectionExampleScenario.node[444].veinsmobility 	maxSpeed 	16.716777801514
scalar IntersectionExampleScenario.node[444].veinsmobility 	totalDistance 	240.7678527832
scalar IntersectionExampleScenario.node[444].veinsmobility 	totalCO2Emission 	65.411441034959
scalar IntersectionExampleScenario.node[445].appl 	VehicleRemoved 	0
scalar IntersectionExampleScenario.node[445].appl 	ArrivedAtDest 	0
scalar IntersectionExampleScenario.node[445].appl 	IntersectionEnterTime 	1784
scalar IntersectionExampleScenario.node[445].appl 	IntersectionExitTime 	-1
scalar IntersectionExampleScenario.node[445].appl 	NumberOfCollisions 	0
scalar IntersectionExampleScenario.node[445].nic.phy80211p 	busyTime 	0
scalar IntersectionExampleScenario.node[445].nic.mac1609_4 	ReceivedUnicastPackets 	0
scalar IntersectionExampleScenario.node[445].nic.mac1609_4 	ReceivedBroadcasts 	0
scalar IntersectionExampleScenario.node[445].nic.mac1609_4 	SentPackets 	0
scalar IntersectionExampleScenario.node[445].nic.mac1609_4 	SNIRLostPackets 	0
scalar IntersectionExampleScenario.node[445].nic.mac1609_4 	RXTXLostPackets 	0
scalar IntersectionExampleScenario.node[445].nic.mac1609_4 	TotalLostPackets 	0
scalar IntersectionExampleScenario.node[445].nic.mac1609_4 	DroppedPacketsInMac 	0
scalar IntersectionExampleScenario.node[445].nic.mac1609_4 	TooLittleTime 	0
scalar IntersectionExampleScenario.node[445].nic.mac1609_4 	TimesIntoBackoff 	0
scalar IntersectionExampleScenario.node[445].nic.mac1609_4 	SlotsBackoff 	0
scalar IntersectionExampleScenario.node[445].nic.mac1609_4 	NumInternalContention 	0
scalar IntersectionExampleScenario.node[445].nic.mac1609_4 	totalBusyTime 	0
scalar IntersectionExampleScenario.node[445].veinsmobility 	startTime 	1784
scalar IntersectionExampleScenario.node[445].veinsmobility 	totalTime 	16
scalar IntersectionExampleScenario.node[445].veinsmobility 	stopTime 	1800
scalar IntersectionExampleScenario.node[445].veinsmobility 	minSpeed 	5.6500000953674
scalar IntersectionExampleScenario.node[445].veinsmobility 	maxSpeed 	15.051795959473
scalar IntersectionExampleScenario.node[445].veinsmobility 	totalDistance 	213.46731567383
scalar IntersectionExampleScenario.node[445].veinsmobility 	totalCO2Emission 	54.521137307067
scalar IntersectionExampleScenario.node[446].appl 	VehicleRemoved 	0
scalar IntersectionExampleScenario.node[446].appl 	ArrivedAtDest 	0
scalar IntersectionExampleScenario.node[446].appl 	IntersectionEnterTime 	1789.25
scalar IntersectionExampleScenario.node[446].appl 	IntersectionExitTime 	-1
scalar IntersectionExampleScenario.node[446].appl 	NumberOfCollisions 	0
scalar IntersectionExampleScenario.node[446].nic.phy80211p 	busyTime 	0
scalar IntersectionExampleScenario.node[446].nic.mac1609_4 	ReceivedUnicastPackets 	0
scalar IntersectionExampleScenario.node[446].nic.mac1609_4 	ReceivedBroadcasts 	0
scalar IntersectionExampleScenario.node[446].nic.mac1609_4 	SentPackets 	0
scalar IntersectionExampleScenario.node[446].nic.mac1609_4 	SNIRLostPackets 	0
scalar IntersectionExampleScenario.node[446].nic.mac1609_4 	RXTXLostPackets 	0
scalar IntersectionExampleScenario.node[446].nic.mac1609_4 	TotalLostPackets 	0
scalar IntersectionExampleScenario.node[446].nic.mac1609_4 	DroppedPacketsInMac 	0
scalar IntersectionExampleScenario.node[446].nic.mac1609_4 	TooLittleTime 	0
scalar IntersectionExampleScenario.node[446].nic.mac1609_4 	TimesIntoBackoff 	0
scalar IntersectionExampleScenario.node[446].nic.mac1609_4 	SlotsBackoff 	0
scalar IntersectionExampleScenario.node[446].nic.mac1609_4 	NumInternalContention 	0
scalar IntersectionExampleScenario.node[446].nic.mac1609_4 	totalBusyTime 	0
scalar IntersectionExampleScenario.node[446].veinsmobility 	startTime 	1789.25
scalar IntersectionExampleScenario.node[446].veinsmobility 	totalTime 	10.75
scalar IntersectionExampleScenario.node[446].veinsmobility 	stopTime 	1800
scalar IntersectionExampleScenario.node[446].veinsmobility 	minSpeed 	5.6500000953674
scalar IntersectionExampleScenario.node[446].veinsmobility 	maxSpeed 	15.64999961853
scalar IntersectionExampleScenario.node[446].veinsmobility 	totalDistance 	145.23114013672
scalar IntersectionExampleScenario.node[446].veinsmobility 	totalCO2Emission 	47.65387930496
