file 17711962 1591481925                                        
version 2
run nodebug-0-20200606-18:15:52-22420
attr configname nodebug
attr datetime 20200606-18:15:52
attr experiment nodebug
attr inifile omnetpp.ini
attr iterationvars ""
attr iterationvars2 $repetition=0
attr measurement ""
attr network "\"org.car2x.veins.modules.application.ExtTraCIScenarioManagerLaunchd.IntersectionExampleScenario\""
attr processid 22420
attr repetition 0
attr replication #0
attr resultdir results
attr runnumber 0
attr seedset 0
param **.coreDebug false
param **.debug false
param *.**.nic.mac1609_4.bitrate 18Mbps
param *.**.nic.mac1609_4.txPower 20mW
param *.**.nic.mac1609_4.useServiceChannel false
param *.**.nic.phy80211p.analogueModels "xmldoc(\"config.xml\")"
param *.**.nic.phy80211p.decider "xmldoc(\"config.xml\")"
param *.**.nic.phy80211p.sensitivity -89dBm
param *.**.nic.phy80211p.thermalNoise -110dBm
param *.**.nic.phy80211p.usePropagationDelay true
param *.**.nic.phy80211p.useThermalNoise true
param *.annotations.draw false
param *.connectionManager.alpha 2.0
param *.connectionManager.carrierFrequency "5.890e9 Hz"
param *.connectionManager.pMax 20mW
param *.connectionManager.sat -89dBm
param *.connectionManager.sendDirect true
param *.manager.autoShutdown true
param *.manager.host "\"localhost\""
param *.manager.launchConfig "xmldoc(\"paramics.launchd.xml\")"
param *.manager.margin 25
param *.manager.moduleDisplayString "\"\""
param *.manager.moduleName "\"node\""
param *.manager.moduleType "\"org.car2x.veins.nodes.Car\""
param *.manager.port 9999
param *.manager.updateInterval 250ms
param *.node[*0].veinsmobility.accidentCount 0
param *.node[*0].veinsmobility.accidentDuration 30s
param *.node[*0].veinsmobility.accidentStart 75s
param *.node[*].appl.LiderSelectZoneRadio 55.0
param *.node[*].appl.ShareDataZoneRadio 110.0
param *.node[*].appl.TiempoSemaforo 30.0
param *.node[*].appl.beaconInterval 1s
param *.node[*].appl.beaconPriority 3
param *.node[*].appl.dataOnSch false
param *.node[*].appl.dataPriority 2
param *.node[*].appl.debug false
param *.node[*].appl.headerLength "256 bit"
param *.node[*].appl.maxOffset 0.005s
param *.node[*].appl.sendBeacons false
param *.node[*].appl.sendData true
param *.node[*].applType "\"Dummy\""
param *.node[*].mobilityType "\"TraCIMobility\""
param *.node[*].mobilityType.debug true
param *.node[*].veinsmobility.x 0
param *.node[*].veinsmobility.y 0
param *.node[*].veinsmobility.z 1.895
param *.node[*].veinsmobilityType "\"org.car2x.veins.modules.mobility.traci.TraCIMobility\""
param *.node[*].veinsmobilityType.debug true
param *.playgroundSizeX 8500m
param *.playgroundSizeY 8500m
param *.playgroundSizeZ 50m
param *.world.use2D false
param *.world.useTorus false

vector 0  IntersectionExampleScenario.manager  vehiclesinsim  ETV
attr type  int
vector 1  IntersectionExampleScenario.manager  realtime  ETV
attr type  int
attr unit  s
vector 4  IntersectionExampleScenario.node[0].veinsmobility  posx  ETV
vector 5  IntersectionExampleScenario.node[0].veinsmobility  posy  ETV
vector 6  IntersectionExampleScenario.node[0].veinsmobility  speed  ETV
vector 7  IntersectionExampleScenario.node[0].veinsmobility  acceleration  ETV
vector 8  IntersectionExampleScenario.node[0].veinsmobility  co2emission  ETV
vector 11  IntersectionExampleScenario.node[1].veinsmobility  posx  ETV
vector 12  IntersectionExampleScenario.node[1].veinsmobility  posy  ETV
vector 13  IntersectionExampleScenario.node[1].veinsmobility  speed  ETV
vector 14  IntersectionExampleScenario.node[1].veinsmobility  acceleration  ETV
vector 15  IntersectionExampleScenario.node[1].veinsmobility  co2emission  ETV
vector 18  IntersectionExampleScenario.node[2].veinsmobility  posx  ETV
vector 19  IntersectionExampleScenario.node[2].veinsmobility  posy  ETV
vector 20  IntersectionExampleScenario.node[2].veinsmobility  speed  ETV
vector 25  IntersectionExampleScenario.node[3].veinsmobility  posx  ETV
vector 26  IntersectionExampleScenario.node[3].veinsmobility  posy  ETV
vector 21  IntersectionExampleScenario.node[2].veinsmobility  acceleration  ETV
vector 22  IntersectionExampleScenario.node[2].veinsmobility  co2emission  ETV
vector 27  IntersectionExampleScenario.node[3].veinsmobility  speed  ETV
vector 28  IntersectionExampleScenario.node[3].veinsmobility  acceleration  ETV
vector 29  IntersectionExampleScenario.node[3].veinsmobility  co2emission  ETV
vector 32  IntersectionExampleScenario.node[4].veinsmobility  posx  ETV
vector 33  IntersectionExampleScenario.node[4].veinsmobility  posy  ETV
vector 39  IntersectionExampleScenario.node[5].veinsmobility  posx  ETV
vector 40  IntersectionExampleScenario.node[5].veinsmobility  posy  ETV
vector 34  IntersectionExampleScenario.node[4].veinsmobility  speed  ETV
vector 41  IntersectionExampleScenario.node[5].veinsmobility  speed  ETV
vector 46  IntersectionExampleScenario.node[6].veinsmobility  posx  ETV
vector 47  IntersectionExampleScenario.node[6].veinsmobility  posy  ETV
vector 35  IntersectionExampleScenario.node[4].veinsmobility  acceleration  ETV
vector 36  IntersectionExampleScenario.node[4].veinsmobility  co2emission  ETV
vector 42  IntersectionExampleScenario.node[5].veinsmobility  acceleration  ETV
vector 43  IntersectionExampleScenario.node[5].veinsmobility  co2emission  ETV
vector 48  IntersectionExampleScenario.node[6].veinsmobility  speed  ETV
vector 49  IntersectionExampleScenario.node[6].veinsmobility  acceleration  ETV
vector 50  IntersectionExampleScenario.node[6].veinsmobility  co2emission  ETV
vector 53  IntersectionExampleScenario.node[7].veinsmobility  posx  ETV
vector 54  IntersectionExampleScenario.node[7].veinsmobility  posy  ETV
vector 55  IntersectionExampleScenario.node[7].veinsmobility  speed  ETV
vector 56  IntersectionExampleScenario.node[7].veinsmobility  acceleration  ETV
vector 57  IntersectionExampleScenario.node[7].veinsmobility  co2emission  ETV
8	5965 4241 13 1292 2 41.25 158 0.97223939240464 11.648172402475 509.28698824054 2771.8326222907
7	10206 3858 13 1292 2 41.25 158 -3.0849704742432 2.5 38.680875778198 278.63467785122
6	14064 4241 10 1292 1.75 41.25 159 5.6500000953674 15.64999961853 2207.734641552 31717.098976516
5	18305 4442 7 1292 1.5 41.25 160 486.85000610352 486.85000610352 77896.000976562 37923668.550879
4	22747 4403 7 1292 1.5 41.25 160 238.68670654297 785.82187652588 83523.191841125 47684535.885686
vector 60  IntersectionExampleScenario.node[8].veinsmobility  posx  ETV
vector 61  IntersectionExampleScenario.node[8].veinsmobility  posy  ETV
vector 62  IntersectionExampleScenario.node[8].veinsmobility  speed  ETV
vector 67  IntersectionExampleScenario.node[9].veinsmobility  posx  ETV
vector 68  IntersectionExampleScenario.node[9].veinsmobility  posy  ETV
vector 63  IntersectionExampleScenario.node[8].veinsmobility  acceleration  ETV
vector 64  IntersectionExampleScenario.node[8].veinsmobility  co2emission  ETV
vector 69  IntersectionExampleScenario.node[9].veinsmobility  speed  ETV
vector 70  IntersectionExampleScenario.node[9].veinsmobility  acceleration  ETV
vector 71  IntersectionExampleScenario.node[9].veinsmobility  co2emission  ETV
vector 74  IntersectionExampleScenario.node[10].veinsmobility  posx  ETV
vector 75  IntersectionExampleScenario.node[10].veinsmobility  posy  ETV
vector 76  IntersectionExampleScenario.node[10].veinsmobility  speed  ETV
vector 81  IntersectionExampleScenario.node[11].veinsmobility  posx  ETV
vector 82  IntersectionExampleScenario.node[11].veinsmobility  posy  ETV
vector 77  IntersectionExampleScenario.node[10].veinsmobility  acceleration  ETV
vector 78  IntersectionExampleScenario.node[10].veinsmobility  co2emission  ETV
vector 83  IntersectionExampleScenario.node[11].veinsmobility  speed  ETV
vector 84  IntersectionExampleScenario.node[11].veinsmobility  acceleration  ETV
vector 85  IntersectionExampleScenario.node[11].veinsmobility  co2emission  ETV
vector 88  IntersectionExampleScenario.node[12].veinsmobility  posx  ETV
vector 89  IntersectionExampleScenario.node[12].veinsmobility  posy  ETV
vector 90  IntersectionExampleScenario.node[12].veinsmobility  speed  ETV
vector 91  IntersectionExampleScenario.node[12].veinsmobility  acceleration  ETV
vector 92  IntersectionExampleScenario.node[12].veinsmobility  co2emission  ETV
15	29070 5253 56 2218 5.25 54.75 199 0.973 12.099024792222 592.91385254988 3250.3819329416
14	34323 4883 56 2218 5.25 54.75 199 -9.4888134002686 4 40.887662887573 535.35535781686
13	39206 5064 51 2218 5 54.75 200 0 16.27499961853 2218.0271503925 32566.985442816
12	44270 5862 46 2218 4.75 54.75 201 235.66223144531 785.82187652588 103758.47037506 57624922.941423
11	50132 5873 46 2218 4.75 54.75 201 483.14999389648 483.14999389648 97113.148773193 46920217.237037
vector 95  IntersectionExampleScenario.node[13].veinsmobility  posx  ETV
vector 96  IntersectionExampleScenario.node[13].veinsmobility  posy  ETV
vector 97  IntersectionExampleScenario.node[13].veinsmobility  speed  ETV
vector 98  IntersectionExampleScenario.node[13].veinsmobility  acceleration  ETV
vector 99  IntersectionExampleScenario.node[13].veinsmobility  co2emission  ETV
vector 102  IntersectionExampleScenario.node[14].veinsmobility  posx  ETV
vector 103  IntersectionExampleScenario.node[14].veinsmobility  posy  ETV
vector 104  IntersectionExampleScenario.node[14].veinsmobility  speed  ETV
vector 105  IntersectionExampleScenario.node[14].veinsmobility  acceleration  ETV
vector 106  IntersectionExampleScenario.node[14].veinsmobility  co2emission  ETV
vector 109  IntersectionExampleScenario.node[15].veinsmobility  posx  ETV
vector 110  IntersectionExampleScenario.node[15].veinsmobility  posy  ETV
vector 111  IntersectionExampleScenario.node[15].veinsmobility  speed  ETV
vector 112  IntersectionExampleScenario.node[15].veinsmobility  acceleration  ETV
vector 113  IntersectionExampleScenario.node[15].veinsmobility  co2emission  ETV
vector 116  IntersectionExampleScenario.node[16].veinsmobility  posx  ETV
vector 117  IntersectionExampleScenario.node[16].veinsmobility  posy  ETV
vector 118  IntersectionExampleScenario.node[16].veinsmobility  speed  ETV
vector 119  IntersectionExampleScenario.node[16].veinsmobility  acceleration  ETV
vector 120  IntersectionExampleScenario.node[16].veinsmobility  co2emission  ETV
22	57564 5922 385 4041 21.5 77.5 225 0.973 11.36141391502 581.14706206791 2791.8454867201
21	63486 5326 385 4041 21.5 77.5 225 -8.2099418640137 4 36.813589096069 481.06962067089
20	68812 5622 378 4041 21.25 77.5 226 0 15.25 2172.3059687614 29932.842901098
19	74434 6683 371 4041 21 77.5 227 486.85000610352 732.10182189941 118825.31192017 63251777.27181
18	81117 6741 371 4041 21 77.5 227 486.63604736328 785.82187652588 125324.07514191 71200594.994023
vector 123  IntersectionExampleScenario.node[17].veinsmobility  posx  ETV
vector 124  IntersectionExampleScenario.node[17].veinsmobility  posy  ETV
vector 125  IntersectionExampleScenario.node[17].veinsmobility  speed  ETV
29	88084 6108 403 4076 22 78 225 0.973 11.90022389248 626.67551885806 3117.5469579077
28	94192 5582 403 4076 22 78 225 -4.5 2.5 41.227170944214 498.0827829582
27	99774 5891 394 4076 21.75 78 226 0 16 2301.8196287844 33383.885253398
26	105665 6741 385 4076 21.5 78 227 237.01513671875 486.85000610352 102475.37527466 47312388.558951
25	112406 6734 385 4076 21.5 78 227 483.13439941406 809.56562805176 127161.76128387 73637790.696959
vector 126  IntersectionExampleScenario.node[17].veinsmobility  acceleration  ETV
vector 127  IntersectionExampleScenario.node[17].veinsmobility  co2emission  ETV
vector 130  IntersectionExampleScenario.node[18].veinsmobility  posx  ETV
vector 131  IntersectionExampleScenario.node[18].veinsmobility  posy  ETV
vector 132  IntersectionExampleScenario.node[18].veinsmobility  speed  ETV
vector 133  IntersectionExampleScenario.node[18].veinsmobility  acceleration  ETV
vector 134  IntersectionExampleScenario.node[18].veinsmobility  co2emission  ETV
vector 137  IntersectionExampleScenario.node[19].veinsmobility  posx  ETV
vector 138  IntersectionExampleScenario.node[19].veinsmobility  posy  ETV
vector 139  IntersectionExampleScenario.node[19].veinsmobility  speed  ETV
vector 140  IntersectionExampleScenario.node[19].veinsmobility  acceleration  ETV
vector 141  IntersectionExampleScenario.node[19].veinsmobility  co2emission  ETV
36	120087 5448 685 4331 30.75 81.25 203 0.973 11.450879080643 547.93008533829 2718.8049193163
35	125535 5738 685 4331 30.75 81.25 203 -2.1641235351562 2.5 37.15309715271 295.21819751123
34	131273 5852 674 4331 30.5 81.25 204 1.3988146781921 15.375 2208.0729476213 28670.618702749
33	137125 6117 663 4331 30.25 81.25 205 237.07830810547 486.85000610352 91254.782226562 41688401.319524
32	143242 6112 663 4331 30.25 81.25 205 483.14999389648 785.82187652588 115202.72942352 66621413.665914
vector 144  IntersectionExampleScenario.node[20].veinsmobility  posx  ETV
vector 145  IntersectionExampleScenario.node[20].veinsmobility  posy  ETV
vector 146  IntersectionExampleScenario.node[20].veinsmobility  speed  ETV
vector 147  IntersectionExampleScenario.node[20].veinsmobility  acceleration  ETV
vector 148  IntersectionExampleScenario.node[20].veinsmobility  co2emission  ETV
57	149745 5634 767 4440 32.25 82.5 202 0.973 11.54047740176 562.51844911535 2802.566198498
56	155379 5593 767 4440 32.25 82.5 202 -4.5 2.5 37.32285118103 357.72261876918
55	160972 5830 752 4440 32 82.5 203 3.2165586948395 15.5 2291.2409276962 30052.93161949
54	166802 6102 737 4440 31.75 82.5 204 486.85000610352 486.85000610352 99317.401245117 48352677.40237
53	172904 6073 737 4440 31.75 82.5 204 238.49865722656 806.11563110352 108834.34518433 62697574.738191
vector 151  IntersectionExampleScenario.node[21].veinsmobility  posx  ETV
vector 152  IntersectionExampleScenario.node[21].veinsmobility  posy  ETV
vector 153  IntersectionExampleScenario.node[21].veinsmobility  speed  ETV
vector 154  IntersectionExampleScenario.node[21].veinsmobility  acceleration  ETV
vector 155  IntersectionExampleScenario.node[21].veinsmobility  co2emission  ETV
71	179368 4477 1590 4806 46.75 86.25 159 0.973 11.648172402475 530.64112717961 3191.2272128845
70	183845 4246 1590 4806 46.75 86.25 159 -3.513801574707 2.5 38.341367721558 285.35939806767
69	188091 4516 1573 4806 46.5 86.25 160 5.6500000953674 15.64999961853 2206.0846824646 31309.585113217
68	192607 4823 1556 4806 46.25 86.25 161 237.30981445312 486.85000610352 70002.348022461 31393364.795337
67	197430 4824 1556 4806 46.25 86.25 161 483.14999389648 785.82187652588 92100.425559998 54462833.376701
vector 158  IntersectionExampleScenario.node[22].veinsmobility  posx  ETV
vector 159  IntersectionExampleScenario.node[22].veinsmobility  posy  ETV
vector 160  IntersectionExampleScenario.node[22].veinsmobility  speed  ETV
vector 161  IntersectionExampleScenario.node[22].veinsmobility  acceleration  ETV
vector 162  IntersectionExampleScenario.node[22].veinsmobility  co2emission  ETV
vector 165  IntersectionExampleScenario.node[23].veinsmobility  posx  ETV
vector 166  IntersectionExampleScenario.node[23].veinsmobility  posy  ETV
vector 167  IntersectionExampleScenario.node[23].veinsmobility  speed  ETV
vector 168  IntersectionExampleScenario.node[23].veinsmobility  acceleration  ETV
vector 169  IntersectionExampleScenario.node[23].veinsmobility  co2emission  ETV
43	203036 6118 685 5135 30.75 89.75 237 0.973 12.099024792222 621.5906179323 3221.2997178202
42	209154 5634 685 5135 30.75 89.75 237 -8.5031824111938 4 40.378400802612 506.18578224067
41	214788 5754 674 5135 30.5 89.75 238 0 16.27499961853 2172.7720918655 31377.315816368
40	220542 7133 663 5135 30.25 89.75 239 486.63604736328 785.82187652588 130873.55269623 73670680.437279
39	227675 7080 663 5135 30.25 89.75 239 238.07672119141 483.14999389648 107611.39251709 49473002.159848
vector 172  IntersectionExampleScenario.node[24].veinsmobility  posx  ETV
vector 173  IntersectionExampleScenario.node[24].veinsmobility  posy  ETV
vector 174  IntersectionExampleScenario.node[24].veinsmobility  speed  ETV
vector 175  IntersectionExampleScenario.node[24].veinsmobility  acceleration  ETV
vector 176  IntersectionExampleScenario.node[24].veinsmobility  co2emission  ETV
vector 179  IntersectionExampleScenario.node[25].veinsmobility  posx  ETV
vector 180  IntersectionExampleScenario.node[25].veinsmobility  posy  ETV
vector 181  IntersectionExampleScenario.node[25].veinsmobility  speed  ETV
vector 182  IntersectionExampleScenario.node[25].veinsmobility  acceleration  ETV
vector 183  IntersectionExampleScenario.node[25].veinsmobility  co2emission  ETV
50	235537 6777 711 5428 31.25 92.5 246 0.973 11.856191424789 628.26080431721 3108.5747883999
49	242314 6808 711 5428 31.25 92.5 246 -4.5 2.5 38.680875778198 445.67015628501
48	249122 6817 698 5428 31 92.5 247 0 15.938963890076 2274.4059035312 31663.332590381
47	255939 7406 685 5428 30.75 92.5 248 486.85000610352 809.56562805176 138276.89026642 79545647.514439
46	263345 7405 685 5428 30.75 92.5 248 238.10766601562 483.14999389648 111760.90322876 51415206.372788
85	270750 4803 1908 5573 51.25 93.75 171 0.973 11.54047740176 529.69504117223 2878.0646336494
84	275553 4573 1908 5573 51.25 93.75 171 -3.6602210998535 2.5 37.492597579956 287.94896583205
83	280126 4920 1887 5573 51 93.75 172 5.6048302650452 15.5 2211.7401275635 29956.204736321
82	285046 5177 1866 5573 50.75 93.75 173 238.32073974609 785.82187652588 90609.917564392 51619194.60061
81	290223 5191 1866 5573 50.75 93.75 173 483.14999389648 483.14999389648 83584.948944092 40384067.572176
vector 186  IntersectionExampleScenario.node[26].veinsmobility  posx  ETV
vector 187  IntersectionExampleScenario.node[26].veinsmobility  posy  ETV
vector 188  IntersectionExampleScenario.node[26].veinsmobility  speed  ETV
vector 189  IntersectionExampleScenario.node[26].veinsmobility  acceleration  ETV
vector 190  IntersectionExampleScenario.node[26].veinsmobility  co2emission  ETV
vector 193  IntersectionExampleScenario.node[27].veinsmobility  posx  ETV
vector 194  IntersectionExampleScenario.node[27].veinsmobility  posy  ETV
vector 195  IntersectionExampleScenario.node[27].veinsmobility  speed  ETV
vector 196  IntersectionExampleScenario.node[27].veinsmobility  acceleration  ETV
vector 197  IntersectionExampleScenario.node[27].veinsmobility  co2emission  ETV
78	296196 5830 1866 6463 50.75 101.75 205 0.973 11.990504229548 599.02489421593 2988.1958357019
77	302026 5742 1866 6463 50.75 101.75 205 -4.5 2.5 41.227170944214 449.85003043017
76	307768 6021 1847 6463 50.5 101.75 206 0 16.125 2221.3959301207 32080.003408336
75	313789 6179 1828 6463 50.25 101.75 207 184.17810058594 734.4811706543 93393.01411438 46223144.640771
74	319968 6220 1828 6463 50.25 101.75 207 486.85000610352 486.85000610352 100777.95126343 49063746.187699
64	326188 6042 1556 6513 46.25 102.25 225 0.973 11.00486315618 562.6138519641 2550.8288516294
63	332230 5405 1556 6513 46.25 102.25 225 -8.9526224136353 4 34.097539901733 462.04264641521
62	337635 5794 1541 6513 46 102.25 226 0 14.75 2197.2239997387 29230.551227342
61	343429 6785 1526 6513 45.75 102.25 227 184.17810058594 486.85000610352 94764.945281982 41634866.421412
60	350214 6808 1526 6513 45.75 102.25 227 237.28540039062 486.85000610352 101549.20669556 46568065.416043
vector 200  IntersectionExampleScenario.node[28].veinsmobility  posx  ETV
vector 201  IntersectionExampleScenario.node[28].veinsmobility  posy  ETV
vector 202  IntersectionExampleScenario.node[28].veinsmobility  speed  ETV
vector 203  IntersectionExampleScenario.node[28].veinsmobility  acceleration  ETV
vector 204  IntersectionExampleScenario.node[28].veinsmobility  co2emission  ETV
vector 207  IntersectionExampleScenario.node[29].veinsmobility  posx  ETV
vector 208  IntersectionExampleScenario.node[29].veinsmobility  posy  ETV
vector 209  IntersectionExampleScenario.node[29].veinsmobility  speed  ETV
vector 210  IntersectionExampleScenario.node[29].veinsmobility  acceleration  ETV
vector 211  IntersectionExampleScenario.node[29].veinsmobility  co2emission  ETV
vector 214  IntersectionExampleScenario.node[30].veinsmobility  posx  ETV
vector 215  IntersectionExampleScenario.node[30].veinsmobility  posy  ETV
vector 216  IntersectionExampleScenario.node[30].veinsmobility  speed  ETV
vector 221  IntersectionExampleScenario.node[31].veinsmobility  posx  ETV
vector 222  IntersectionExampleScenario.node[31].veinsmobility  posy  ETV
vector 217  IntersectionExampleScenario.node[30].veinsmobility  acceleration  ETV
vector 218  IntersectionExampleScenario.node[30].veinsmobility  co2emission  ETV
vector 223  IntersectionExampleScenario.node[31].veinsmobility  speed  ETV
vector 224  IntersectionExampleScenario.node[31].veinsmobility  acceleration  ETV
vector 225  IntersectionExampleScenario.node[31].veinsmobility  co2emission  ETV
vector 228  IntersectionExampleScenario.node[32].veinsmobility  posx  ETV
vector 229  IntersectionExampleScenario.node[32].veinsmobility  posy  ETV
vector 230  IntersectionExampleScenario.node[32].veinsmobility  speed  ETV
vector 231  IntersectionExampleScenario.node[32].veinsmobility  acceleration  ETV
vector 232  IntersectionExampleScenario.node[32].veinsmobility  co2emission  ETV
99	358977 5608 2636 7476 59.25 111.5 210 0.973 12.26218747632 604.27140871352 3335.233207082
98	364585 5340 2636 7476 59.25 111.5 210 -8.3950996398926 4 41.396924972534 518.19941904033
97	369925 5342 2611 7476 59 111.5 211 0 16.5 2170.9433312416 31796.631727085
96	375267 6326 2586 7476 58.75 111.5 212 238.51751708984 483.14999389648 94716.828155518 43288825.290454
95	381593 6387 2586 7476 58.75 111.5 212 184.17810058594 483.36395263672 88323.123260498 38723212.243284
vector 235  IntersectionExampleScenario.node[33].veinsmobility  posx  ETV
vector 236  IntersectionExampleScenario.node[33].veinsmobility  posy  ETV
vector 237  IntersectionExampleScenario.node[33].veinsmobility  speed  ETV
vector 238  IntersectionExampleScenario.node[33].veinsmobility  acceleration  ETV
vector 239  IntersectionExampleScenario.node[33].veinsmobility  co2emission  ETV
92	388371 6203 2080 7561 53.25 112.25 237 0.973 11.810082123732 607.68590920378 3075.8863147555
91	394574 5898 2080 7561 53.25 112.25 237 -7.1715216636658 4 38.511121749878 478.29170241868
90	400472 5861 2057 7561 53 112.25 238 0 15.875 2182.1180189848 30787.656689457
89	406333 7147 2034 7561 52.75 112.25 239 486.85000610352 734.25172424316 124585.34516907 66013859.536859
88	413480 7210 2034 7561 52.75 112.25 239 486.63604736328 785.82187652588 131084.31629181 73921402.367162
106	420690 5316 3410 7784 68.5 114.25 184 0.973 11.648172402475 539.12141372167 2844.8576736875
105	426006 5416 3410 7784 68.5 114.25 184 -2.0975685119629 2.5 38.511121749878 288.41361636489
104	431422 5633 3391 7784 68.25 114.25 185 2.8520486354828 15.64999961853 2209.6269311905 29553.025373912
103	437055 5814 3372 7784 68 114.25 186 236.56695556641 486.85000610352 82141.391723633 37296250.561663
102	442869 5808 3372 7784 68 114.25 186 483.12896728516 785.82187652588 105165.07230377 61289639.692842
134	448677 4624 4148 8072 79 117 153 0.973 12.170977407225 530.28052968403 3199.5443617194
133	453301 4467 4148 8072 79 117 153 -3.4836463928223 2.5 41.227170944214 281.95600701787
132	457768 4555 4129 8072 78.75 117 154 5.6500000953674 16.374300003052 2211.6295690536 32888.609609958
131	462323 4866 4110 8072 78.5 117 155 483.14999389648 733.68618774414 82983.629638672 45352826.575615
130	467189 4844 4110 8072 78.5 117 155 184.17810058594 486.85000610352 61680.929840088 26285290.217702
vector 242  IntersectionExampleScenario.node[34].veinsmobility  posx  ETV
vector 243  IntersectionExampleScenario.node[34].veinsmobility  posy  ETV
vector 244  IntersectionExampleScenario.node[34].veinsmobility  speed  ETV
vector 245  IntersectionExampleScenario.node[34].veinsmobility  acceleration  ETV
vector 246  IntersectionExampleScenario.node[34].veinsmobility  co2emission  ETV
127	472424 5132 4093 8453 78.25 120.75 171 0.973 11.527913324084 565.47848438333 3260.3834460636
126	477556 4856 4093 8453 78.25 120.75 171 -29.103765487671 4 37.32285118103 1245.9288974528
125	482412 5183 4076 8453 78 120.75 172 0 15.482482910156 2181.8897042274 30224.61855328
124	487595 5424 4058 8453 77.75 120.75 173 486.85000610352 733.70893859863 92579.331314087 50510632.589618
123	493019 5440 4058 8453 77.75 120.75 173 486.56909179688 785.82187652588 98471.655448914 57852408.968134
155	498459 4701 4513 8550 83.25 121.75 155 0.973 12.157572817319 541.2310850137 3196.7886307638
154	503160 4910 4513 8550 83.25 121.75 155 -3.9914207458496 2.5000038146973 42.823156356812 290.02817575462
153	508070 4872 4488 8550 83 121.75 156 5.6500000953674 16.35578918457 2219.5621204376 32722.877063069
152	512942 4951 4463 8550 82.75 121.75 157 483.14999389648 731.50796508789 84082.069793701 45966458.267245
151	517893 4931 4463 8550 82.75 121.75 157 179.81719970703 486.85000610352 62335.584350586 26562758.56806
vector 249  IntersectionExampleScenario.node[35].veinsmobility  posx  ETV
vector 250  IntersectionExampleScenario.node[35].veinsmobility  posy  ETV
vector 251  IntersectionExampleScenario.node[35].veinsmobility  speed  ETV
vector 252  IntersectionExampleScenario.node[35].veinsmobility  acceleration  ETV
vector 253  IntersectionExampleScenario.node[35].veinsmobility  co2emission  ETV
113	523215 5861 3783 8848 73.75 125 206 0.973 11.90022389248 589.13940992329 3110.1169766542
112	529076 5372 3783 8848 73.75 125 206 -7.2641291618347 4 39.699392318726 488.74806203163
111	534448 5672 3765 8848 73.5 125 207 0 16 2217.2994669676 32035.832177997
110	540120 6538 3746 8848 73.25 125 208 235.46020507812 785.82187652588 107243.80286407 59420509.751053
109	546658 6549 3746 8848 73.25 125 208 483.14999389648 483.14999389648 100495.19873047 48554254.653252
141	553207 5412 4247 9009 80.25 126.75 187 0.97223939240464 11.648172402475 542.73270076753 2867.3961223095
140	558619 5426 4247 9009 80.25 126.75 187 -2.4526786804199 2.5 38.680875778198 305.20994535766
139	564045 5674 4226 9009 80 126.75 188 1.8727786540985 15.64999961853 2210.2153760195 29838.575725029
138	569719 5959 4205 9009 79.75 126.75 189 483.14999389648 785.82187652588 106556.664711 61919325.400398
137	575678 5960 4205 9009 79.75 126.75 189 483.14999389648 733.5633392334 99709.933288574 53630492.152064
169	581638 4759 5035 9170 88.75 128.5 160 0.973 11.990504229548 550.65261233345 3457.9101189798
168	586397 4526 5035 9170 88.75 128.5 160 -3.7630043029785 2.5 39.869146347046 312.24894197897
167	590923 4824 5010 9170 88.5 128.5 161 5.6500000953674 16.125 2212.7765130997 31412.210911976
166	595747 5127 4985 9170 88.25 128.5 162 237.72509765625 785.82187652588 85056.701972961 48730798.675298
165	600874 5138 4985 9170 88.25 128.5 162 483.14999389648 483.14999389648 78270.29901123 37816294.489552
176	606012 5013 5289 9502 91.25 132.25 165 0.973 11.450879080643 539.97918357512 3163.4402453146
175	611025 4825 5289 9502 91.25 132.25 165 -4.5 2.5 37.32285118103 329.85884255355
174	615850 4993 5262 9502 91 132.25 166 5.6500000953674 15.375 2264.6663827896 31713.310792049
173	620843 5288 5235 9502 90.75 132.25 167 482.97225952148 801.41563415527 96578.05884552 57882883.834198
172	626131 5298 5235 9502 90.75 132.25 167 483.14999389648 732.28114318848 89163.841873169 48584007.463989
vector 256  IntersectionExampleScenario.node[36].veinsmobility  posx  ETV
vector 257  IntersectionExampleScenario.node[36].veinsmobility  posy  ETV
vector 258  IntersectionExampleScenario.node[36].veinsmobility  speed  ETV
vector 259  IntersectionExampleScenario.node[36].veinsmobility  acceleration  ETV
vector 260  IntersectionExampleScenario.node[36].veinsmobility  co2emission  ETV
vector 263  IntersectionExampleScenario.node[37].veinsmobility  posx  ETV
vector 264  IntersectionExampleScenario.node[37].veinsmobility  posy  ETV
vector 265  IntersectionExampleScenario.node[37].veinsmobility  speed  ETV
vector 266  IntersectionExampleScenario.node[37].veinsmobility  acceleration  ETV
vector 267  IntersectionExampleScenario.node[37].veinsmobility  co2emission  ETV
120	632211 6625 3956 9779 76.25 136 240 0.973 11.648172402475 618.20667305434 3002.695105957
119	638836 5918 3956 9779 76.25 136 240 -7.26416015625 4 39.699392318726 477.24787260196
118	644754 6246 3938 9779 76 136 241 0 15.64999961853 2179.2267155647 31156.725338937
117	651000 7619 3919 9779 75.75 136 242 184.17810058594 483.36395263672 102274.86688232 45247596.797299
116	658619 7582 3919 9779 75.75 136 242 486.85000610352 733.42994689941 125858.74357605 66505381.636273
148	666201 6448 4440 9889 82.5 137.75 222 0.973 11.200708441096 570.4259692419 2690.6589761973
147	672649 6582 4440 9889 82.5 137.75 222 -3.891818523407 2.5000002384186 36.813589096069 329.84662409073
146	679231 6936 4417 9889 82.25 137.75 223 0 15.02499961853 2220.7707553469 29358.510488335
145	686167 7052 4394 9889 82 137.75 224 184.17810058594 734.78259277344 101242.33856201 50024532.694647
144	693219 7096 4394 9889 82 137.75 224 486.85000610352 486.85000610352 109054.40136719 53093135.97123
vector 270  IntersectionExampleScenario.node[38].veinsmobility  posx  ETV
vector 271  IntersectionExampleScenario.node[38].veinsmobility  posy  ETV
vector 272  IntersectionExampleScenario.node[38].veinsmobility  speed  ETV
vector 273  IntersectionExampleScenario.node[38].veinsmobility  acceleration  ETV
vector 274  IntersectionExampleScenario.node[38].veinsmobility  co2emission  ETV
197	700706 5200 6115 10081 98.5 141 171 0.973 11.00486315618 534.62143253172 2979.83255551
196	705906 4874 6115 10081 98.5 141 171 -3.407283782959 2.5 34.606801986694 317.84089910394
195	710780 5223 6088 10081 98.25 141 172 5.6500000953674 14.75 2207.1208181381 29186.443970402
194	716003 5501 6060 10081 98 141 173 184.17810058594 486.88055419922 69034.783599854 29386588.29297
193	721504 5524 6060 10081 98 141 173 236.29827880859 486.85000610352 75263.457000732 33777708.615189
vector 277  IntersectionExampleScenario.node[39].veinsmobility  posx  ETV
vector 278  IntersectionExampleScenario.node[39].veinsmobility  posy  ETV
vector 279  IntersectionExampleScenario.node[39].veinsmobility  speed  ETV
vector 280  IntersectionExampleScenario.node[39].veinsmobility  acceleration  ETV
vector 281  IntersectionExampleScenario.node[39].veinsmobility  co2emission  ETV
vector 284  IntersectionExampleScenario.node[40].veinsmobility  posx  ETV
vector 285  IntersectionExampleScenario.node[40].veinsmobility  posy  ETV
vector 286  IntersectionExampleScenario.node[40].veinsmobility  speed  ETV
vector 287  IntersectionExampleScenario.node[40].veinsmobility  acceleration  ETV
vector 288  IntersectionExampleScenario.node[40].veinsmobility  co2emission  ETV
vector 291  IntersectionExampleScenario.node[41].veinsmobility  posx  ETV
vector 292  IntersectionExampleScenario.node[41].veinsmobility  posy  ETV
162	727960 6556 4916 10402 87.5 146.75 238 0.93438186594183 12.26218747632 633.31102092715 3458.7558322041
161	734516 6133 4916 10402 87.5 146.75 238 -10.00136756897 4 41.057416915894 574.1797984031
160	740649 6199 4893 10402 87.25 146.75 239 0 16.5 2182.0702438354 31914.282210438
159	746848 7570 4870 10402 87 146.75 240 486.85000610352 734.55892944336 124782.92448425 65921497.624676
158	754418 7650 4870 10402 87 146.75 240 486.63604736328 785.82187652588 131292.54177094 73829634.144619
vector 293  IntersectionExampleScenario.node[41].veinsmobility  speed  ETV
vector 294  IntersectionExampleScenario.node[41].veinsmobility  acceleration  ETV
vector 295  IntersectionExampleScenario.node[41].veinsmobility  co2emission  ETV
vector 298  IntersectionExampleScenario.node[42].veinsmobility  posx  ETV
vector 299  IntersectionExampleScenario.node[42].veinsmobility  posy  ETV
vector 300  IntersectionExampleScenario.node[42].veinsmobility  speed  ETV
vector 301  IntersectionExampleScenario.node[42].veinsmobility  acceleration  ETV
vector 302  IntersectionExampleScenario.node[42].veinsmobility  co2emission  ETV
183	762700 6616 5428 10622 92.5 149.75 230 0.973 11.411128549368 588.64025858655 2788.0662922397
182	769316 6567 5428 10622 92.5 149.75 230 -7.3489890098572 4 36.813589096069 478.81510297107
181	775883 6606 5399 10622 92.25 149.75 231 0 15.319483757019 2190.7459147274 30222.815365686
180	782489 7427 5370 10622 92 149.75 232 483.14999389648 733.65702819824 120752.25035095 63970239.57384
179	789916 7406 5370 10622 92 149.75 232 184.17810058594 486.85000610352 97503.746673584 43038615.198457
190	797322 6451 5664 10622 94.5 149.75 222 0.973 10.756497587458 540.71239633181 2399.5599679164
189	803773 6666 5664 10622 94.5 149.75 222 -3.8392333984375 2.5 32.909269332886 308.00259577282
188	810439 6823 5633 10622 94.25 149.75 223 0 14.39999961853 2210.3759506345 27520.303171777
187	817262 7185 5602 10622 94 149.75 224 486.85000610352 486.85000610352 109054.40136719 53093135.97123
186	824447 7162 5602 10622 94 149.75 224 237.40673828125 785.82187652588 116131.09389496 64635903.806073
204	831609 5597 6592 10641 103 150 189 0.973 11.648172402475 545.57610550102 2859.126073251
203	837206 5553 6592 10641 103 150 189 -4.5 2.5000009536743 38.171613693237 322.38082186058
202	842759 5828 6565 10641 102.75 150 190 2.4422471523285 15.64999961853 2183.0493552685 28835.28685559
201	848587 6145 6538 10641 102.5 150 191 237.41839599609 483.14999389648 84111.214263916 38025239.063424
200	854732 6126 6538 10641 102.5 150 191 184.17810058594 483.14999389648 77300.735870361 33092603.444849
vector 305  IntersectionExampleScenario.node[43].veinsmobility  posx  ETV
vector 306  IntersectionExampleScenario.node[43].veinsmobility  posy  ETV
vector 307  IntersectionExampleScenario.node[43].veinsmobility  speed  ETV
vector 308  IntersectionExampleScenario.node[43].veinsmobility  acceleration  ETV
vector 309  IntersectionExampleScenario.node[43].veinsmobility  co2emission  ETV
232	861249 4944 7309 10742 110 151.25 166 0.9726981481989 11.648172402475 564.51771352067 3287.04421669
231	866193 5209 7309 10742 110 151.25 166 -4.0300216674805 2.5000019073486 40.617429733276 370.39415669235
230	871402 5325 7280 10742 109.75 151.25 167 5.6500000953674 15.949857711792 2090.2698965073 28122.219714391
229	876727 5408 7251 10742 109.5 151.25 168 237.47717285156 486.85000610352 73498.596862793 33113752.229695
228	882135 5405 7251 10742 109.5 151.25 168 483.14999389648 757.09531402588 93750.427688599 53707414.157395
218	887540 5467 7165 10868 108.75 152.75 177 0.973 10.65035628006 554.15087049232 2729.2183617428
217	893007 5198 7165 10868 108.75 152.75 177 -4.5 2.5 37.32285118103 390.7166329782
216	898205 5549 7138 10868 108.5 152.75 178 5.1445112228394 15.16322517395 2214.3315253258 29219.103112872
215	903754 5783 7111 10868 108.25 152.75 179 486.85000610352 486.85000610352 87146.151092529 42427104.191296
214	909537 5745 7111 10868 108.25 152.75 179 237.01800537109 785.82187652588 94901.265029907 54791700.11379
225	915282 5755 7223 11078 109.25 155.25 185 0.973 11.450879080643 555.68601047508 2816.5468771612
224	921037 5533 7223 11078 109.25 155.25 185 -4.5 2.5 38.341367721558 307.34479705582
223	926570 5731 7194 11078 109 155.25 186 5.6500000953674 15.559419631958 2301.8741416931 30197.466486104
222	932301 6027 7165 11078 108.75 155.25 187 237.373046875 486.85000610352 82664.856872559 37559194.805992
221	938328 6038 7165 11078 108.75 155.25 187 483.14999389648 809.56562805176 109366.82667542 66339292.750008
246	944366 4942 8326 11343 119.5 159 159 0.97223939240464 11.648172402475 508.9629996828 2899.8513339951
245	949308 4562 8326 11343 119.5 159 159 -3.6282272338867 2.5 38.680875778198 294.73318172255
244	953870 4875 8299 11343 119.25 159 160 5.6500000953674 15.64999961853 2177.8997716904 31016.261310784
243	958745 5226 8272 11343 119 159 161 238.51538085938 483.14999389648 69741.041015625 31114408.885611
242	963971 5200 8272 11343 119 159 161 184.17810058594 483.22128295898 63981.659606934 27163896.718733
vector 312  IntersectionExampleScenario.node[44].veinsmobility  posx  ETV
vector 313  IntersectionExampleScenario.node[44].veinsmobility  posy  ETV
vector 314  IntersectionExampleScenario.node[44].veinsmobility  speed  ETV
vector 315  IntersectionExampleScenario.node[44].veinsmobility  acceleration  ETV
vector 316  IntersectionExampleScenario.node[44].veinsmobility  co2emission  ETV
239	969562 5834 7561 11451 112.25 160.5 194 0.973 11.36141391502 550.98406206791 2762.4968877201
238	975396 5362 7561 11451 112.25 160.5 194 -8.2099418640137 4 36.813589096069 481.06962067089
237	980758 5658 7532 11451 112 160.5 195 0 15.25 2172.3059687614 29932.842901098
236	986416 6349 7503 11451 111.75 160.5 196 486.63604736328 785.82187652588 109873.67533112 63500115.822627
235	992765 6292 7503 11451 111.75 160.5 196 237.89813232422 483.14999389648 86387.038085938 39078520.646716
vector 319  IntersectionExampleScenario.node[45].veinsmobility  posx  ETV
vector 320  IntersectionExampleScenario.node[45].veinsmobility  posy  ETV
vector 321  IntersectionExampleScenario.node[45].veinsmobility  speed  ETV
vector 322  IntersectionExampleScenario.node[45].veinsmobility  acceleration  ETV
vector 323  IntersectionExampleScenario.node[45].veinsmobility  co2emission  ETV
vector 326  IntersectionExampleScenario.node[46].veinsmobility  posx  ETV
vector 327  IntersectionExampleScenario.node[46].veinsmobility  posy  ETV
vector 328  IntersectionExampleScenario.node[46].veinsmobility  speed  ETV
vector 329  IntersectionExampleScenario.node[46].veinsmobility  acceleration  ETV
vector 330  IntersectionExampleScenario.node[46].veinsmobility  co2emission  ETV
253	999839 5571 8802 12284 124.5 171.75 190 0.973 12.717865293408 587.85645796895 3575.2379834175
252	1005410 5763 8802 12284 124.5 171.75 190 -2.2057342529297 2.5000004768372 43.773473739624 352.5082573679
251	1011173 5888 8779 12284 124.25 171.75 191 1.2381047010422 17.125 2178.0709718466 30530.850145882
250	1017061 6234 8756 12284 124 171.75 192 184.17810058594 483.14999389648 78143.890594482 33571195.135526
249	1023295 6264 8756 12284 124 171.75 192 486.85000610352 731.33531188965 100927.74443054 53971597.294212
211	1029559 7311 7086 12299 108 172 257 0.973 11.200708441096 605.53835781818 2713.4022936132
210	1036870 6494 7086 12299 108 172 257 -8.8173408508301 4 35.116056442261 539.91645328189
209	1043364 6895 7061 12299 107.75 172 258 0 15.02499961853 2199.3344659805 29911.730356847
208	1050259 8396 7036 12299 107.5 172 259 184.17810058594 486.85000610352 110050.06835938 48901903.031954
207	1058655 8403 7036 12299 107.5 172 259 237.36499023438 486.85000610352 117281.59457397 54275062.973538
vector 333  IntersectionExampleScenario.node[47].veinsmobility  posx  ETV
vector 334  IntersectionExampleScenario.node[47].veinsmobility  posy  ETV
vector 335  IntersectionExampleScenario.node[47].veinsmobility  speed  ETV
vector 336  IntersectionExampleScenario.node[47].veinsmobility  acceleration  ETV
vector 337  IntersectionExampleScenario.node[47].veinsmobility  co2emission  ETV
vector 340  IntersectionExampleScenario.node[48].veinsmobility  posx  ETV
vector 341  IntersectionExampleScenario.node[48].veinsmobility  posy  ETV
vector 347  IntersectionExampleScenario.node[49].veinsmobility  posx  ETV
vector 348  IntersectionExampleScenario.node[49].veinsmobility  posy  ETV
vector 342  IntersectionExampleScenario.node[48].veinsmobility  speed  ETV
vector 343  IntersectionExampleScenario.node[48].veinsmobility  acceleration  ETV
vector 344  IntersectionExampleScenario.node[48].veinsmobility  co2emission  ETV
vector 349  IntersectionExampleScenario.node[49].veinsmobility  speed  ETV
vector 350  IntersectionExampleScenario.node[49].veinsmobility  acceleration  ETV
vector 351  IntersectionExampleScenario.node[49].veinsmobility  co2emission  ETV
vector 354  IntersectionExampleScenario.node[50].veinsmobility  posx  ETV
vector 355  IntersectionExampleScenario.node[50].veinsmobility  posy  ETV
vector 361  IntersectionExampleScenario.node[51].veinsmobility  posx  ETV
vector 362  IntersectionExampleScenario.node[51].veinsmobility  posy  ETV
vector 356  IntersectionExampleScenario.node[50].veinsmobility  speed  ETV
vector 363  IntersectionExampleScenario.node[51].veinsmobility  speed  ETV
vector 357  IntersectionExampleScenario.node[50].veinsmobility  acceleration  ETV
vector 358  IntersectionExampleScenario.node[50].veinsmobility  co2emission  ETV
vector 364  IntersectionExampleScenario.node[51].veinsmobility  acceleration  ETV
vector 365  IntersectionExampleScenario.node[51].veinsmobility  co2emission  ETV
260	1069013 5979 9584 12930 133.25 182.25 197 0.973 11.450879080643 560.0799064312 2804.1409457159
259	1074992 5308 9584 12930 133.25 182.25 197 -6.9984560012817 4 37.492597579956 466.08322065122
258	1080300 5809 9564 12930 133 182.25 198 0 15.375 2188.9196910858 30559.881198203
257	1086109 6536 9543 12930 132.75 182.25 199 483.14999389648 734.81900024414 104769.10237122 56232714.859216
256	1092645 6514 9543 12930 132.75 182.25 199 184.17810058594 486.85000610352 81979.342102051 35722285.96514
vector 368  IntersectionExampleScenario.node[52].veinsmobility  posx  ETV
vector 369  IntersectionExampleScenario.node[52].veinsmobility  posy  ETV
274	1099309 5363 10021 13025 140 183.5 175 0.94600815583079 12.26218747632 561.66573930613 3144.9174072241
273	1104672 5060 10021 13025 140 183.5 175 -4.7164688110352 2.5 41.566686630249 352.00340583376
272	1109732 5443 10006 13025 139.75 183.5 176 2.8195195198059 16.5 2182.2829375267 30565.96275785
271	1115175 5839 9991 13025 139.5 183.5 177 237.63262939453 483.14999389648 77767.405426025 35091214.601172
270	1121014 5804 9991 13025 139.5 183.5 177 184.17810058594 483.14999389648 71226.743743896 30421802.51751
vector 370  IntersectionExampleScenario.node[52].veinsmobility  speed  ETV
vector 371  IntersectionExampleScenario.node[52].veinsmobility  acceleration  ETV
vector 372  IntersectionExampleScenario.node[52].veinsmobility  co2emission  ETV
288	1127059 5029 10387 13172 146.5 185.25 156 0.973 11.54047740176 464.21906764276 2334.0371168052
287	1132088 4483 10387 13172 146.5 185.25 156 -3.3398780822754 2.5 37.15309715271 186.64487440163
286	1136571 4945 10372 13172 146.25 185.25 157 5.6500000953674 15.5 2213.6558599472 31783.541796294
285	1141516 5213 10357 13172 146 185.25 158 486.85000610352 486.85000610352 76922.300964355 37449622.693993
284	1146729 5205 10357 13172 146 185.25 158 237.51141357422 785.82187652588 82399.831138611 47156578.047039
281	1151934 5311 10240 13214 143.75 185.75 169 0.973 11.648172402475 564.45983396626 3394.1447374142
280	1157245 5082 10240 13214 143.75 185.75 169 -3.8969993591309 2.5 38.341367721558 353.96066192649
279	1162327 5361 10226 13214 143.5 185.75 170 5.6500000953674 15.64999961853 2250.0535407066 31096.571181212
278	1167688 5645 10211 13214 143.25 185.75 171 483.14999389648 483.14999389648 82618.648956299 39917199.738971
277	1173333 5620 10211 13214 143.25 185.75 171 176.21716308594 733.97125244141 75656.440719604 37824001.983024
vector 375  IntersectionExampleScenario.node[53].veinsmobility  posx  ETV
vector 376  IntersectionExampleScenario.node[53].veinsmobility  posy  ETV
vector 377  IntersectionExampleScenario.node[53].veinsmobility  speed  ETV
vector 378  IntersectionExampleScenario.node[53].veinsmobility  acceleration  ETV
vector 379  IntersectionExampleScenario.node[53].veinsmobility  co2emission  ETV
309	1179344 4803 10721 13491 151 189 153 0.973 12.06016389382 536.32706048568 3330.8880376599
308	1184147 4495 10721 13491 151 189 153 -4.5 2.5 41.227170944214 308.54355217069
307	1188642 4773 10700 13491 150.75 189 154 5.6500000953674 16.22131729126 2207.4012308121 32724.063140604
306	1193415 5109 10679 13491 150.5 189 155 483.14999389648 733.00508117676 82929.844955444 45289497.475973
305	1198524 5090 10679 13491 150.5 189 155 184.17810058594 486.87976074219 61576.042602539 26201379.842569
267	1203614 7100 9674 14021 134.5 195.5 245 0.973 11.36141391502 604.30176604097 2825.2064809632
266	1210714 6334 9674 14021 134.5 195.5 245 -7.3439340591431 4 37.32285118103 466.2801642023
265	1217048 6713 9655 14021 134.25 195.5 246 0 15.25 2179.0751368999 30203.864518701
264	1223761 8116 9636 14021 134 195.5 247 486.63604736328 785.82187652588 135233.94283295 76100831.52961
263	1231877 8062 9636 14021 134 195.5 247 236.31317138672 483.14999389648 110987.22103882 50959502.043247
302	1239939 5750 10508 14059 148.25 196 192 0.973 11.990504229548 561.35995958293 3040.4574502813
301	1245689 5950 10508 14059 148.25 196 192 -2.1482048034668 2.5000019073486 39.869146347046 320.33014924299
300	1251639 6182 10489 14059 148 196 193 1.3243390321732 16.125 2219.5384377241 30319.438909259
299	1257821 6377 10470 14059 147.75 196 194 236.01940917969 785.82187652588 101216.61461639 56908163.52112
298	1264198 6401 10470 14059 147.75 196 194 483.14999389648 483.14999389648 93731.098815918 45286179.820821
vector 382  IntersectionExampleScenario.node[54].veinsmobility  posx  ETV
vector 383  IntersectionExampleScenario.node[54].veinsmobility  posy  ETV
vector 384  IntersectionExampleScenario.node[54].veinsmobility  speed  ETV
vector 385  IntersectionExampleScenario.node[54].veinsmobility  acceleration  ETV
vector 386  IntersectionExampleScenario.node[54].veinsmobility  co2emission  ETV
vector 389  IntersectionExampleScenario.node[55].veinsmobility  posx  ETV
vector 390  IntersectionExampleScenario.node[55].veinsmobility  posy  ETV
vector 391  IntersectionExampleScenario.node[55].veinsmobility  speed  ETV
vector 392  IntersectionExampleScenario.node[55].veinsmobility  acceleration  ETV
vector 393  IntersectionExampleScenario.node[55].veinsmobility  co2emission  ETV
vector 396  IntersectionExampleScenario.node[56].veinsmobility  posx  ETV
vector 397  IntersectionExampleScenario.node[56].veinsmobility  posy  ETV
vector 398  IntersectionExampleScenario.node[56].veinsmobility  speed  ETV
vector 403  IntersectionExampleScenario.node[57].veinsmobility  posx  ETV
vector 404  IntersectionExampleScenario.node[57].veinsmobility  posy  ETV
vector 399  IntersectionExampleScenario.node[56].veinsmobility  acceleration  ETV
vector 400  IntersectionExampleScenario.node[56].veinsmobility  co2emission  ETV
vector 405  IntersectionExampleScenario.node[57].veinsmobility  speed  ETV
vector 406  IntersectionExampleScenario.node[57].veinsmobility  acceleration  ETV
vector 407  IntersectionExampleScenario.node[57].veinsmobility  co2emission  ETV
vector 410  IntersectionExampleScenario.node[58].veinsmobility  posx  ETV
vector 411  IntersectionExampleScenario.node[58].veinsmobility  posy  ETV
vector 412  IntersectionExampleScenario.node[58].veinsmobility  speed  ETV
vector 413  IntersectionExampleScenario.node[58].veinsmobility  acceleration  ETV
vector 414  IntersectionExampleScenario.node[58].veinsmobility  co2emission  ETV
295	1272554 7041 10436 15009 147.25 207 240 0.973 11.200708441096 590.01384470344 2721.8089169868
294	1279595 6374 10436 15009 147.25 207 240 -6.8669729232788 4 35.625318527222 451.20992833426
293	1285969 6762 10419 15009 147 207 241 0 15.02499961853 2216.7981929779 30264.344400869
292	1292731 7953 10402 15009 146.75 207 242 184.17810058594 734.74969482422 110659.07678223 54935899.112807
291	1300684 7985 10402 15009 146.75 207 242 486.85000610352 486.85000610352 117817.70147705 57359548.683204
323	1308669 5369 11759 15093 164.5 208 175 0.973 11.90022389248 544.9823007222 3058.6498933824
322	1314038 5372 11759 15093 164.5 208 175 -2.1371688842773 2.5 39.699392318726 304.13130843567
321	1319410 5505 11738 15093 164.25 208 176 3.986599445343 16 2207.0350580215 30215.574775433
320	1324915 5816 11717 15093 164 208 177 184.17810058594 486.88092041016 71176.503997803 30410864.528633
319	1330731 5835 11717 15093 164 208 177 237.48168945312 486.85000610352 77983.011657715 35339098.701161
vector 417  IntersectionExampleScenario.node[59].veinsmobility  posx  ETV
vector 418  IntersectionExampleScenario.node[59].veinsmobility  posy  ETV
vector 419  IntersectionExampleScenario.node[59].veinsmobility  speed  ETV
vector 420  IntersectionExampleScenario.node[59].veinsmobility  acceleration  ETV
vector 421  IntersectionExampleScenario.node[59].veinsmobility  co2emission  ETV
vector 424  IntersectionExampleScenario.node[60].veinsmobility  posx  ETV
vector 425  IntersectionExampleScenario.node[60].veinsmobility  posy  ETV
vector 426  IntersectionExampleScenario.node[60].veinsmobility  speed  ETV
vector 427  IntersectionExampleScenario.node[60].veinsmobility  acceleration  ETV
vector 428  IntersectionExampleScenario.node[60].veinsmobility  co2emission  ETV
316	1337348 6653 11432 15782 160.25 217 228 0.973 11.810082123732 601.78232312712 3062.5641315136
315	1344001 6239 11432 15782 160.25 217 228 -8.6358022689819 4 39.020376205444 502.32251116825
314	1350240 6348 11413 15782 160 217 229 0 15.875 2172.147134304 30841.114084497
313	1356588 7520 11394 15782 159.75 217 230 486.85000610352 731.89318847656 119990.75762939 63624945.981849
312	1364108 7584 11394 15782 159.75 217 230 486.63604736328 785.82187652588 126555.34986115 71633733.781682
330	1371692 5948 12054 15782 168.25 217 196 0.973 11.90022389248 576.62507981817 3089.4641876765
329	1377640 5587 12054 15782 168.25 217 196 -9.0596437454224 4 39.359884262085 505.50740959224
328	1383227 5791 12035 15782 168 217 197 0 16 2214.564473629 31814.548510874
327	1389018 6533 12016 15782 167.75 217 198 483.14999389648 483.14999389648 95663.698791504 46219915.48723
326	1395551 6494 12016 15782 167.75 217 198 184.17810058594 733.46641540527 89730.452056885 44779845.842605
337	1402045 5489 12348 15839 172.75 217.75 181 0.973 12.099024792222 560.44689390416 3178.0710177102
336	1407534 5545 12348 15839 172.75 217.75 181 -2.1759452819824 2.5 41.396924972534 318.53367815385
335	1413079 5815 12331 15839 172.5 217.75 182 2.2749481201172 16.27499961853 2215.3334732056 30900.454599457
334	1418894 6041 12314 15839 172.25 217.75 183 486.85000610352 486.85000610352 89093.551116943 43375195.905068
333	1424935 6011 12314 15839 172.25 217.75 183 237.30743408203 785.82187652588 95781.447807312 54133622.957604
vector 431  IntersectionExampleScenario.node[61].veinsmobility  posx  ETV
vector 432  IntersectionExampleScenario.node[61].veinsmobility  posy  ETV
vector 433  IntersectionExampleScenario.node[61].veinsmobility  speed  ETV
vector 434  IntersectionExampleScenario.node[61].veinsmobility  acceleration  ETV
vector 435  IntersectionExampleScenario.node[61].veinsmobility  co2emission  ETV
358	1431337 5170 12892 16223 181.75 223 166 0.973 11.516779681311 554.06072968975 3339.7887853463
357	1436507 4974 12892 16223 181.75 223 166 -3.4374828338623 2.5 37.32285118103 351.71434504041
356	1441481 5202 12873 16223 181.5 223 167 5.6500000953674 15.466957092285 2185.1830458641 29852.176104715
355	1446683 5532 12854 16223 181.25 223 168 486.85000610352 733.67176818848 90138.554702759 49318546.018199
354	1452215 5534 12854 16223 181.25 223 168 486.85000610352 785.82187652588 96185.940788269 56830670.120433
372	1457749 5132 13067 16372 184 225 165 0.973 11.36141391502 537.46593901046 2966.7955943934
371	1462881 4835 13067 16372 184 225 165 -4.5 2.5 40.038900375366 301.13184517896
370	1467716 5153 13046 16372 183.75 225 166 5.6500000953674 15.84850025177 2260.1364793777 32250.876811032
369	1472869 5505 13025 16372 183.5 225 167 486.85000610352 734.88519287109 89402.674285889 48801298.666972
368	1478374 5498 13025 16372 183.5 225 167 486.85000610352 802.70781707764 96624.392326355 57901128.255766
379	1483872 5021 13491 16593 189 228.5 159 0.973 11.648172402475 490.25258368669 2688.2186800019
378	1488893 4967 13491 16593 189 228.5 159 -3.1865196228027 2.5 37.662351608276 231.72877879136
377	1493860 4986 13468 16593 188.75 228.5 160 5.6500000953674 15.64999961853 2213.1610021591 31500.433166261
376	1498846 5309 13445 16593 188.5 228.5 161 483.14999389648 734.3310546875 86364.063232422 47306292.839702
375	1504155 5286 13445 16593 188.5 228.5 161 184.17810058594 486.85000610352 64169.82208252 27363897.119448
351	1509441 6022 12824 16685 180.75 230.25 199 0.973 11.648172402475 566.77968882906 2908.2665692928
350	1515463 5616 12824 16685 180.75 230.25 199 -7.487738609314 4 38.171613693237 479.38056754555
349	1521079 5829 12809 16685 180.5 230.25 200 0 15.64999961853 2175.1223852634 30520.118679169
348	1526908 6629 12793 16685 180.25 230.25 201 486.63604736328 785.82187652588 112184.5359726 64527670.827717
347	1533537 6559 12793 16685 180.25 230.25 201 237.46997070312 483.14999389648 88944.362365723 40360321.422553
vector 438  IntersectionExampleScenario.node[62].veinsmobility  posx  ETV
vector 439  IntersectionExampleScenario.node[62].veinsmobility  posy  ETV
vector 445  IntersectionExampleScenario.node[63].veinsmobility  posx  ETV
vector 446  IntersectionExampleScenario.node[63].veinsmobility  posy  ETV
vector 440  IntersectionExampleScenario.node[62].veinsmobility  speed  ETV
vector 441  IntersectionExampleScenario.node[62].veinsmobility  acceleration  ETV
vector 442  IntersectionExampleScenario.node[62].veinsmobility  co2emission  ETV
vector 447  IntersectionExampleScenario.node[63].veinsmobility  speed  ETV
vector 448  IntersectionExampleScenario.node[63].veinsmobility  acceleration  ETV
vector 449  IntersectionExampleScenario.node[63].veinsmobility  co2emission  ETV
vector 452  IntersectionExampleScenario.node[64].veinsmobility  posx  ETV
vector 453  IntersectionExampleScenario.node[64].veinsmobility  posy  ETV
vector 454  IntersectionExampleScenario.node[64].veinsmobility  speed  ETV
vector 455  IntersectionExampleScenario.node[64].veinsmobility  acceleration  ETV
vector 456  IntersectionExampleScenario.node[64].veinsmobility  co2emission  ETV
386	1541269 5007 14120 17061 196.75 236 158 0.973 11.922922778743 536.38495588383 3137.815962448
385	1546276 4777 14120 17061 196.75 236 158 -3.3278770446777 2.5 39.869146347046 312.53333494871
384	1551053 4925 14099 17061 196.5 236 159 5.6500000953674 16.031446456909 2191.0241861343 31662.271033052
383	1555978 5273 14078 17061 196.25 236 160 486.85000610352 785.82187652588 91578.875663757 54146137.294577
382	1561251 5261 14078 17061 196.25 236 160 235.22686767578 483.14999389648 69192.504547119 30845612.90308
vector 459  IntersectionExampleScenario.node[65].veinsmobility  posx  ETV
vector 460  IntersectionExampleScenario.node[65].veinsmobility  posy  ETV
vector 466  IntersectionExampleScenario.node[66].veinsmobility  posx  ETV
vector 467  IntersectionExampleScenario.node[66].veinsmobility  posy  ETV
vector 461  IntersectionExampleScenario.node[65].veinsmobility  speed  ETV
vector 462  IntersectionExampleScenario.node[65].veinsmobility  acceleration  ETV
vector 463  IntersectionExampleScenario.node[65].veinsmobility  co2emission  ETV
vector 468  IntersectionExampleScenario.node[66].veinsmobility  speed  ETV
vector 469  IntersectionExampleScenario.node[66].veinsmobility  acceleration  ETV
vector 470  IntersectionExampleScenario.node[66].veinsmobility  co2emission  ETV
344	1567294 7025 12809 17410 180.5 241.25 244 0.973 11.810082123732 614.21499323427 3066.2093130052
343	1574319 6514 12809 17410 180.5 241.25 244 -7.775092124939 4 38.511121749878 481.7653167427
342	1580833 6665 12793 17410 180.25 241.25 245 0 15.875 2181.7102353573 30752.64212689
341	1587498 8096 12778 17410 180 241.25 246 184.17810058594 483.36395263672 104038.96917725 46042721.110497
340	1595594 8044 12778 17410 180 241.25 246 486.85000610352 734.25172424316 127993.29521179 67673020.03596
365	1603638 7114 12892 17486 181.75 242.25 243 0.973 11.90022389248 631.91771433557 3143.9258154658
364	1610752 6432 12892 17486 181.75 242.25 243 -4.5 2.5 40.038900375366 487.82532319811
363	1617184 6819 12873 17486 181.5 242.25 244 0 16 2294.5150576429 32873.238174337
362	1624003 8066 12854 17486 181.25 242.25 245 162.90466308594 486.86569213867 101643.05679321 44562078.954357
361	1632069 8082 12854 17486 181.25 242.25 245 236.57360839844 486.85000610352 111071.81811523 51447740.777978
vector 473  IntersectionExampleScenario.node[67].veinsmobility  posx  ETV
vector 474  IntersectionExampleScenario.node[67].veinsmobility  posy  ETV
vector 475  IntersectionExampleScenario.node[67].veinsmobility  speed  ETV
vector 476  IntersectionExampleScenario.node[67].veinsmobility  acceleration  ETV
vector 477  IntersectionExampleScenario.node[67].veinsmobility  co2emission  ETV
407	1640542 5192 14635 17671 202.75 244.5 168 0.973 12.099024792222 574.04974658107 3456.158652668
406	1645734 4883 14635 17671 202.75 244.5 168 -3.5050258636475 2.5 41.396924972534 374.35268573731
405	1650617 5240 14613 17671 202.5 244.5 169 5.6500000953674 16.27499961853 2178.6719827652 30323.727617541
404	1655857 5580 14590 17671 202.25 244.5 170 184.17810058594 483.14999389648 67840.668395996 28786629.749335
403	1661437 5605 14590 17671 202.25 244.5 170 486.85000610352 731.55116271973 90492.733535767 49072640.912473
vector 480  IntersectionExampleScenario.node[68].veinsmobility  posx  ETV
vector 481  IntersectionExampleScenario.node[68].veinsmobility  posy  ETV
vector 487  IntersectionExampleScenario.node[69].veinsmobility  posx  ETV
vector 488  IntersectionExampleScenario.node[69].veinsmobility  posy  ETV
vector 482  IntersectionExampleScenario.node[68].veinsmobility  speed  ETV
vector 483  IntersectionExampleScenario.node[68].veinsmobility  acceleration  ETV
vector 484  IntersectionExampleScenario.node[68].veinsmobility  co2emission  ETV
vector 489  IntersectionExampleScenario.node[69].veinsmobility  speed  ETV
vector 490  IntersectionExampleScenario.node[69].veinsmobility  acceleration  ETV
vector 491  IntersectionExampleScenario.node[69].veinsmobility  co2emission  ETV
393	1667824 6188 14376 18295 199.75 251.75 209 0.973 12.099024792222 601.36441277177 3237.2890211001
392	1674012 5780 14376 18295 199.75 251.75 209 -7.2880325317383 4 41.057416915894 490.95668877536
391	1679792 5986 14353 18295 199.5 251.75 210 0 16.27499961853 2205.2845826149 32263.751093549
390	1685778 6963 14330 18295 199.25 251.75 211 236.18798828125 486.85000610352 94617.044219971 43469393.348171
389	1692741 6955 14330 18295 199.25 251.75 211 483.14999389648 785.82187652588 116613.15444183 66407364.059322
421	1699696 5404 15349 18409 211.25 253.25 169 0.973 11.00486315618 479.27967995494 2320.6408614616
420	1705100 4962 15349 18409 211.25 253.25 169 -2.8754234313965 2.5 33.927785873413 223.71241202744
419	1710062 5321 15328 18409 211 253.25 170 5.6500000953674 14.75 2213.2415533066 29586.703653071
418	1715383 5599 15307 18409 210.75 253.25 171 483.14999389648 735.04309082031 91776.275680542 50306539.59478
417	1720982 5618 15307 18409 210.75 253.25 171 184.17810058594 486.87683105469 68344.870666504 29174382.10734
vector 494  IntersectionExampleScenario.node[70].veinsmobility  posx  ETV
vector 495  IntersectionExampleScenario.node[70].veinsmobility  posy  ETV
vector 496  IntersectionExampleScenario.node[70].veinsmobility  speed  ETV
vector 497  IntersectionExampleScenario.node[70].veinsmobility  acceleration  ETV
vector 498  IntersectionExampleScenario.node[70].veinsmobility  co2emission  ETV
435	1726991 5188 16147 19085 222 262.25 162 0.973 11.36141391502 498.1830005008 2620.512490188
434	1732179 5038 16147 19085 222 262.25 162 -3.3182697296143 2.5 37.15309715271 267.88010242409
433	1737217 5061 16128 19085 221.75 262.25 163 5.6500000953674 15.25 2186.407681942 30581.69284181
432	1742278 5408 16109 19085 221.5 262.25 164 486.85000610352 733.96012878418 88238.811599731 48425521.776553
431	1747686 5401 16109 19085 221.5 262.25 164 486.85000610352 785.82187652588 93844.552726746 55463331.086807
vector 501  IntersectionExampleScenario.node[71].veinsmobility  posx  ETV
vector 502  IntersectionExampleScenario.node[71].veinsmobility  posy  ETV
vector 503  IntersectionExampleScenario.node[71].veinsmobility  speed  ETV
vector 504  IntersectionExampleScenario.node[71].veinsmobility  acceleration  ETV
vector 505  IntersectionExampleScenario.node[71].veinsmobility  co2emission  ETV
400	1753478 7348 14590 19317 202.25 265.5 254 0.973 11.450879080643 616.88380548908 2868.3023860474
399	1760826 6710 14590 19317 202.25 265.5 254 -26.585464477539 4 36.98334312439 1099.577631304
398	1767536 6862 14569 19317 202 265.5 255 0 15.375 2194.6861209869 30815.293180927
397	1774398 8441 14548 19317 201.75 265.5 256 483.14999389648 785.82187652588 139465.58594513 78095901.006714
396	1782839 8440 14548 19317 201.75 265.5 256 483.14999389648 732.12057495117 132198.28744507 69397379.523256
414	1791279 7633 14786 19368 204.5 266.25 248 0.973 11.810082123732 644.74938749115 3078.3801253225
413	1798912 7357 14786 19368 204.5 266.25 248 -4.5 2.5 40.548154830933 464.8870424202
412	1806269 7514 14763 19368 204.25 266.25 249 0 15.875 2249.4405401116 32157.932817083
411	1813783 8230 14740 19368 204 266.25 250 486.85000610352 802.70781707764 138428.25582886 78938289.546417
410	1822013 8241 14740 19368 204 266.25 250 237.58984375 483.14999389648 112916.58636475 52035911.106811
vector 508  IntersectionExampleScenario.node[72].veinsmobility  posx  ETV
vector 509  IntersectionExampleScenario.node[72].veinsmobility  posy  ETV
vector 510  IntersectionExampleScenario.node[72].veinsmobility  speed  ETV
vector 511  IntersectionExampleScenario.node[72].veinsmobility  acceleration  ETV
vector 512  IntersectionExampleScenario.node[72].veinsmobility  co2emission  ETV
vector 515  IntersectionExampleScenario.node[73].veinsmobility  posx  ETV
vector 516  IntersectionExampleScenario.node[73].veinsmobility  posy  ETV
vector 517  IntersectionExampleScenario.node[73].veinsmobility  speed  ETV
vector 518  IntersectionExampleScenario.node[73].veinsmobility  acceleration  ETV
vector 519  IntersectionExampleScenario.node[73].veinsmobility  co2emission  ETV
428	1831036 7047 15668 20049 215.5 276.25 244 0.97223939240464 11.810082123732 615.64525668513 3084.9319794176
427	1838083 6674 15668 20049 215.5 276.25 244 -6.823992729187 4 38.680875778198 476.18685820253
426	1844757 6667 15649 20049 215.25 276.25 245 0 15.875 2184.609300375 30895.519456304
425	1851424 8096 15630 20049 215 276.25 246 184.17810058594 483.36395263672 104070.00561523 46068074.991837
424	1859520 8046 15630 20049 215 276.25 246 486.85000610352 734.74661254883 128005.15202332 67689042.61521
442	1867566 5493 16808 20097 232.5 277.5 181 0.96333723109819 12.099024792222 550.11868628921 3120.6348239306
441	1873059 5540 16808 20097 232.5 277.5 181 -2.1437759399414 2.5000019073486 40.208654403687 309.2525863271
440	1878599 5706 16791 20097 232.25 277.5 182 2.7267508506775 16.27499961853 2201.7962887287 30087.022897703
439	1884305 6011 16776 20097 232 277.5 183 184.17810058594 486.85000610352 73976.958343506 31702926.442184
438	1890316 6009 16776 20097 232 277.5 183 238.88873291016 486.85000610352 81051.725463867 36871985.009313
vector 522  IntersectionExampleScenario.node[74].veinsmobility  posx  ETV
vector 523  IntersectionExampleScenario.node[74].veinsmobility  posy  ETV
vector 524  IntersectionExampleScenario.node[74].veinsmobility  speed  ETV
vector 525  IntersectionExampleScenario.node[74].veinsmobility  acceleration  ETV
vector 526  IntersectionExampleScenario.node[74].veinsmobility  co2emission  ETV
456	1896716 5842 16948 20253 234.5 281.5 189 0.973 11.36141391502 567.50215646504 3051.980431125
455	1902558 5835 16948 20253 234.5 281.5 189 -4.5 2.5 35.964826583862 405.97122200045
454	1908393 5944 16929 20253 234.25 281.5 190 4.2911262512207 15.25 2256.0147304535 29280.367903351
453	1914337 6263 16910 20253 234 281.5 191 166.078125 483.14999389648 75237.606323242 31722584.798077
452	1920600 6297 16910 20253 234 281.5 191 486.85000610352 733.7105255127 101520.03924561 54980384.087581
vector 529  IntersectionExampleScenario.node[75].veinsmobility  posx  ETV
vector 530  IntersectionExampleScenario.node[75].veinsmobility  posy  ETV
vector 531  IntersectionExampleScenario.node[75].veinsmobility  speed  ETV
vector 532  IntersectionExampleScenario.node[75].veinsmobility  acceleration  ETV
vector 533  IntersectionExampleScenario.node[75].veinsmobility  co2emission  ETV
vector 536  IntersectionExampleScenario.node[76].veinsmobility  posx  ETV
vector 537  IntersectionExampleScenario.node[76].veinsmobility  posy  ETV
vector 543  IntersectionExampleScenario.node[77].veinsmobility  posx  ETV
vector 544  IntersectionExampleScenario.node[77].veinsmobility  posy  ETV
vector 538  IntersectionExampleScenario.node[76].veinsmobility  speed  ETV
vector 539  IntersectionExampleScenario.node[76].veinsmobility  acceleration  ETV
vector 540  IntersectionExampleScenario.node[76].veinsmobility  co2emission  ETV
vector 545  IntersectionExampleScenario.node[77].veinsmobility  speed  ETV
449	1927905 6499 16825 20532 232.75 287.25 219 0.973 11.648172402475 589.64516147086 2952.8663679088
448	1934404 5938 16825 20532 232.75 287.25 219 -7.03919506073 4 38.341367721558 478.13103295482
447	1940342 6244 16808 20532 232.5 287.25 220 0 15.64999961853 2200.0624997616 31109.684844129
446	1946586 7292 16791 20532 232.25 287.25 221 237.29504394531 486.85000610352 99218.902618408 45619959.694955
445	1953878 7289 16791 20532 232.25 287.25 221 483.14999389648 785.82187652588 121881.23592377 69228860.293078
vector 546  IntersectionExampleScenario.node[77].veinsmobility  acceleration  ETV
vector 547  IntersectionExampleScenario.node[77].veinsmobility  co2emission  ETV
vector 550  IntersectionExampleScenario.node[78].veinsmobility  posx  ETV
vector 551  IntersectionExampleScenario.node[78].veinsmobility  posy  ETV
463	1961482 5959 17295 20668 239.75 289.25 199 0.973 11.36141391502 540.57570812788 2719.5153353375
462	1967441 6176 17295 20668 239.75 289.25 199 -2.2106704711914 2.5000009536743 37.32285118103 296.2382447624
461	1973617 6291 17276 20668 239.5 289.25 200 1.2329421043396 15.25 2190.0079035759 28605.514150956
460	1979908 6628 17259 20668 239.25 289.25 201 486.85000610352 734.68032836914 106279.57704163 57230208.573165
459	1986536 6623 17259 20668 239.25 289.25 201 486.85000610352 785.82187652588 113104.20290375 65496693.258531
470	1993159 6089 17315 20668 240 289.25 198 0.973 11.990504229548 598.58165146578 3122.1182187567
469	1999248 6064 17315 20668 240 289.25 198 -4.5 2.5000009536743 41.227170944214 434.0113186805
468	2005312 6346 17295 20668 239.75 289.25 199 2.0517702102661 16.125 2308.8332519531 31800.519330539
467	2011658 6600 17276 20668 239.5 289.25 200 486.85000610352 486.85000610352 97370.001220703 47404585.688598
466	2018258 6579 17276 20668 239.5 289.25 200 238.37603759766 810.23281097412 107336.35057068 62208114.353831
vector 552  IntersectionExampleScenario.node[78].veinsmobility  speed  ETV
vector 553  IntersectionExampleScenario.node[78].veinsmobility  acceleration  ETV
vector 554  IntersectionExampleScenario.node[78].veinsmobility  co2emission  ETV
484	2025078 5612 17798 20763 246 290.5 179 0.973 11.36141391502 534.55021087997 2741.8772949487
483	2030690 5218 17798 20763 246 290.5 179 -22.888675689697 4 35.964826583862 905.4737628277
482	2035908 5499 17775 20763 245.75 290.5 180 0 15.25 2172.1746544838 29645.904380573
481	2041407 5965 17754 20763 245.5 290.5 181 238.11682128906 483.14999389648 79047.273132324 35502703.736035
480	2047372 5939 17754 20763 245.5 290.5 181 184.17810058594 483.24322509766 73076.999755859 31352709.202002
vector 557  IntersectionExampleScenario.node[79].veinsmobility  posx  ETV
vector 558  IntersectionExampleScenario.node[79].veinsmobility  posy  ETV
vector 559  IntersectionExampleScenario.node[79].veinsmobility  speed  ETV
491	2053537 5718 17821 20859 246.25 291.75 183 0.973 11.935956939927 587.77180787127 3166.3944197769
490	2059255 5770 17821 20859 246.25 291.75 183 -4.5 2.5 41.547780990601 467.90603564667
489	2065025 5860 17798 20859 246 291.75 184 0.73488837480545 16.049518585205 2278.4326007366 32262.755062341
488	2070885 6095 17775 20859 245.75 291.75 185 236.36767578125 483.14999389648 81281.443725586 36693790.92019
487	2076980 6085 17775 20859 245.75 291.75 185 159.76721191406 483.31405639648 73087.975860596 31105559.319187
vector 560  IntersectionExampleScenario.node[79].veinsmobility  acceleration  ETV
vector 561  IntersectionExampleScenario.node[79].veinsmobility  co2emission  ETV
vector 564  IntersectionExampleScenario.node[80].veinsmobility  posx  ETV
vector 565  IntersectionExampleScenario.node[80].veinsmobility  posy  ETV
477	2083380 6179 17566 20954 243.25 293 200 0.973 11.648172402475 589.00692116699 3075.2638091094
476	2089559 6126 17566 20954 243.25 293 200 -4.5 2.5000019073486 39.359884262085 405.779404303
475	2095685 6298 17545 20954 243 293 201 2.0061185359955 15.64999961853 2281.884095192 30287.682513462
474	2101983 6659 17524 20954 242.75 293 202 486.85000610352 733.1399230957 106410.4730072 57051949.27369
473	2108642 6645 17524 20954 242.75 293 202 486.8249206543 809.82648468018 115940.87028503 68724429.621387
vector 566  IntersectionExampleScenario.node[80].veinsmobility  speed  ETV
vector 567  IntersectionExampleScenario.node[80].veinsmobility  acceleration  ETV
vector 568  IntersectionExampleScenario.node[80].veinsmobility  co2emission  ETV
vector 571  IntersectionExampleScenario.node[81].veinsmobility  posx  ETV
vector 572  IntersectionExampleScenario.node[81].veinsmobility  posy  ETV
vector 573  IntersectionExampleScenario.node[81].veinsmobility  speed  ETV
vector 574  IntersectionExampleScenario.node[81].veinsmobility  acceleration  ETV
vector 575  IntersectionExampleScenario.node[81].veinsmobility  co2emission  ETV
vector 578  IntersectionExampleScenario.node[82].veinsmobility  posx  ETV
vector 579  IntersectionExampleScenario.node[82].veinsmobility  posy  ETV
vector 585  IntersectionExampleScenario.node[83].veinsmobility  posx  ETV
vector 586  IntersectionExampleScenario.node[83].veinsmobility  posy  ETV
vector 580  IntersectionExampleScenario.node[82].veinsmobility  speed  ETV
vector 587  IntersectionExampleScenario.node[83].veinsmobility  speed  ETV
vector 581  IntersectionExampleScenario.node[82].veinsmobility  acceleration  ETV
vector 582  IntersectionExampleScenario.node[82].veinsmobility  co2emission  ETV
vector 588  IntersectionExampleScenario.node[83].veinsmobility  acceleration  ETV
vector 589  IntersectionExampleScenario.node[83].veinsmobility  co2emission  ETV
vector 592  IntersectionExampleScenario.node[84].veinsmobility  posx  ETV
vector 593  IntersectionExampleScenario.node[84].veinsmobility  posy  ETV
vector 594  IntersectionExampleScenario.node[84].veinsmobility  speed  ETV
vector 595  IntersectionExampleScenario.node[84].veinsmobility  acceleration  ETV
vector 596  IntersectionExampleScenario.node[84].veinsmobility  co2emission  ETV
vector 599  IntersectionExampleScenario.node[85].veinsmobility  posx  ETV
vector 600  IntersectionExampleScenario.node[85].veinsmobility  posy  ETV
vector 601  IntersectionExampleScenario.node[85].veinsmobility  speed  ETV
vector 602  IntersectionExampleScenario.node[85].veinsmobility  acceleration  ETV
vector 603  IntersectionExampleScenario.node[85].veinsmobility  co2emission  ETV
vector 606  IntersectionExampleScenario.node[86].veinsmobility  posx  ETV
vector 607  IntersectionExampleScenario.node[86].veinsmobility  posy  ETV
vector 608  IntersectionExampleScenario.node[86].veinsmobility  speed  ETV
512	2117709 5299 19491 22457 268 308.5 163 0.973 10.756497587458 447.87816911349 1976.2908399435
511	2123008 4484 19491 22457 268 308.5 163 -3.6567459106445 2.5 34.267293930054 159.25467154026
510	2127492 5193 19472 22457 267.75 308.5 164 5.6500000953674 14.39999961853 2220.3456325531 30500.206997665
509	2132685 5433 19453 22457 267.5 308.5 165 235.56262207031 785.82187652588 85698.289382935 48893840.31426
508	2138118 5445 19453 22457 267.5 308.5 165 483.14999389648 483.14999389648 79719.74899292 38516596.239358
vector 609  IntersectionExampleScenario.node[86].veinsmobility  acceleration  ETV
vector 610  IntersectionExampleScenario.node[86].veinsmobility  co2emission  ETV
vector 613  IntersectionExampleScenario.node[87].veinsmobility  posx  ETV
vector 614  IntersectionExampleScenario.node[87].veinsmobility  posy  ETV
vector 615  IntersectionExampleScenario.node[87].veinsmobility  speed  ETV
vector 616  IntersectionExampleScenario.node[87].veinsmobility  acceleration  ETV
vector 617  IntersectionExampleScenario.node[87].veinsmobility  co2emission  ETV
vector 620  IntersectionExampleScenario.node[88].veinsmobility  posx  ETV
vector 621  IntersectionExampleScenario.node[88].veinsmobility  posy  ETV
vector 622  IntersectionExampleScenario.node[88].veinsmobility  speed  ETV
vector 623  IntersectionExampleScenario.node[88].veinsmobility  acceleration  ETV
vector 624  IntersectionExampleScenario.node[88].veinsmobility  co2emission  ETV
526	2144510 4934 20209 23429 280.5 318.75 154 0.96333723109819 12.099024792222 504.50358273717 2905.2200946772
525	2149444 4603 20209 23429 280.5 318.75 154 -3.3863906860352 2.5 40.208654403687 255.11559227802
524	2154047 4824 20198 23429 280.25 318.75 155 5.6500000953674 16.27499961853 2213.2808465958 32664.460429439
523	2158871 5119 20187 23429 280 318.75 156 184.17810058594 486.85186767578 62103.636322021 26473105.121736
522	2163990 5134 20187 23429 280 318.75 156 235.56195068359 486.85000610352 67694.633422852 30319415.380011
533	2169124 4713 20422 23671 285.25 322 148 0.88938306007307 12.80944146078 542.04701956529 3477.0797137747
532	2173837 4358 20422 23671 285.25 322 148 -3.5268020629883 2.5 44.452489852905 299.76421744287
531	2178195 4596 20409 23671 285 322 149 5.6500000953674 17.25 2206.9649419785 34096.044787122
530	2182791 4939 20396 23671 284.75 322 150 483.14999389648 732.3268737793 80109.464172363 43658515.747942
529	2187730 4927 20396 23671 284.75 322 150 184.17810058594 486.85000610352 59628.784545898 25404233.270585
498	2192657 7239 18974 23705 260.75 322.5 248 0.973 11.450879080643 616.32265837694 2891.5223257284
497	2199896 6208 18974 23705 260.75 322.5 248 -36.859741210938 4 37.32285118103 1706.3200141786
496	2206104 6770 18955 23705 260.5 322.5 249 0 15.375 2217.6010560989 31522.479547055
495	2212874 8251 18936 23705 260.25 322.5 250 486.85000610352 486.85000610352 121712.50152588 59255732.110748
494	2221125 8238 18936 23705 260.25 322.5 250 236.18798828125 785.82187652588 128135.75853729 69910190.804736
505	2229363 7656 19174 23817 263.5 324.25 244 0.973 11.200708441096 629.19437623372 2868.5791728496
504	2237019 7699 19174 23817 263.5 324.25 244 -4.5 2.5 38.680875778198 426.54011639232
503	2244718 7926 19155 23817 263.25 324.25 245 0 15.384169578552 2276.2030799873 31954.131562426
502	2252644 8117 19136 23817 263 324.25 246 486.85000610352 486.85000610352 119765.10150146 58307640.396976
501	2260761 8090 19136 23817 263 324.25 246 235.65856933594 800.04531860352 128011.6399765 71114022.986495
vector 627  IntersectionExampleScenario.node[89].veinsmobility  posx  ETV
vector 628  IntersectionExampleScenario.node[89].veinsmobility  posy  ETV
vector 629  IntersectionExampleScenario.node[89].veinsmobility  speed  ETV
vector 630  IntersectionExampleScenario.node[89].veinsmobility  acceleration  ETV
vector 631  IntersectionExampleScenario.node[89].veinsmobility  co2emission  ETV
519	2269242 6705 19723 23972 271 326.75 224 0.973 11.90022389248 597.82312415141 3106.4391351923
518	2275947 6938 19723 23972 271 326.75 224 -3.9872674942017 2.5 39.529638290405 351.44701208326
517	2282885 7118 19702 23972 270.75 326.75 225 0 16 2210.5477898866 29263.381266023
516	2290003 7449 19681 23972 270.5 326.75 226 236.55139160156 486.85000610352 101753.88973999 46889563.171201
515	2297452 7447 19681 23972 270.5 326.75 226 483.14999389648 785.82187652588 125913.32607269 72053915.749567
540	2304899 5289 20532 24053 287.25 328.25 165 0.973 11.450879080643 493.65258387966 2535.5299546546
539	2310188 4938 20532 24053 287.25 328.25 165 -3.2358627319336 2.5 36.98334312439 223.73351665153
538	2315126 5193 20515 24053 287 328.25 166 5.6500000953674 15.375 2287.5859050751 32362.117562607
537	2320319 5489 20500 24053 286.75 328.25 167 483.14999389648 735.17462158203 89407.564666748 48876811.911325
536	2325808 5462 20500 24053 286.75 328.25 167 166.078125 486.86575317383 65333.315582275 27645792.612108
554	2331270 5104 20706 24157 289.75 330.25 163 0.973 11.460270681904 522.40454345003 3067.5435252107
553	2336374 4916 20706 24157 289.75 330.25 163 -3.0400581359863 2.5 37.15309715271 275.91014614181
552	2341290 5126 20687 24157 289.5 330.25 164 5.6500000953674 15.388111114502 2207.3785886765 30561.4975975
551	2346416 5436 20668 24157 289.25 330.25 165 237.37084960938 486.85000610352 71801.403930664 32222573.546904
550	2351852 5436 20668 24157 289.25 330.25 165 483.14999389648 785.82187652588 94305.406608582 55697923.338511
vector 634  IntersectionExampleScenario.node[90].veinsmobility  posx  ETV
vector 635  IntersectionExampleScenario.node[90].veinsmobility  posy  ETV
vector 636  IntersectionExampleScenario.node[90].veinsmobility  speed  ETV
vector 637  IntersectionExampleScenario.node[90].veinsmobility  acceleration  ETV
vector 638  IntersectionExampleScenario.node[90].veinsmobility  co2emission  ETV
568	2357679 5017 20996 24288 293.5 332.5 157 0.973 11.450879080643 500.88093816299 2604.9755229514
567	2362696 4792 20996 24288 293.5 332.5 157 -3.4552459716797 2.5 39.529638290405 229.46879779391
566	2367488 4932 20975 24288 293.25 332.5 158 5.6500000953674 15.599833488464 2232.3450841904 32522.504158891
565	2372420 5240 20954 24288 293 332.5 159 238.68444824219 486.85000610352 69271.724578857 31107779.504069
564	2377660 5237 20954 24288 293 332.5 159 482.92974853516 793.78281402588 91528.163627625 54565853.646519
vector 641  IntersectionExampleScenario.node[91].veinsmobility  posx  ETV
vector 642  IntersectionExampleScenario.node[91].veinsmobility  posy  ETV
vector 643  IntersectionExampleScenario.node[91].veinsmobility  speed  ETV
vector 644  IntersectionExampleScenario.node[91].veinsmobility  acceleration  ETV
vector 645  IntersectionExampleScenario.node[91].veinsmobility  co2emission  ETV
547	2383288 5863 20549 24444 287.5 335.25 192 0.973 11.648172402475 570.88645944947 3014.4011575322
546	2389151 5331 20549 24444 287.5 335.25 192 -7.8213858604431 4 38.341367721558 497.55220558411
545	2394482 5699 20532 24444 287.25 335.25 193 0 15.64999961853 2176.7085527182 30565.050430781
544	2400181 6397 20515 24444 287 335.25 194 486.63604736328 785.82187652588 108684.73293304 62775210.0313
543	2406578 6336 20515 24444 287 335.25 194 236.95220947266 483.14999389648 85549.351135254 38718547.656887
vector 648  IntersectionExampleScenario.node[92].veinsmobility  posx  ETV
vector 649  IntersectionExampleScenario.node[92].veinsmobility  posy  ETV
vector 650  IntersectionExampleScenario.node[92].veinsmobility  speed  ETV
vector 651  IntersectionExampleScenario.node[92].veinsmobility  acceleration  ETV
vector 652  IntersectionExampleScenario.node[92].veinsmobility  co2emission  ETV
561	2413305 5691 20878 24629 292 338 185 0.973 11.648172402475 544.36317500073 2855.9424898914
560	2418996 5650 20878 24629 292 338 185 -4.3528785705566 2.5 38.341367721558 379.38520542077
559	2424646 5844 20859 24629 291.75 338 186 0 15.64999961853 2183.5718771815 29956.701862379
558	2430490 6163 20839 24629 291.5 338 187 486.85000610352 785.82187652588 105487.5588913 61332841.634996
557	2436653 6168 20839 24629 291.5 338 187 236.95257568359 483.14999389648 82169.369506836 37086510.995793
575	2442821 4933 21441 24646 298.75 338.25 159 0.973 11.990504229548 564.60453746329 3401.9640671596
574	2447754 4575 21441 24646 298.75 338.25 159 -2.8339309692383 2.5 42.924703598022 307.10343764374
573	2452329 5037 21418 24646 298.5 338.25 160 5.6500000953674 16.439458847046 2209.7446832657 31888.441727089
572	2457366 5276 21395 24646 298.25 338.25 161 238.61187744141 785.82187652588 84904.6929245 48711165.653364
571	2462642 5314 21395 24646 298.25 338.25 161 483.14999389648 483.14999389648 77787.149017334 37582860.57295
vector 655  IntersectionExampleScenario.node[93].veinsmobility  posx  ETV
vector 656  IntersectionExampleScenario.node[93].veinsmobility  posy  ETV
vector 657  IntersectionExampleScenario.node[93].veinsmobility  speed  ETV
[...]
3625	17020099 5810 145738 148725 1702.75 1745 170 5.6500000953674 15.25 2253.8152279854 31100.89932311
3624	17025909 6146 145717 148725 1702.5 1745 171 486.85000610352 802.70781707764 98937.757949829 59271011.461493
3623	17032055 6144 145717 148725 1702.5 1745 171 236.29583740234 483.14999389648 74268.577423096 33219551.702606
3599	17038199 7770 144576 148780 1685 1746 245 0.973 12.099024792222 652.27235171955 3364.6250738524
3598	17045969 7471 144576 148780 1685 1746 245 -7.5701193809509 4 41.291242599487 557.07006739288
3597	17053440 7582 144561 148780 1684.75 1746 246 0 16.27499961853 2191.5456725359 31994.167500936
3596	17061022 8864 144546 148780 1684.5 1746 247 184.17810058594 487.06164550781 105082.76409912 46759293.90701
3595	17069886 8883 144546 148780 1684.5 1746 247 239.15240478516 486.85000610352 112199.2807312 52033819.014236
vector 3700  IntersectionExampleScenario.node[528].veinsmobility  posx  ETV
vector 3701  IntersectionExampleScenario.node[528].veinsmobility  posy  ETV
vector 3702  IntersectionExampleScenario.node[528].veinsmobility  speed  ETV
vector 3703  IntersectionExampleScenario.node[528].veinsmobility  acceleration  ETV
vector 3704  IntersectionExampleScenario.node[528].veinsmobility  co2emission  ETV
vector 3707  IntersectionExampleScenario.node[529].veinsmobility  posx  ETV
vector 3708  IntersectionExampleScenario.node[529].veinsmobility  posy  ETV
3620	17079324 6343 145698 148929 1702.25 1749 188 0.973 11.200708441096 525.4131465129 2572.7361330744
3619	17085667 6598 145698 148929 1702.25 1749 188 -2.066780090332 2.5 36.304327011108 258.07714439035
3618	17092265 6625 145679 148929 1702 1749 189 2.8879113197327 15.123397827148 2201.5582406521 28636.159750414
3617	17098890 6810 145660 148929 1701.75 1749 190 184.17810058594 486.99819946289 76908.024078369 32993082.760584
3616	17105700 6834 145660 148929 1701.75 1749 190 237.44091796875 486.85000610352 83867.18927002 38063992.631678
vector 3709  IntersectionExampleScenario.node[529].veinsmobility  speed  ETV
vector 3710  IntersectionExampleScenario.node[529].veinsmobility  acceleration  ETV
vector 3711  IntersectionExampleScenario.node[529].veinsmobility  co2emission  ETV
vector 3714  IntersectionExampleScenario.node[530].veinsmobility  posx  ETV
vector 3715  IntersectionExampleScenario.node[530].veinsmobility  posy  ETV
vector 3716  IntersectionExampleScenario.node[530].veinsmobility  speed  ETV
vector 3717  IntersectionExampleScenario.node[530].veinsmobility  acceleration  ETV
vector 3718  IntersectionExampleScenario.node[530].veinsmobility  co2emission  ETV
vector 3721  IntersectionExampleScenario.node[531].veinsmobility  posx  ETV
vector 3722  IntersectionExampleScenario.node[531].veinsmobility  posy  ETV
vector 3723  IntersectionExampleScenario.node[531].veinsmobility  speed  ETV
vector 3724  IntersectionExampleScenario.node[531].veinsmobility  acceleration  ETV
vector 3725  IntersectionExampleScenario.node[531].veinsmobility  co2emission  ETV
3641	17113583 5489 146768 149355 1716.5 1755.5 157 0.973 11.810082123732 515.43055861261 2886.8724378541
3640	17119072 4990 146768 149355 1716.5 1755.5 157 -3.4797992706299 2.5 39.869146347046 288.3537892539
3639	17124062 5377 146749 149355 1716.25 1755.5 158 5.6500000953674 15.875 2188.3650727272 31769.767524
3638	17129439 5700 146730 149355 1716 1755.5 159 184.17810058594 483.14999389648 63186.488616943 26835570.35997
3637	17135139 5683 146730 149355 1716 1755.5 159 486.85000610352 734.2177734375 85471.097869873 46861497.058817
vector 3728  IntersectionExampleScenario.node[532].veinsmobility  posx  ETV
vector 3729  IntersectionExampleScenario.node[532].veinsmobility  posy  ETV
vector 3730  IntersectionExampleScenario.node[532].veinsmobility  speed  ETV
3634	17141054 6664 146185 149528 1708.25 1757.75 199 0.973 11.648172402475 570.70661006834 2922.6942244666
3633	17147718 6415 146185 149528 1708.25 1757.75 199 -7.0929417610168 4 38.341367721558 471.58801686995
3632	17154133 6665 146164 149528 1708 1757.75 200 0 15.64999961853 2209.8158499002 31121.456171218
3631	17160798 7237 146143 149528 1707.75 1757.75 201 483.14999389648 483.14999389648 97113.148773193 46920217.237037
3630	17168035 7208 146143 149528 1707.75 1757.75 201 184.17810058594 732.43377685547 91179.662567139 45506061.702679
vector 3731  IntersectionExampleScenario.node[532].veinsmobility  acceleration  ETV
vector 3732  IntersectionExampleScenario.node[532].veinsmobility  co2emission  ETV
3648	17175412 5678 146942 149633 1718.75 1759 162 0.973 11.36141391502 504.2444307609 2639.5727685498
3647	17181090 5004 146942 149633 1718.75 1759 162 -3.3426399230957 2.5 37.492597579956 274.74819276514
3646	17186094 5545 146922 149633 1718.5 1759 163 5.6500000953674 15.25 2190.4461364746 30708.116953905
3645	17191639 5901 146901 149633 1718.25 1759 164 486.85000610352 734.91148376465 88258.332183838 48452801.943093
3644	17197540 5898 146901 149633 1718.25 1759 164 486.82363891602 785.82187652588 93818.533363342 55431823.889644
vector 3735  IntersectionExampleScenario.node[533].veinsmobility  posx  ETV
vector 3736  IntersectionExampleScenario.node[533].veinsmobility  posy  ETV
vector 3737  IntersectionExampleScenario.node[533].veinsmobility  speed  ETV
vector 3738  IntersectionExampleScenario.node[533].veinsmobility  acceleration  ETV
vector 3739  IntersectionExampleScenario.node[533].veinsmobility  co2emission  ETV
vector 3742  IntersectionExampleScenario.node[534].veinsmobility  posx  ETV
vector 3743  IntersectionExampleScenario.node[534].veinsmobility  posy  ETV
vector 3744  IntersectionExampleScenario.node[534].veinsmobility  speed  ETV
3655	17204071 5753 147129 149943 1721.25 1762.5 166 0.973 11.200708441096 525.17954744084 2944.6942131079
3654	17209824 5396 147129 149943 1721.25 1762.5 166 -3.6780071258545 2.5 35.795072555542 318.27064733591
3653	17215220 5703 147110 149943 1721 1762.5 167 5.6500000953674 15.02499961853 2184.1245293617 29701.662922924
3652	17220923 6040 147091 149943 1720.75 1762.5 168 236.84490966797 483.14999389648 72637.316009521 32369571.212166
3651	17226963 6027 147091 149943 1720.75 1762.5 168 184.17810058594 483.25674438477 66855.168884277 28386664.790354
vector 3745  IntersectionExampleScenario.node[534].veinsmobility  acceleration  ETV
vector 3746  IntersectionExampleScenario.node[534].veinsmobility  co2emission  ETV
3662	17233159 5886 147171 150063 1721.75 1763.75 169 0.973 11.500149403449 552.79434392601 2930.0582298732
3661	17239045 5836 147171 150063 1721.75 1763.75 169 -4.5 2.5 39.438608169556 319.79160391273
3660	17244881 5940 147150 150063 1721.5 1763.75 170 5.6500000953674 15.539161682129 2276.4540319443 31932.913943001
3659	17250821 6141 147129 150063 1721.25 1763.75 171 237.9736328125 483.14999389648 74606.898956299 33477781.434159
3658	17256962 6141 147129 150063 1721.25 1763.75 171 160.43438720703 483.14999389648 66214.296173096 27797361.405667
vector 3749  IntersectionExampleScenario.node[535].veinsmobility  posx  ETV
vector 3750  IntersectionExampleScenario.node[535].veinsmobility  posy  ETV
vector 3751  IntersectionExampleScenario.node[535].veinsmobility  speed  ETV
vector 3752  IntersectionExampleScenario.node[535].veinsmobility  acceleration  ETV
vector 3753  IntersectionExampleScenario.node[535].veinsmobility  co2emission  ETV
vector 3756  IntersectionExampleScenario.node[536].veinsmobility  posx  ETV
vector 3757  IntersectionExampleScenario.node[536].veinsmobility  posy  ETV
vector 3758  IntersectionExampleScenario.node[536].veinsmobility  speed  ETV
vector 3759  IntersectionExampleScenario.node[536].veinsmobility  acceleration  ETV
vector 3760  IntersectionExampleScenario.node[536].veinsmobility  co2emission  ETV
3690	17263905 5528 148436 151354 1740.25 1779.5 158 0.973 11.810082123732 513.07618697094 2873.5446257182
3689	17269433 5195 148436 151354 1740.25 1779.5 158 -3.5405101776123 2.5 39.359884262085 292.23851881406
3688	17274628 5395 148419 151354 1740 1779.5 159 5.6500000953674 15.875 2187.2482848167 31534.332556375
3687	17280023 5751 148401 151354 1739.75 1779.5 160 486.85000610352 785.82187652588 91586.935112 54158924.983227
3686	17285774 5752 148401 151354 1739.75 1779.5 160 236.06903076172 483.14999389648 69191.296417236 30841081.540331
3669	17291526 7257 147317 151399 1723.5 1780.25 228 0.973 12.717865293408 654.60832598601 3661.5041373254
3668	17298783 6848 147317 151399 1723.5 1780.25 228 -8.7099380493164 4 43.773473739624 548.70617124456
3667	17305631 6914 147296 151399 1723.25 1780.25 229 0 17.125 2183.3434917927 32744.964161239
3666	17312545 8255 147275 151399 1723 1780.25 230 184.17810058594 483.36395263672 96936.742645264 42825626.112945
3665	17320800 8198 147275 151399 1723 1780.25 230 486.85000610352 734.49653625488 119610.18386841 63202499.968853
vector 3763  IntersectionExampleScenario.node[537].veinsmobility  posx  ETV
vector 3764  IntersectionExampleScenario.node[537].veinsmobility  posy  ETV
vector 3765  IntersectionExampleScenario.node[537].veinsmobility  speed  ETV
3711	17329230 5548 148959 151800 1749.5 1788.75 158 0.973 11.648172402475 490.30051086847 2628.2899425702
3710	17334778 5189 148959 151800 1749.5 1788.75 158 -3.4391326904297 2.5 38.001859664917 238.01143567294
3709	17339967 5438 148944 151800 1749.25 1788.75 159 5.6500000953674 15.64999961853 2213.7336673737 31719.163289221
3708	17345405 5737 148929 151800 1749 1788.75 160 184.17810058594 486.86328125 63735.650054932 27170688.907872
3707	17351142 5754 148929 151800 1749 1788.75 160 235.29779052734 486.85000610352 69341.010131836 31027688.166183
vector 3766  IntersectionExampleScenario.node[537].veinsmobility  acceleration  ETV
vector 3767  IntersectionExampleScenario.node[537].veinsmobility  co2emission  ETV
vector 3770  IntersectionExampleScenario.node[538].veinsmobility  posx  ETV
vector 3771  IntersectionExampleScenario.node[538].veinsmobility  posy  ETV
vector 3772  IntersectionExampleScenario.node[538].veinsmobility  speed  ETV
vector 3773  IntersectionExampleScenario.node[538].veinsmobility  acceleration  ETV
vector 3774  IntersectionExampleScenario.node[538].veinsmobility  co2emission  ETV
vector 3777  IntersectionExampleScenario.node[539].veinsmobility  posx  ETV
vector 3778  IntersectionExampleScenario.node[539].veinsmobility  posy  ETV
vector 3779  IntersectionExampleScenario.node[539].veinsmobility  speed  ETV
vector 3780  IntersectionExampleScenario.node[539].veinsmobility  acceleration  ETV
vector 3781  IntersectionExampleScenario.node[539].veinsmobility  co2emission  ETV
3676	17357867 7641 148023 151958 1733.5 1792.5 237 0.973 11.450879080643 599.89634729758 2877.980163076
3675	17365508 7267 148023 151958 1733.5 1792.5 237 -7.236358165741 4 37.32285118103 471.68738374078
3674	17372775 7352 148008 151958 1733.25 1792.5 238 0 15.375 2213.1863626242 30971.5981742
3673	17380127 8603 147993 151958 1733 1792.5 239 483.14999389648 483.14999389648 115472.84854126 55790706.067919
3672	17388730 8576 147993 151958 1733 1792.5 239 184.17810058594 733.81198120117 109136.63934326 54066484.097948
3704	17397306 6032 148916 151958 1748.75 1792.5 176 0.973 11.648172402475 544.46166471349 2899.3988552183
3703	17403338 5800 148916 151958 1748.75 1792.5 176 -6.7527532577515 4 37.832105636597 463.99807762372
3702	17409138 5982 148903 151958 1748.5 1792.5 177 0 15.64999961853 2209.1042709351 31003.316920219
3701	17415120 6395 148890 151958 1748.25 1792.5 178 235.13372802734 486.85000610352 78074.648620605 35271579.620608
3700	17421515 6398 148890 151958 1748.25 1792.5 178 483.14999389648 785.82187652588 100499.21004486 58605967.145602
vector 3784  IntersectionExampleScenario.node[540].veinsmobility  posx  ETV
vector 3785  IntersectionExampleScenario.node[540].veinsmobility  posy  ETV
vector 3786  IntersectionExampleScenario.node[540].veinsmobility  speed  ETV
vector 3787  IntersectionExampleScenario.node[540].veinsmobility  acceleration  ETV
vector 3788  IntersectionExampleScenario.node[540].veinsmobility  co2emission  ETV
3683	17428314 7326 148371 152029 1739.25 1793.75 219 0.973 11.200708441096 587.0971060185 2794.785666754
3682	17435640 7576 148371 152029 1739.25 1793.75 219 -4.5 2.5000004768372 39.020376205444 377.39029570012
3681	17443216 7697 148355 152029 1739 1793.75 220 0 15.462874412537 2173.7726795953 29519.051985654
3680	17450913 7949 148338 152029 1738.75 1793.75 221 238.59887695312 483.14999389648 98785.314025879 45165419.390204
3679	17458862 7919 148338 152029 1738.75 1793.75 221 184.17810058594 483.3225402832 91569.364074707 39852769.176495
3718	17466781 5992 149128 152119 1752.25 1795.25 173 0.973 11.648172402475 545.24515064201 2813.874693197
3717	17472773 5799 149128 152119 1752.25 1795.25 173 -4.5 2.5 39.869146347046 340.45906869741
3716	17478572 6239 149111 152119 1752 1795.25 174 4.9103102684021 15.64999961853 2237.9726719856 31486.533836641
3715	17484811 6294 149094 152119 1751.75 1795.25 175 238.17016601562 486.85000610352 77013.9296875 34856459.853979
3714	17491105 6290 149094 152119 1751.75 1795.25 175 483.14999389648 795.46562957764 99671.590057373 58744350.082143
vector 3791  IntersectionExampleScenario.node[541].veinsmobility  posx  ETV
vector 3792  IntersectionExampleScenario.node[541].veinsmobility  posy  ETV
vector 3793  IntersectionExampleScenario.node[541].veinsmobility  speed  ETV
vector 3794  IntersectionExampleScenario.node[541].veinsmobility  acceleration  ETV
vector 3795  IntersectionExampleScenario.node[541].veinsmobility  co2emission  ETV
3725	17497796 5927 149336 152338 1755.25 1798.5 174 0.973 11.200708441096 507.21852730411 2606.8438966423
3724	17503723 5893 149336 152338 1755.25 1798.5 174 -3.5049781799316 2.5 36.134572982788 234.58119747427
3723	17509616 6034 149317 152338 1755 1798.5 175 5.6500000953674 15.02499961853 2272.091673851 30469.475847636
3722	17515650 6325 149298 152338 1754.75 1798.5 176 238.1025390625 486.85000610352 77063.371673584 34750510.008004
3721	17521975 6322 149298 152338 1754.75 1798.5 176 483.1428527832 803.41876220703 101610.12356567 60760347.314236
3697	17528297 7197 148635 152438 1743.5 1800 227 0.973 11.200708441096 563.67707971439 2721.7546719531
3696	17535494 6828 148635 152438 1743.5 1800 227 -8.2822999954224 4 36.643835067749 486.34368499484
3695	17542322 6876 148620 152438 1743.25 1800 228 0 15.186984062195 1920.4085204601 26366.407536702
3694	17549198 8231 148605 152438 1743 1800 229 320.45709228516 797.07032012939 123702.51592255 69909157.109499
3693	17557429 8242 148605 152438 1743 1800 229 483.14999389648 483.14999389648 110641.34860229 53456366.901897
3732	17565671 5792 149549 152438 1758 1800 169 0.973 11.200708441096 466.97589231819 2282.9510049403
3731	17571463 5839 149549 152438 1758 1800 169 -2.7161140441895 2.5 35.455564498901 179.1513771863
3730	17577302 5862 149528 152438 1757.75 1800 170 5.6500000953674 15.02499961853 2242.659201622 30350.744071199
3729	17583164 6130 149507 152438 1757.5 1800 171 250.96325683594 486.85000610352 75400.361206055 34121190.253489
3728	17589294 6141 149507 152438 1757.5 1800 171 483.14999389648 808.84376525879 99520.617073059 60083454.013913
3739	17595435 4897 149826 152438 1761.25 1800 156 0.973 11.200708441096 361.58457300658 1575.2474302176
3738	17600332 4414 149826 152438 1761.25 1800 156 -8.487024307251 4 8.3999996185303 401.13817737312
3737	17604746 4721 149803 152438 1761 1800 157 0 15.02499961853 1227.392865181 16286.149624494
3736	17609467 5668 149780 152438 1760.75 1800 158 184.17810058594 483.36395263672 61597.692962646 25608357.344516
3735	17615135 5678 149780 152438 1760.75 1800 158 486.85000610352 498.5234375 76974.204528809 37500541.028318
3746	17620813 5180 149968 152438 1762.75 1800 150 0.973 11.810082123732 487.94923914539 2733.4776178037
3745	17625993 5204 149968 152438 1762.75 1800 150 -3.7130432128906 2.5 40.038900375366 273.39389185032
3744	17631197 5103 149943 152438 1762.5 1800 151 5.6500000953674 15.875 2069.010594368 29786.306351278
3743	17636300 5470 149918 152438 1762.25 1800 152 486.85000610352 692.33480834961 79606.415008545 42247366.872721
3742	17641770 5457 149918 152438 1762.25 1800 152 486.85000610352 797.96698760986 88721.043540955 53604182.677543
3753	17647227 3712 150683 152438 1771 1800 117 0.973 11.648172402475 291.05286122345 1466.2882295017
3752	17650939 3657 150683 152438 1771 1800 117 -7.7750906944275 2.5 -22.60000038147 320.25560670492
3751	17654596 3809 150660 152438 1770.75 1800 118 0 15.64999961853 1146.6268433332 16088.568924024
3750	17658405 4283 150637 152438 1770.5 1800 119 483.14999389648 483.14999389648 57494.849273682 27778636.075658
3749	17662688 4262 150637 152438 1770.5 1800 119 184.17810058594 471.60000610352 43303.755889893 16993402.704529
3760	17666950 2856 151255 152438 1778 1800 89 0.973 11.648172402475 244.96135087859 1379.1152705539
3759	17669806 3195 151255 152438 1778 1800 89 -2.4063339233398 2.5 -7.7882223129272 170.54552596718
3758	17673001 3224 151238 152438 1777.75 1800 90 3.7029445171356 15.64999961853 1069.2332291603 14133.827332777
3757	17676225 3275 151221 152438 1777.5 1800 91 483.14999389648 483.14999389648 43966.64944458 21242486.410798
3756	17679500 3240 151221 152438 1777.5 1800 91 184.17810058594 450.39453125 29675.584625244 10390310.727065
3767	17682740 1614 151811 152438 1789 1800 45 1.7729555826186 11.648172402475 196.48331693916 1322.7262541146
3766	17684354 1552 151811 152438 1789 1800 45 -0.11759185791016 2.5 39.529741287231 100.0315972405
3765	17685906 1638 151800 152438 1788.75 1800 46 5.6500000953674 15.64999961853 631.84251117706 9094.9464713016
3764	17687544 1691 151789 152438 1788.5 1800 47 483.14999389648 483.14999389648 22708.049713135 10971394.080302
3763	17689235 1674 151789 152438 1788.5 1800 47 184.17810058594 336.93371582031 11797.074462891 3070006.2806948
3774	17690909 1282 151899 152438 1791.25 1800 36 0.973 11.200708441096 161.70899309859 1128.3350282604
3773	17692191 1187 151899 152438 1791.25 1800 36 -0.38379669189453 2.5 35.968469619751 94.086671577872
3772	17693378 1318 151888 152438 1791 1800 37 5.6500000953674 15.02499961853 474.01394462585 6378.1219007658
3771	17694696 1343 151877 152438 1790.75 1800 38 184.17810058594 297.79437255859 8862.4311523438 2116125.1121973
3770	17696039 1367 151877 152438 1790.75 1800 38 486.85000610352 486.85000610352 18500.300231934 9006871.2808337
3781	17697406 1092 151958 152438 1792.5 1800 31 0.973 11.200708441096 150.71005254367 1104.777168255
3780	17698498 990 151958 152438 1792.5 1800 31 -0.42623138427734 2.5 35.812154769897 94.165205101195
3779	17699488 1140 151945 152438 1792.25 1800 32 5.6500000953674 15.02499961853 400.24614048004 5289.8127831794
3778	17700628 1186 151932 152438 1792 1800 33 486.85000610352 486.85000610352 16066.050201416 7821756.6386188
3777	17701814 1186 151932 152438 1792 1800 33 690.63165283203 785.82187652588 24600.748634338 18369439.149502
3788	17703000 966 152014 152438 1793.5 1800 27 1.986667772344 11.200708441096 147.71540655992 1105.7544187105
3787	17703966 844 152014 152438 1793.5 1800 27 -0.044288635253906 2.5 37.328454971313 93.754469401163
3786	17704810 998 151999 152438 1793.25 1800 28 5.6500000953674 15.02499961853 345.2971830368 4539.5525367909
3785	17705808 1042 151984 152438 1793 1800 29 486.85000610352 486.85000610352 14118.650177002 6873664.9248468
3784	17706850 1038 151984 152438 1793 1800 29 726.66325378418 807.99687957764 22455.589653015 17407313.464053
3795	17707888 607 152168 152438 1796 1800 17 1.9337556822354 11.648172402475 136.18429275808 1192.5930164145
3794	17708495 433 152168 152438 1796 1800 17 -0.075153350830078 2.5 39.924844741821 100.0056384894
3793	17708928 637 152151 152438 1795.75 1800 18 5.6500000953674 15.64999961853 196.68120670319 2331.8921531049
3792	17709565 683 152134 152438 1795.5 1800 19 741.88751220703 785.82187652588 14598.956413269 11220964.28663
3791	17710248 683 152134 152438 1795.5 1800 19 483.14999389648 483.14999389648 9179.8498840332 4435244.4154413
0	17710931 510 0 152437 0 1800 31 0 23 453 7183
1	17711441 521 0 152437 0 1800 31 0 173 2577 297563
