file 27252851 1591450286                                        
version 2
run nodebug-6-20200606-09:27:28-21192
attr configname nodebug
attr datetime 20200606-09:27:28
attr experiment nodebug
attr inifile omnetpp.ini
attr iterationvars ""
attr iterationvars2 $repetition=6
attr measurement ""
attr network "\"org.car2x.veins.modules.application.ExtTraCIScenarioManagerLaunchd.IntersectionExampleScenario\""
attr processid 21192
attr repetition 6
attr replication #6
attr resultdir results
attr runnumber 6
attr seedset 6
param **.coreDebug false
param **.debug false
param *.**.nic.mac1609_4.bitrate 18Mbps
param *.**.nic.mac1609_4.txPower 20mW
param *.**.nic.mac1609_4.useServiceChannel false
param *.**.nic.phy80211p.analogueModels "xmldoc(\"config.xml\")"
param *.**.nic.phy80211p.decider "xmldoc(\"config.xml\")"
param *.**.nic.phy80211p.sensitivity -89dBm
param *.**.nic.phy80211p.thermalNoise -110dBm
param *.**.nic.phy80211p.usePropagationDelay true
param *.**.nic.phy80211p.useThermalNoise true
param *.annotations.draw false
param *.connectionManager.alpha 2.0
param *.connectionManager.carrierFrequency "5.890e9 Hz"
param *.connectionManager.pMax 20mW
param *.connectionManager.sat -89dBm
param *.connectionManager.sendDirect true
param *.manager.autoShutdown true
param *.manager.host "\"localhost\""
param *.manager.launchConfig "xmldoc(\"paramics.launchd.xml\")"
param *.manager.margin 25
param *.manager.moduleDisplayString "\"\""
param *.manager.moduleName "\"node\""
param *.manager.moduleType "\"org.car2x.veins.nodes.Car\""
param *.manager.port 9999
param *.manager.updateInterval 250ms
param *.node[*0].veinsmobility.accidentCount 0
param *.node[*0].veinsmobility.accidentDuration 30s
param *.node[*0].veinsmobility.accidentStart 75s
param *.node[*].appl.LiderSelectZoneRadio 55.0
param *.node[*].appl.ShareDataZoneRadio 110.0
param *.node[*].appl.TiempoSemaforo 30.0
param *.node[*].appl.beaconInterval 1s
param *.node[*].appl.beaconPriority 3
param *.node[*].appl.dataOnSch false
param *.node[*].appl.dataPriority 2
param *.node[*].appl.debug false
param *.node[*].appl.headerLength "256 bit"
param *.node[*].appl.maxOffset 0.005s
param *.node[*].appl.sendBeacons false
param *.node[*].appl.sendData true
param *.node[*].applType "\"Dummy\""
param *.node[*].mobilityType "\"TraCIMobility\""
param *.node[*].mobilityType.debug true
param *.node[*].veinsmobility.x 0
param *.node[*].veinsmobility.y 0
param *.node[*].veinsmobility.z 1.895
param *.node[*].veinsmobilityType "\"org.car2x.veins.modules.mobility.traci.TraCIMobility\""
param *.node[*].veinsmobilityType.debug true
param *.playgroundSizeX 8500m
param *.playgroundSizeY 8500m
param *.playgroundSizeZ 50m
param *.world.use2D false
param *.world.useTorus false

vector 5332  IntersectionExampleScenario.manager  vehiclesinsim  ETV
attr type  int
vector 5333  IntersectionExampleScenario.manager  realtime  ETV
attr type  int
attr unit  s
vector 5336  IntersectionExampleScenario.node[0].veinsmobility  posx  ETV
vector 5337  IntersectionExampleScenario.node[0].veinsmobility  posy  ETV
vector 5338  IntersectionExampleScenario.node[0].veinsmobility  speed  ETV
vector 5339  IntersectionExampleScenario.node[0].veinsmobility  acceleration  ETV
vector 5340  IntersectionExampleScenario.node[0].veinsmobility  co2emission  ETV
vector 5343  IntersectionExampleScenario.node[1].veinsmobility  posx  ETV
vector 5344  IntersectionExampleScenario.node[1].veinsmobility  posy  ETV
vector 5345  IntersectionExampleScenario.node[1].veinsmobility  speed  ETV
vector 5346  IntersectionExampleScenario.node[1].veinsmobility  acceleration  ETV
vector 5347  IntersectionExampleScenario.node[1].veinsmobility  co2emission  ETV
vector 5350  IntersectionExampleScenario.node[2].veinsmobility  posx  ETV
vector 5351  IntersectionExampleScenario.node[2].veinsmobility  posy  ETV
vector 5352  IntersectionExampleScenario.node[2].veinsmobility  speed  ETV
vector 5353  IntersectionExampleScenario.node[2].veinsmobility  acceleration  ETV
vector 5354  IntersectionExampleScenario.node[2].veinsmobility  co2emission  ETV
vector 5357  IntersectionExampleScenario.node[3].veinsmobility  posx  ETV
vector 5358  IntersectionExampleScenario.node[3].veinsmobility  posy  ETV
vector 5364  IntersectionExampleScenario.node[4].veinsmobility  posx  ETV
vector 5365  IntersectionExampleScenario.node[4].veinsmobility  posy  ETV
vector 5359  IntersectionExampleScenario.node[3].veinsmobility  speed  ETV
vector 5360  IntersectionExampleScenario.node[3].veinsmobility  acceleration  ETV
vector 5361  IntersectionExampleScenario.node[3].veinsmobility  co2emission  ETV
vector 5366  IntersectionExampleScenario.node[4].veinsmobility  speed  ETV
vector 5367  IntersectionExampleScenario.node[4].veinsmobility  acceleration  ETV
vector 5368  IntersectionExampleScenario.node[4].veinsmobility  co2emission  ETV
vector 5371  IntersectionExampleScenario.node[5].veinsmobility  posx  ETV
vector 5372  IntersectionExampleScenario.node[5].veinsmobility  posy  ETV
vector 5373  IntersectionExampleScenario.node[5].veinsmobility  speed  ETV
vector 5374  IntersectionExampleScenario.node[5].veinsmobility  acceleration  ETV
vector 5375  IntersectionExampleScenario.node[5].veinsmobility  co2emission  ETV
vector 5378  IntersectionExampleScenario.node[6].veinsmobility  posx  ETV
vector 5379  IntersectionExampleScenario.node[6].veinsmobility  posy  ETV
vector 5380  IntersectionExampleScenario.node[6].veinsmobility  speed  ETV
vector 5381  IntersectionExampleScenario.node[6].veinsmobility  acceleration  ETV
vector 5382  IntersectionExampleScenario.node[6].veinsmobility  co2emission  ETV
vector 5385  IntersectionExampleScenario.node[7].veinsmobility  posx  ETV
vector 5386  IntersectionExampleScenario.node[7].veinsmobility  posy  ETV
vector 5387  IntersectionExampleScenario.node[7].veinsmobility  speed  ETV
vector 5388  IntersectionExampleScenario.node[7].veinsmobility  acceleration  ETV
vector 5389  IntersectionExampleScenario.node[7].veinsmobility  co2emission  ETV
vector 5392  IntersectionExampleScenario.node[8].veinsmobility  posx  ETV
vector 5393  IntersectionExampleScenario.node[8].veinsmobility  posy  ETV
vector 5394  IntersectionExampleScenario.node[8].veinsmobility  speed  ETV
vector 5395  IntersectionExampleScenario.node[8].veinsmobility  acceleration  ETV
vector 5396  IntersectionExampleScenario.node[8].veinsmobility  co2emission  ETV
vector 5399  IntersectionExampleScenario.node[9].veinsmobility  posx  ETV
vector 5400  IntersectionExampleScenario.node[9].veinsmobility  posy  ETV
vector 5401  IntersectionExampleScenario.node[9].veinsmobility  speed  ETV
vector 5406  IntersectionExampleScenario.node[10].veinsmobility  posx  ETV
vector 5407  IntersectionExampleScenario.node[10].veinsmobility  posy  ETV
vector 5402  IntersectionExampleScenario.node[9].veinsmobility  acceleration  ETV
vector 5403  IntersectionExampleScenario.node[9].veinsmobility  co2emission  ETV
vector 5408  IntersectionExampleScenario.node[10].veinsmobility  speed  ETV
vector 5409  IntersectionExampleScenario.node[10].veinsmobility  acceleration  ETV
vector 5410  IntersectionExampleScenario.node[10].veinsmobility  co2emission  ETV
vector 5413  IntersectionExampleScenario.node[11].veinsmobility  posx  ETV
vector 5414  IntersectionExampleScenario.node[11].veinsmobility  posy  ETV
vector 5415  IntersectionExampleScenario.node[11].veinsmobility  speed  ETV
vector 5416  IntersectionExampleScenario.node[11].veinsmobility  acceleration  ETV
vector 5417  IntersectionExampleScenario.node[11].veinsmobility  co2emission  ETV
vector 5420  IntersectionExampleScenario.node[12].veinsmobility  posx  ETV
vector 5421  IntersectionExampleScenario.node[12].veinsmobility  posy  ETV
vector 5422  IntersectionExampleScenario.node[12].veinsmobility  speed  ETV
vector 5427  IntersectionExampleScenario.node[13].veinsmobility  posx  ETV
vector 5428  IntersectionExampleScenario.node[13].veinsmobility  posy  ETV
vector 5423  IntersectionExampleScenario.node[12].veinsmobility  acceleration  ETV
vector 5424  IntersectionExampleScenario.node[12].veinsmobility  co2emission  ETV
vector 5429  IntersectionExampleScenario.node[13].veinsmobility  speed  ETV
vector 5430  IntersectionExampleScenario.node[13].veinsmobility  acceleration  ETV
vector 5431  IntersectionExampleScenario.node[13].veinsmobility  co2emission  ETV
vector 5434  IntersectionExampleScenario.node[14].veinsmobility  posx  ETV
vector 5435  IntersectionExampleScenario.node[14].veinsmobility  posy  ETV
vector 5436  IntersectionExampleScenario.node[14].veinsmobility  speed  ETV
vector 5437  IntersectionExampleScenario.node[14].veinsmobility  acceleration  ETV
vector 5438  IntersectionExampleScenario.node[14].veinsmobility  co2emission  ETV
vector 5441  IntersectionExampleScenario.node[15].veinsmobility  posx  ETV
vector 5442  IntersectionExampleScenario.node[15].veinsmobility  posy  ETV
vector 5443  IntersectionExampleScenario.node[15].veinsmobility  speed  ETV
vector 5444  IntersectionExampleScenario.node[15].veinsmobility  acceleration  ETV
vector 5445  IntersectionExampleScenario.node[15].veinsmobility  co2emission  ETV
vector 5448  IntersectionExampleScenario.node[16].veinsmobility  posx  ETV
vector 5449  IntersectionExampleScenario.node[16].veinsmobility  posy  ETV
vector 5450  IntersectionExampleScenario.node[16].veinsmobility  speed  ETV
vector 5451  IntersectionExampleScenario.node[16].veinsmobility  acceleration  ETV
vector 5452  IntersectionExampleScenario.node[16].veinsmobility  co2emission  ETV
5354	9610 4876 149 2836 10.5 50.25 160 0.973 11.648172402475 501.77898193398 2723.728558652
5353	14486 4568 149 2836 10.5 50.25 160 -4.197338104248 2.5 37.662351608276 286.19378619068
5352	19054 4758 142 2836 10.25 50.25 161 5.6500000953674 15.64999961853 2175.8626356125 30689.56543586
5351	23812 5107 135 2836 10 50.25 162 238.67572021484 483.14999389648 70115.64630127 31261411.3044
5350	28919 5087 135 2836 10 50.25 162 184.17810058594 483.14999389648 64371.070922852 27324271.236985
vector 5455  IntersectionExampleScenario.node[17].veinsmobility  posx  ETV
vector 5456  IntersectionExampleScenario.node[17].veinsmobility  posy  ETV
vector 5457  IntersectionExampleScenario.node[17].veinsmobility  speed  ETV
vector 5458  IntersectionExampleScenario.node[17].veinsmobility  acceleration  ETV
vector 5459  IntersectionExampleScenario.node[17].veinsmobility  co2emission  ETV
vector 5462  IntersectionExampleScenario.node[18].veinsmobility  posx  ETV
vector 5463  IntersectionExampleScenario.node[18].veinsmobility  posy  ETV
vector 5464  IntersectionExampleScenario.node[18].veinsmobility  speed  ETV
vector 5465  IntersectionExampleScenario.node[18].veinsmobility  acceleration  ETV
vector 5466  IntersectionExampleScenario.node[18].veinsmobility  co2emission  ETV
vector 5469  IntersectionExampleScenario.node[19].veinsmobility  posx  ETV
vector 5470  IntersectionExampleScenario.node[19].veinsmobility  posy  ETV
5361	34950 4893 281 3271 15 54.5 159 0.973 11.450879080643 484.54699910604 2513.7788433484
5360	39843 4581 281 3271 15 54.5 159 -3.6680488586426 2.5 37.32285118103 231.25181586063
5359	44424 4784 270 3271 14.75 54.5 160 5.6500000953674 15.375 2207.3131866455 31303.366929459
5358	49208 5082 261 3271 14.5 54.5 161 483.14999389648 733.04167175293 86321.082931519 47250621.337297
5357	54290 5067 261 3271 14.5 54.5 161 184.17810058594 486.85000610352 64096.311584473 27309429.769664
vector 5471  IntersectionExampleScenario.node[19].veinsmobility  speed  ETV
vector 5472  IntersectionExampleScenario.node[19].veinsmobility  acceleration  ETV
vector 5473  IntersectionExampleScenario.node[19].veinsmobility  co2emission  ETV
5340	59601 6007 13 3416 2 55.75 216 0.973 12.099024792222 606.03265660475 3220.3685679084
5339	65608 5347 13 3416 2 55.75 216 -9.4888134002686 4 40.887662887573 530.06788007151
5338	70955 5709 10 3416 1.75 55.75 217 0 16.27499961853 2180.4144985676 31701.827442564
5337	76664 6803 7 3416 1.5 55.75 218 486.63604736328 785.82187652588 120349.65650177 68388927.912826
5336	83467 6736 7 3416 1.5 55.75 218 236.62127685547 483.14999389648 97431.026550293 44550568.01879
vector 5476  IntersectionExampleScenario.node[20].veinsmobility  posx  ETV
vector 5477  IntersectionExampleScenario.node[20].veinsmobility  posy  ETV
vector 5478  IntersectionExampleScenario.node[20].veinsmobility  speed  ETV
vector 5479  IntersectionExampleScenario.node[20].veinsmobility  acceleration  ETV
vector 5480  IntersectionExampleScenario.node[20].veinsmobility  co2emission  ETV
5347	90599 5813 80 3569 7.25 57 200 0.973 11.200708441096 549.71412624929 2648.525818924
5346	96412 5176 80 3569 7.25 57 200 -8.6544380187988 4 35.795072555542 473.04946335389
5345	101588 5630 75 3569 7 57 201 0 15.02499961853 2185.8262877464 29680.28250981
5344	107218 6341 70 3569 6.75 57 202 184.17810058594 483.36395263672 82968.701812744 36015713.490459
5343	113559 6300 70 3569 6.75 57 202 486.85000610352 735.56745910645 107033.17919922 57777472.812918
vector 5483  IntersectionExampleScenario.node[21].veinsmobility  posx  ETV
vector 5484  IntersectionExampleScenario.node[21].veinsmobility  posy  ETV
vector 5485  IntersectionExampleScenario.node[21].veinsmobility  speed  ETV
vector 5486  IntersectionExampleScenario.node[21].veinsmobility  acceleration  ETV
vector 5487  IntersectionExampleScenario.node[21].veinsmobility  co2emission  ETV
vector 5490  IntersectionExampleScenario.node[22].veinsmobility  posx  ETV
vector 5491  IntersectionExampleScenario.node[22].veinsmobility  posy  ETV
vector 5492  IntersectionExampleScenario.node[22].veinsmobility  speed  ETV
vector 5493  IntersectionExampleScenario.node[22].veinsmobility  acceleration  ETV
vector 5494  IntersectionExampleScenario.node[22].veinsmobility  co2emission  ETV
5368	120651 5420 292 4040 15.25 60.5 182 0.973 10.916047529558 511.11839085636 2532.5599065676
5367	126071 5377 292 4040 15.25 60.5 182 -2.8292808532715 2.5 33.927785873413 273.02618379043
5366	131448 5504 281 4040 15 60.5 183 5.4065451622009 14.625 2182.3555440903 27705.299609659
5365	136952 5812 270 4040 14.75 60.5 184 184.17810058594 483.14999389648 73719.045532227 31366631.763061
5364	142764 5828 270 4040 14.75 60.5 184 486.85000610352 732.79898071289 98337.075958252 53573646.357707
vector 5497  IntersectionExampleScenario.node[23].veinsmobility  posx  ETV
vector 5498  IntersectionExampleScenario.node[23].veinsmobility  posy  ETV
vector 5499  IntersectionExampleScenario.node[23].veinsmobility  speed  ETV
vector 5500  IntersectionExampleScenario.node[23].veinsmobility  acceleration  ETV
vector 5501  IntersectionExampleScenario.node[23].veinsmobility  co2emission  ETV
vector 5504  IntersectionExampleScenario.node[24].veinsmobility  posx  ETV
vector 5505  IntersectionExampleScenario.node[24].veinsmobility  posy  ETV
vector 5506  IntersectionExampleScenario.node[24].veinsmobility  speed  ETV
vector 5507  IntersectionExampleScenario.node[24].veinsmobility  acceleration  ETV
vector 5508  IntersectionExampleScenario.node[24].veinsmobility  co2emission  ETV
vector 5511  IntersectionExampleScenario.node[25].veinsmobility  posx  ETV
vector 5512  IntersectionExampleScenario.node[25].veinsmobility  posy  ETV
5389	149536 5092 751 4720 24 65 165 0.973 11.200708441096 489.24583359627 2471.5767355219
5388	154628 4586 751 4720 24 65 165 -3.2952842712402 2.5 35.625318527222 252.82269031127
5387	159214 4989 734 4720 23.75 65 166 5.6500000953674 15.02499961853 2181.7937364578 29821.532476815
5386	164203 5320 717 4720 23.5 65 167 486.71420288086 785.82187652588 95522.59311676 56422413.073475
5385	169523 5317 717 4720 23.5 65 167 237.38464355469 483.14999389648 72167.808288574 32144133.077836
vector 5513  IntersectionExampleScenario.node[25].veinsmobility  speed  ETV
vector 5514  IntersectionExampleScenario.node[25].veinsmobility  acceleration  ETV
vector 5515  IntersectionExampleScenario.node[25].veinsmobility  co2emission  ETV
vector 5518  IntersectionExampleScenario.node[26].veinsmobility  posx  ETV
vector 5519  IntersectionExampleScenario.node[26].veinsmobility  posy  ETV
vector 5520  IntersectionExampleScenario.node[26].veinsmobility  speed  ETV
vector 5521  IntersectionExampleScenario.node[26].veinsmobility  acceleration  ETV
vector 5522  IntersectionExampleScenario.node[26].veinsmobility  co2emission  ETV
vector 5525  IntersectionExampleScenario.node[27].veinsmobility  posx  ETV
vector 5526  IntersectionExampleScenario.node[27].veinsmobility  posy  ETV
vector 5527  IntersectionExampleScenario.node[27].veinsmobility  speed  ETV
vector 5532  IntersectionExampleScenario.node[28].veinsmobility  posx  ETV
vector 5533  IntersectionExampleScenario.node[28].veinsmobility  posy  ETV
vector 5528  IntersectionExampleScenario.node[27].veinsmobility  acceleration  ETV
vector 5529  IntersectionExampleScenario.node[27].veinsmobility  co2emission  ETV
vector 5534  IntersectionExampleScenario.node[28].veinsmobility  speed  ETV
vector 5535  IntersectionExampleScenario.node[28].veinsmobility  acceleration  ETV
vector 5536  IntersectionExampleScenario.node[28].veinsmobility  co2emission  ETV
vector 5539  IntersectionExampleScenario.node[29].veinsmobility  posx  ETV
vector 5540  IntersectionExampleScenario.node[29].veinsmobility  posy  ETV
vector 5541  IntersectionExampleScenario.node[29].veinsmobility  speed  ETV
vector 5542  IntersectionExampleScenario.node[29].veinsmobility  acceleration  ETV
vector 5543  IntersectionExampleScenario.node[29].veinsmobility  co2emission  ETV
vector 5546  IntersectionExampleScenario.node[30].veinsmobility  posx  ETV
vector 5547  IntersectionExampleScenario.node[30].veinsmobility  posy  ETV
vector 5548  IntersectionExampleScenario.node[30].veinsmobility  speed  ETV
vector 5549  IntersectionExampleScenario.node[30].veinsmobility  acceleration  ETV
vector 5550  IntersectionExampleScenario.node[30].veinsmobility  co2emission  ETV
vector 5553  IntersectionExampleScenario.node[31].veinsmobility  posx  ETV
vector 5554  IntersectionExampleScenario.node[31].veinsmobility  posy  ETV
vector 5555  IntersectionExampleScenario.node[31].veinsmobility  speed  ETV
vector 5556  IntersectionExampleScenario.node[31].veinsmobility  acceleration  ETV
vector 5557  IntersectionExampleScenario.node[31].veinsmobility  co2emission  ETV
5375	177460 6910 494 6979 19.75 82.25 251 0.973 11.810082123732 621.25807564684 2997.9546312241
5374	184370 6525 494 6979 19.75 82.25 251 -7.3625249862671 4 38.511121749878 474.57230323742
5373	190895 6513 481 6979 19.5 82.25 252 0 15.875 2181.6341781616 30751.875972564
5372	197408 7985 468 6979 19.25 82.25 253 235.74822998047 483.14999389648 114008.75460815 52461464.667459
5371	205393 8033 468 6979 19.25 82.25 253 184.17810058594 483.36395263672 107324.39859009 47589535.655634
5396	213426 6271 1044 7012 28.25 82.5 218 0.973 11.450879080643 578.88210967507 2849.2875352928
5395	219697 5856 1044 7012 28.25 82.5 218 -8.0326452255249 4 36.643835067749 490.16122485708
5394	225553 6052 1025 7012 28 82.5 219 0 15.375 2203.4863238335 30589.07768705
5393	231605 7040 1006 7012 27.75 82.5 220 486.85000610352 486.85000610352 107107.00134277 52145044.257458
5392	238645 7028 1006 7012 27.75 82.5 220 238.44940185547 785.82187652588 113371.70001984 62635266.646767
5382	245673 7314 537 7075 20.5 83 251 0.973 11.990504229548 641.99595602101 3101.506212815
5381	252987 6935 537 7075 20.5 83 251 -4.5 2.5 39.529638290405 471.98793847783
5380	259922 7209 522 7075 20.25 83 252 0 16.125 2308.0784223676 32866.751522104
5379	267131 8063 507 7075 20 83 253 483.14999389648 483.14999389648 122236.94845581 59058780.90035
5378	275194 8017 507 7075 20 83 253 161.1796875 733.00660705566 112870.66090393 55039807.001856
5417	283211 5768 1595 7137 35.25 83.5 194 0.973 11.810082123732 559.9402646056 2922.3584645818
5416	288979 5860 1595 7137 35.25 83.5 194 -4.2477035522461 2.5 40.038900375366 393.64121224101
5415	294839 5952 1572 7137 35 83.5 195 0 15.875 2071.1277890578 28776.742581336
5414	300791 6265 1549 7137 34.75 83.5 196 486.85000610352 734.85572814941 103506.37362671 55659351.617172
5413	307056 6246 1549 7137 34.75 83.5 196 486.85000610352 756.11563110352 107671.83359528 60569773.287282
vector 5560  IntersectionExampleScenario.node[32].veinsmobility  posx  ETV
vector 5561  IntersectionExampleScenario.node[32].veinsmobility  posy  ETV
5403	313454 6155 1465 7438 33.75 86 210 0.973 11.810082123732 580.91446248012 2874.6466874478
5402	319609 6487 1465 7438 33.75 86 210 -4.5 2.5 38.680875778198 391.16670248603
5401	326096 6421 1445 7438 33.5 86 211 1.2933920621872 15.875 2178.1839437485 27999.508469303
5400	332517 6761 1424 7438 33.25 86 212 486.85000610352 732.0705871582 111285.76000977 59425233.853335
5399	339278 6767 1424 7438 33.25 86 212 486.80563354492 785.82187652588 120304.97355652 70301602.459922
vector 5562  IntersectionExampleScenario.node[32].veinsmobility  speed  ETV
vector 5563  IntersectionExampleScenario.node[32].veinsmobility  acceleration  ETV
vector 5564  IntersectionExampleScenario.node[32].veinsmobility  co2emission  ETV
5431	346289 5209 2271 7531 43.75 86.75 173 0.973 11.36141391502 550.03502239026 3079.1212799491
5430	351498 4996 2271 7531 43.75 86.75 173 -2.9734878540039 2.5 37.15309715271 344.29725910014
5429	356494 5246 2252 7531 43.5 86.75 174 5.6500000953674 15.25 2186.8376102448 29134.644895498
5428	361740 5587 2233 7531 43.25 86.75 175 236.04949951172 483.14999389648 76156.541595459 34118119.055063
5427	367327 5579 2233 7531 43.25 86.75 175 184.17810058594 483.14999389648 69861.400695801 29661390.537219
vector 5567  IntersectionExampleScenario.node[33].veinsmobility  posx  ETV
vector 5568  IntersectionExampleScenario.node[33].veinsmobility  posy  ETV
vector 5569  IntersectionExampleScenario.node[33].veinsmobility  speed  ETV
vector 5570  IntersectionExampleScenario.node[33].veinsmobility  acceleration  ETV
vector 5571  IntersectionExampleScenario.node[33].veinsmobility  co2emission  ETV
5410	373302 6634 1507 7807 34.25 89 220 0.973 11.36141391502 579.92343191141 2636.3122475729
5409	379936 6730 1507 7807 34.25 89 220 -4.5 2.5 36.98334312439 388.74963967165
5408	386666 6730 1486 7807 34 89 221 0 15.25 2282.4482712746 28535.304923437
5407	393396 7096 1465 7807 33.75 89 222 486.85000610352 733.7798614502 116487.89990234 62185160.904468
5406	400492 7086 1465 7807 33.75 89 222 486.81427001953 809.56562805176 127902.96824646 76164495.942192
vector 5574  IntersectionExampleScenario.node[34].veinsmobility  posx  ETV
vector 5575  IntersectionExampleScenario.node[34].veinsmobility  posy  ETV
vector 5576  IntersectionExampleScenario.node[34].veinsmobility  speed  ETV
vector 5577  IntersectionExampleScenario.node[34].veinsmobility  acceleration  ETV
vector 5578  IntersectionExampleScenario.node[34].veinsmobility  co2emission  ETV
5438	407974 5374 2389 8048 45.25 91 184 0.97223939240464 11.648172402475 530.5448255007 2848.4637582356
5437	413348 5399 2389 8048 45.25 91 184 -2.4242172241211 2.5 38.680875778198 268.1556714997
5436	418747 5591 2368 8048 45 91 185 5.6500000953674 15.64999961853 2192.8588690758 28472.526845945
5435	424338 5940 2347 8048 44.75 91 186 486.85000610352 735.24092102051 98841.466400146 53522585.324405
5434	430278 5946 2347 8048 44.75 91 186 486.85000610352 785.82187652588 105867.22821808 62033786.055021
5459	436224 4999 2909 8110 51 91.5 163 0.973 11.36141391502 518.34808188469 2935.5699593464
5458	441223 4804 2909 8110 51 91.5 163 -3.2937335968018 2.5 37.15309715271 297.31270804295
5457	446027 4930 2884 8110 50.75 91.5 164 5.6500000953674 15.25 2186.9570269585 30399.004920811
5456	450957 5268 2859 8110 50.5 91.5 165 235.91772460938 483.14999389648 71315.605255127 31776871.45577
5455	456225 5258 2859 8110 50.5 91.5 165 184.17810058594 483.14999389648 65601.580963135 27848397.357033
vector 5581  IntersectionExampleScenario.node[35].veinsmobility  posx  ETV
vector 5582  IntersectionExampleScenario.node[35].veinsmobility  posy  ETV
vector 5588  IntersectionExampleScenario.node[36].veinsmobility  posx  ETV
vector 5589  IntersectionExampleScenario.node[36].veinsmobility  posy  ETV
vector 5583  IntersectionExampleScenario.node[35].veinsmobility  speed  ETV
vector 5584  IntersectionExampleScenario.node[35].veinsmobility  acceleration  ETV
vector 5585  IntersectionExampleScenario.node[35].veinsmobility  co2emission  ETV
vector 5590  IntersectionExampleScenario.node[36].veinsmobility  speed  ETV
vector 5591  IntersectionExampleScenario.node[36].veinsmobility  acceleration  ETV
vector 5592  IntersectionExampleScenario.node[36].veinsmobility  co2emission  ETV
vector 5595  IntersectionExampleScenario.node[37].veinsmobility  posx  ETV
vector 5596  IntersectionExampleScenario.node[37].veinsmobility  posy  ETV
vector 5597  IntersectionExampleScenario.node[37].veinsmobility  speed  ETV
vector 5598  IntersectionExampleScenario.node[37].veinsmobility  acceleration  ETV
vector 5599  IntersectionExampleScenario.node[37].veinsmobility  co2emission  ETV
5473	462671 5004 3329 8664 55 95.5 163 0.973 11.023647217611 453.66138638792 2164.1328904392
5472	467675 4829 3329 8664 55 95.5 163 -3.2657775878906 2.5 34.097539901733 167.92053972686
5471	472504 5036 3300 8664 54.75 95.5 164 5.6500000953674 14.776413917542 2214.0940589905 30320.807693329
5470	477540 5280 3271 8664 54.5 95.5 165 486.85000610352 486.85000610352 80330.25100708 39108783.193094
5469	482820 5271 3271 8664 54.5 95.5 165 236.99969482422 785.82187652588 85818.566726685 48995837.887483
vector 5602  IntersectionExampleScenario.node[38].veinsmobility  posx  ETV
vector 5603  IntersectionExampleScenario.node[38].veinsmobility  posy  ETV
vector 5604  IntersectionExampleScenario.node[38].veinsmobility  speed  ETV
vector 5605  IntersectionExampleScenario.node[38].veinsmobility  acceleration  ETV
vector 5606  IntersectionExampleScenario.node[38].veinsmobility  co2emission  ETV
5487	488487 5158 3728 9287 58.25 99.75 167 0.973 11.36141391502 500.05182758157 2531.1760865814
5486	493645 5104 3728 9287 58.25 99.75 167 -4.1742820739746 2.5 36.134572982788 266.92297944165
5485	498749 5049 3695 9287 58 99.75 168 5.6500000953674 15.25 2230.9900398254 30784.09032485
5484	503798 5401 3662 9287 57.75 99.75 169 486.85000610352 733.99957275391 90805.378051758 49762985.163569
5483	509199 5400 3662 9287 57.75 99.75 169 486.84194946289 797.07032012939 97481.709114075 58182641.176371
5508	514599 4712 4408 9392 63 100.5 151 0.973 11.200708441096 511.99008616387 2711.8742240438
5507	519311 4528 4408 9392 63 100.5 151 -4.5 2.5 39.699392318726 282.85211694497
5506	523839 4649 4369 9392 62.75 100.5 152 5.6500000953674 15.635449409485 2157.7992677689 31366.727818551
5505	528488 4899 4330 9392 62.5 100.5 153 486.85000610352 486.85000610352 74488.050933838 36264508.051778
5504	533387 4880 4330 9392 62.5 100.5 153 237.28668212891 771.1131362915 78784.143447876 44336203.208574
vector 5609  IntersectionExampleScenario.node[39].veinsmobility  posx  ETV
vector 5610  IntersectionExampleScenario.node[39].veinsmobility  posy  ETV
vector 5616  IntersectionExampleScenario.node[40].veinsmobility  posx  ETV
vector 5617  IntersectionExampleScenario.node[40].veinsmobility  posy  ETV
vector 5611  IntersectionExampleScenario.node[39].veinsmobility  speed  ETV
vector 5612  IntersectionExampleScenario.node[39].veinsmobility  acceleration  ETV
vector 5613  IntersectionExampleScenario.node[39].veinsmobility  co2emission  ETV
vector 5618  IntersectionExampleScenario.node[40].veinsmobility  speed  ETV
vector 5619  IntersectionExampleScenario.node[40].veinsmobility  acceleration  ETV
vector 5620  IntersectionExampleScenario.node[40].veinsmobility  co2emission  ETV
5501	539059 5162 4219 9764 61.75 103 166 0.973 10.209991344897 473.82742279981 2137.0497329777
5500	544221 4834 4219 9764 61.75 103 166 -3.2799987792969 2.5 37.15309715271 170.14900870223
5499	549055 5169 4182 9764 61.5 103 167 5.6500000953674 15.000106811523 2272.0623579025 31847.812259821
5498	554224 5389 4145 9764 61.25 103 168 486.85000610352 486.85000610352 81790.801025391 39819851.978423
5497	559613 5364 4145 9764 61.25 103 168 238.09869384766 801.08985900879 90133.944801331 53168012.161917
vector 5623  IntersectionExampleScenario.node[41].veinsmobility  posx  ETV
vector 5624  IntersectionExampleScenario.node[41].veinsmobility  posy  ETV
5515	565129 5054 4802 10117 65.5 105.75 162 0.973 11.54047740176 471.93653397699 2345.2431318375
5514	570183 4543 4802 10117 65.5 105.75 162 -3.1190643310547 2.5 37.15309715271 176.38013889318
5513	574726 5010 4761 10117 65.25 105.75 163 5.6500000953674 15.5 2298.8119192123 33002.424268987
5512	579736 5276 4720 10117 65 105.75 164 486.85000610352 486.85000610352 79843.401000977 38871760.264651
5511	585012 5263 4720 10117 65 105.75 164 235.56042480469 805.24440765381 86923.58543396 50747134.892796
vector 5625  IntersectionExampleScenario.node[41].veinsmobility  speed  ETV
vector 5626  IntersectionExampleScenario.node[41].veinsmobility  acceleration  ETV
vector 5627  IntersectionExampleScenario.node[41].veinsmobility  co2emission  ETV
vector 5630  IntersectionExampleScenario.node[42].veinsmobility  posx  ETV
vector 5631  IntersectionExampleScenario.node[42].veinsmobility  posy  ETV
vector 5632  IntersectionExampleScenario.node[42].veinsmobility  speed  ETV
vector 5633  IntersectionExampleScenario.node[42].veinsmobility  acceleration  ETV
vector 5634  IntersectionExampleScenario.node[42].veinsmobility  co2emission  ETV
vector 5637  IntersectionExampleScenario.node[43].veinsmobility  posx  ETV
vector 5638  IntersectionExampleScenario.node[43].veinsmobility  posy  ETV
vector 5639  IntersectionExampleScenario.node[43].veinsmobility  speed  ETV
vector 5640  IntersectionExampleScenario.node[43].veinsmobility  acceleration  ETV
vector 5641  IntersectionExampleScenario.node[43].veinsmobility  co2emission  ETV
vector 5644  IntersectionExampleScenario.node[44].veinsmobility  posx  ETV
vector 5645  IntersectionExampleScenario.node[44].veinsmobility  posy  ETV
vector 5646  IntersectionExampleScenario.node[44].veinsmobility  speed  ETV
vector 5647  IntersectionExampleScenario.node[44].veinsmobility  acceleration  ETV
vector 5648  IntersectionExampleScenario.node[44].veinsmobility  co2emission  ETV
5529	591707 4831 5937 10825 74 112 153 0.973 11.90022389248 506.01305703996 2736.7001168245
5528	596538 4554 5937 10825 74 112 153 -3.186939239502 2.5 40.887662887573 238.50407365445
5527	601092 4713 5906 10825 73.75 112 154 5.6500000953674 16 2206.0350151062 32696.483715417
5526	605805 5033 5875 10825 73.5 112 155 237.45007324219 486.85000610352 67407.860961914 30232787.016513
5525	610838 5024 5875 10825 73.5 112 155 483.14999389648 785.82187652588 88753.03830719 52568286.021266
vector 5651  IntersectionExampleScenario.node[45].veinsmobility  posx  ETV
vector 5652  IntersectionExampleScenario.node[45].veinsmobility  posy  ETV
vector 5653  IntersectionExampleScenario.node[45].veinsmobility  speed  ETV
vector 5654  IntersectionExampleScenario.node[45].veinsmobility  acceleration  ETV
vector 5655  IntersectionExampleScenario.node[45].veinsmobility  co2emission  ETV
5543	616258 5177 6181 11361 76 116.75 164 0.973 11.36141391502 495.45534682972 2603.2148978968
5542	621435 4836 6181 11361 76 116.75 164 -3.5491523742676 2.5 35.964826583862 274.34026658626
5541	626271 5074 6150 11361 75.75 116.75 165 5.6500000953674 15.25 2186.2606887817 30126.567963169
5540	631345 5423 6119 11361 75.5 116.75 166 236.02355957031 483.14999389648 71651.482421875 31893037.694613
5539	636768 5399 6119 11361 75.5 116.75 166 184.17810058594 483.14999389648 66038.652923584 28049838.685792
vector 5658  IntersectionExampleScenario.node[46].veinsmobility  posx  ETV
vector 5659  IntersectionExampleScenario.node[46].veinsmobility  posy  ETV
vector 5660  IntersectionExampleScenario.node[46].veinsmobility  speed  ETV
5445	642396 7755 2561 11472 47.25 117.75 283 0.96333723109819 12.099024792222 677.6054516779 3397.5593432218
5444	650151 7068 2561 11472 47.25 117.75 283 -8.8043956756592 4 40.208654403687 534.70774463342
5443	657219 7232 2538 11472 47 117.75 284 0 16.27499961853 2193.6444354057 31767.333654815
5442	664451 9218 2515 11472 46.75 117.75 285 184.17810058594 486.85000610352 122872.18270874 55100528.215203
5441	673669 9244 2515 11472 46.75 117.75 285 238.72613525391 486.85000610352 130706.28781128 61046476.061591
vector 5661  IntersectionExampleScenario.node[46].veinsmobility  acceleration  ETV
vector 5662  IntersectionExampleScenario.node[46].veinsmobility  co2emission  ETV
5424	683080 8279 2233 11530 43.25 118.25 301 0.973 11.648172402475 686.67389132743 3116.0581217611
5423	691359 7068 2233 11530 43.25 118.25 301 -42.399955749512 4 39.529638290405 2135.6582343482
5422	698427 7634 2216 11530 43 118.25 302 0 15.64999961853 2217.9468746185 32478.271169401
5421	706061 9811 2198 11530 42.75 118.25 303 235.126953125 785.82187652588 154476.67829132 82917232.628218
5420	715872 9824 2198 11530 42.75 118.25 303 483.14999389648 483.14999389648 146394.44815063 70730476.730458
vector 5665  IntersectionExampleScenario.node[47].veinsmobility  posx  ETV
vector 5666  IntersectionExampleScenario.node[47].veinsmobility  posy  ETV
vector 5667  IntersectionExampleScenario.node[47].veinsmobility  speed  ETV
vector 5668  IntersectionExampleScenario.node[47].veinsmobility  acceleration  ETV
vector 5669  IntersectionExampleScenario.node[47].veinsmobility  co2emission  ETV
5452	726092 8256 2675 11678 48.5 119.5 285 0.973 12.099024792222 690.14615607465 3330.9683944567
5451	734348 7830 2675 11678 48.5 119.5 285 -4.5 2.5 41.736440658569 463.39835181038
5450	742178 8084 2652 11678 48.25 119.5 286 0 16.27499961853 2287.8909372194 33335.681314121
5449	750262 9290 2629 11678 48 119.5 287 162.90466308594 487.03427124023 121350.20446777 53768374.779419
5448	759552 9311 2629 11678 48 119.5 287 238.2958984375 486.85000610352 131819.53283691 61633211.041776
5480	768863 7647 3507 11766 56.5 120.25 256 0.973 11.200708441096 598.00435129963 2684.109276453
5479	776510 7989 3507 11766 56.5 120.25 256 -3.8765723705292 2.5 35.795072555542 325.83410075329
5478	784499 8142 3476 11766 56.25 120.25 257 0 15.02499961853 2209.3902852321 28367.470121265
5477	792641 8377 3445 11766 56 120.25 258 483.13317871094 785.82187652588 141826.61829376 80009598.62538
5476	801018 8390 3445 11766 56 120.25 258 483.14999389648 734.00729370117 133464.96763611 70215757.722933
5466	809408 8116 3163 11882 53.5 121.25 272 0.973 12.099024792222 661.90992032963 3296.0872030787
5465	817524 8590 3163 11882 53.5 121.25 272 -3.9204440116882 2.5000019073486 41.396924972534 369.63926316082
5464	826114 8616 3136 11882 53.25 121.25 273 0 16.27499961853 2260.7034638356 31645.678611824
5463	834730 8883 3109 11882 53 121.25 274 175.12432861328 735.05953979492 122892.23712158 59374669.674225
5462	843613 8919 3109 11882 53 121.25 274 486.85000610352 486.85000610352 133396.90167236 64944282.39338
vector 5672  IntersectionExampleScenario.node[48].veinsmobility  posx  ETV
vector 5673  IntersectionExampleScenario.node[48].veinsmobility  posy  ETV
vector 5674  IntersectionExampleScenario.node[48].veinsmobility  speed  ETV
vector 5675  IntersectionExampleScenario.node[48].veinsmobility  acceleration  ETV
vector 5676  IntersectionExampleScenario.node[48].veinsmobility  co2emission  ETV
5522	852928 6532 5106 12033 67.5 122.5 221 0.973 11.200708441096 556.59317636345 2641.3839198938
5521	859460 6780 5106 12033 67.5 122.5 221 -3.8302264213562 2.5000004768372 35.625318527222 314.851866722
5520	866240 7049 5070 12033 67.25 122.5 222 0 15.02499961853 2219.0372596532 28452.847826984
5519	873289 7277 5032 12033 67 122.5 223 235.93957519531 785.82187652588 116126.24094391 64784808.155269
5518	880566 7297 5032 12033 67 122.5 223 483.14999389648 483.14999389648 107742.44863892 52055763.402284
5494	887863 7622 3864 12095 59.25 123 256 0.973 12.099024792222 636.18639845156 3243.3856808829
5493	895485 7930 3864 12095 59.25 123 256 -3.8876657485962 2.5 41.566686630249 366.3153442983
5492	903415 8132 3829 12095 59 123 257 0 16.27499961853 2217.8130834401 30091.429247422
5491	911547 8376 3794 12095 58.75 123 258 184.17810058594 733.38807678223 115022.78001404 55308344.088285
5490	919923 8421 3794 12095 58.75 123 258 486.85000610352 486.85000610352 125607.30157471 61151915.538292
vector 5679  IntersectionExampleScenario.node[49].veinsmobility  posx  ETV
vector 5680  IntersectionExampleScenario.node[49].veinsmobility  posy  ETV
vector 5681  IntersectionExampleScenario.node[49].veinsmobility  speed  ETV
vector 5682  IntersectionExampleScenario.node[49].veinsmobility  acceleration  ETV
vector 5683  IntersectionExampleScenario.node[49].veinsmobility  co2emission  ETV
5536	928740 5923 6002 12256 74.5 124.25 200 0.93438186594183 12.26218747632 582.34159096578 3183.6575553904
5535	934663 6095 6002 12256 74.5 124.25 200 -3.9129378795624 2.5 41.057416915894 401.00345326373
5534	940758 6251 5970 12256 74.25 124.25 201 0 16.5 2178.5925092176 29172.243762618
5533	947009 6620 5937 12256 74 124.25 202 486.85000610352 785.82187652588 113958.25632477 66081520.597457
5532	953629 6636 5937 12256 74 124.25 202 238.37664794922 483.14999389648 89834.070251465 40913614.122421
5550	960265 5768 6433 12420 78 125.5 191 0.973 11.990504229548 561.54318671852 3034.1454493504
5549	966033 5874 6433 12420 78 125.5 191 -2.6378707885742 2.5 39.699392318726 316.70927229056
5548	971907 6073 6400 12420 77.75 125.5 192 2.5707581043243 16.125 2225.8071537018 29857.828049555
5547	977980 6331 6367 12420 77.5 125.5 193 184.17810058594 734.93405151367 85880.93901062 42356966.796032
5546	984311 6362 6367 12420 77.5 125.5 193 486.85000610352 486.85003662109 93962.051208496 45745425.219213
5578	990673 4955 8048 12865 91 129.25 154 0.973 11.804378628763 483.89828685639 2771.6786105419
5577	995628 4711 8048 12865 91 129.25 154 -3.5587158203125 2.5 38.511121749878 218.56024756618
5576	1000339 4942 8017 12865 90.75 129.25 155 5.6500000953674 15.867084503174 2217.0309972763 32348.987415785
5575	1005281 5178 7986 12865 90.5 129.25 156 184.17810058594 733.13545227051 69924.979217529 35474029.947753
5574	1010459 5208 7986 12865 90.5 129.25 156 486.85000610352 486.85000610352 75948.600952148 36975576.837107
vector 5686  IntersectionExampleScenario.node[50].veinsmobility  posx  ETV
vector 5687  IntersectionExampleScenario.node[50].veinsmobility  posy  ETV
vector 5688  IntersectionExampleScenario.node[50].veinsmobility  speed  ETV
vector 5689  IntersectionExampleScenario.node[50].veinsmobility  acceleration  ETV
vector 5690  IntersectionExampleScenario.node[50].veinsmobility  co2emission  ETV
vector 5693  IntersectionExampleScenario.node[51].veinsmobility  posx  ETV
vector 5694  IntersectionExampleScenario.node[51].veinsmobility  posy  ETV
vector 5695  IntersectionExampleScenario.node[51].veinsmobility  speed  ETV
vector 5696  IntersectionExampleScenario.node[51].veinsmobility  acceleration  ETV
vector 5697  IntersectionExampleScenario.node[51].veinsmobility  co2emission  ETV
vector 5700  IntersectionExampleScenario.node[52].veinsmobility  posx  ETV
vector 5701  IntersectionExampleScenario.node[52].veinsmobility  posy  ETV
vector 5702  IntersectionExampleScenario.node[52].veinsmobility  speed  ETV
vector 5703  IntersectionExampleScenario.node[52].veinsmobility  acceleration  ETV
vector 5704  IntersectionExampleScenario.node[52].veinsmobility  co2emission  ETV
5585	1016855 5366 8302 13383 93 134 165 0.973 10.756497587458 440.09196345149 1943.3520921867
5584	1022221 4834 8302 13383 93 134 165 -2.7559509277344 2.5 33.079023361206 146.40438351094
5583	1027055 5355 8267 13383 92.75 134 166 5.6500000953674 14.39999961853 2212.0619859695 29868.075813597
5582	1032410 5577 8234 13383 92.5 134 167 237.47888183594 785.82187652588 86818.514251709 49538765.473636
5581	1037987 5597 8234 13383 92.5 134 167 483.14999389648 483.14999389648 80686.048980713 38983464.072563
5599	1043584 5304 8516 13517 94.5 135.25 164 0.973 11.810082123732 515.69033045406 2703.6893627443
5598	1048888 5227 8516 13517 94.5 135.25 164 -4.0502624511719 2.5 38.850629806519 281.87690548835
5597	1054115 5208 8479 13517 94.25 135.25 165 5.6500000953674 15.875 2259.9081144333 32326.161028142
5596	1059323 5561 8442 13517 94 135.25 166 486.85000610352 806.11563110352 96475.35067749 58129897.271862
5595	1064884 5559 8442 13517 94 135.25 166 238.00250244141 483.14999389648 72157.488220215 32286181.960588
vector 5707  IntersectionExampleScenario.node[53].veinsmobility  posx  ETV
vector 5708  IntersectionExampleScenario.node[53].veinsmobility  posy  ETV
vector 5709  IntersectionExampleScenario.node[53].veinsmobility  speed  ETV
vector 5710  IntersectionExampleScenario.node[53].veinsmobility  acceleration  ETV
vector 5711  IntersectionExampleScenario.node[53].veinsmobility  co2emission  ETV
vector 5714  IntersectionExampleScenario.node[54].veinsmobility  posx  ETV
vector 5715  IntersectionExampleScenario.node[54].veinsmobility  posy  ETV
vector 5716  IntersectionExampleScenario.node[54].veinsmobility  speed  ETV
vector 5717  IntersectionExampleScenario.node[54].veinsmobility  acceleration  ETV
vector 5718  IntersectionExampleScenario.node[54].veinsmobility  co2emission  ETV
5620	1071235 5376 9577 14223 101.75 142.5 164 0.973 11.36141391502 493.09962632924 2581.4212800182
5619	1076611 4988 9577 14223 101.75 142.5 164 -3.5891742706299 2.5 35.964826583862 268.88141109557
5618	1081599 5272 9538 14223 101.5 142.5 165 5.6500000953674 15.25 2185.01689291 30091.63973049
5617	1086871 5596 9499 14223 101.25 142.5 166 184.17810058594 483.21524047852 66034.037567139 28045524.268368
5616	1092467 5626 9499 14223 101.25 142.5 166 486.85000610352 733.70579528809 89348.637619019 49054584.602944
5564	1098093 6765 7500 14322 86.5 143.75 230 0.973 12.26218747632 622.86624326987 3355.6238389288
5563	1104858 6344 7500 14322 86.5 143.75 230 -6.9978852272034 4 41.227170944214 494.3043074932
5562	1111202 6436 7469 14322 86.25 143.75 231 0 16.5 2186.1167937517 31923.520830704
5561	1117638 7677 7438 14322 86 143.75 232 486.85000610352 735.02058410645 120898.46395874 64039327.61898
5560	1125315 7750 7438 14322 86 143.75 232 486.63604736328 785.82187652588 127302.56601715 71836996.775197
5557	1133065 7334 6814 14341 81 144 253 0.973 11.399338101819 635.25636540128 2998.6500619644
5556	1140399 6853 6814 14341 81 144 253 -9.4224071502686 4 39.529638290405 522.50154483504
5555	1147252 7026 6781 14341 80.75 144 254 0 15.692096710205 2211.6997699738 31901.705754974
5554	1154278 8493 6748 14341 80.5 144 255 483.14999389648 483.14999389648 123203.2484436 59525648.733554
5553	1162771 8457 6748 14341 80.5 144 255 184.17810058594 733.43307495117 116604.09736633 57448458.54537
vector 5721  IntersectionExampleScenario.node[55].veinsmobility  posx  ETV
vector 5722  IntersectionExampleScenario.node[55].veinsmobility  posy  ETV
vector 5723  IntersectionExampleScenario.node[55].veinsmobility  speed  ETV
5571	1171457 7270 7652 14528 87.75 146.75 237 0.973 11.483315281861 588.27946602333 2780.7788737288
5570	1178727 7848 7652 14528 87.75 146.75 237 -3.7191019058228 2.5 36.813589096069 340.79403845609
5569	1186575 7941 7621 14528 87.5 146.75 238 0 15.420273780823 2202.949795099 28558.234495016
5568	1194516 7998 7590 14528 87.25 146.75 239 483.14999389648 732.63552856445 124063.38040161 65518093.914349
5567	1202514 7969 7590 14528 87.25 146.75 239 184.17810058594 486.87396240234 99766.235046387 43645405.258167
vector 5724  IntersectionExampleScenario.node[55].veinsmobility  acceleration  ETV
vector 5725  IntersectionExampleScenario.node[55].veinsmobility  co2emission  ETV
5627	1210650 5412 10177 14608 106.25 148 168 0.973 11.200708441096 506.2457212849 2729.7886876265
5626	1216062 5249 10177 14608 106.25 148 168 -3.2922821044922 2.5 35.795072555542 252.97778338023
5625	1221311 5525 10148 14608 106 148 169 5.6500000953674 15.02499961853 2214.156293869 29884.774652627
5624	1226836 5779 10117 14608 105.75 148 170 483.14999389648 483.14999389648 82135.498962402 39683765.822369
5623	1232615 5726 10117 14608 105.75 148 170 184.17810058594 732.95603942871 76131.566467285 38366666.816406
5592	1238341 6832 8337 14668 93.25 149 224 0.973 11.200708441096 583.56818554667 2809.0453812154
5591	1245173 7177 8337 14668 93.25 149 224 -22.138748168945 4 37.15309715271 885.15895021926
5590	1252350 7226 8302 14668 93 149 225 0 15.180926322937 2175.4943417348 28239.626900156
5589	1259576 7598 8267 14668 92.75 149 226 486.85000610352 731.82789611816 118275.61917114 62941641.712649
5588	1267174 7594 8267 14668 92.75 149 226 486.76846313477 785.82187652588 125741.00429535 71888321.020422
5606	1274768 6770 8955 14818 97.5 151.5 217 0.973 11.36141391502 590.89876308721 2864.0850581596
5605	1281538 6898 8955 14818 97.5 151.5 217 -4.5 2.5000009536743 39.190130233765 435.73964580476
5604	1288436 7128 8918 14818 97.25 151.5 218 1.1616578102112 15.46072769165 2195.3109817505 28641.922173657
5603	1295564 7398 8881 14818 97 151.5 219 486.85000610352 731.83009338379 114616.73776245 60995585.201959
5602	1302962 7391 8881 14818 97 151.5 219 486.85000610352 790.18281555176 123010.42351532 71011843.539011
vector 5728  IntersectionExampleScenario.node[56].veinsmobility  posx  ETV
vector 5729  IntersectionExampleScenario.node[56].veinsmobility  posy  ETV
vector 5730  IntersectionExampleScenario.node[56].veinsmobility  speed  ETV
vector 5731  IntersectionExampleScenario.node[56].veinsmobility  acceleration  ETV
vector 5732  IntersectionExampleScenario.node[56].veinsmobility  co2emission  ETV
vector 5735  IntersectionExampleScenario.node[57].veinsmobility  posx  ETV
vector 5736  IntersectionExampleScenario.node[57].veinsmobility  posy  ETV
vector 5737  IntersectionExampleScenario.node[57].veinsmobility  speed  ETV
vector 5738  IntersectionExampleScenario.node[57].veinsmobility  acceleration  ETV
vector 5739  IntersectionExampleScenario.node[57].veinsmobility  co2emission  ETV
5613	1311145 6591 9538 14992 101.5 154.25 212 0.973 11.200708441096 543.45556941371 2629.9546638082
5612	1317736 6735 9538 14992 101.5 154.25 212 -4.5 2.5 35.455564498901 345.53003120989
5611	1324471 7043 9499 14992 101.25 154.25 213 0.76957178115845 15.02499961853 2242.7376434207 28694.772908468
5610	1331514 7259 9462 14992 101 154.25 214 486.85000610352 486.85000610352 104185.90130615 50722906.6868
5609	1338773 7220 9462 14992 101 154.25 214 238.3251953125 794.20235443115 112436.59710693 63534717.731765
5655	1345993 5120 11245 15026 115.75 154.75 157 0.973 11.648172402475 498.4880197412 2816.8871937028
5654	1351113 4875 11245 15026 115.75 154.75 157 -3.1282348632812 2.5 38.511121749878 239.28916584546
5653	1355988 5086 11216 15026 115.5 154.75 158 5.6500000953674 15.80645275116 2206.2451868057 31744.265548817
5652	1361074 5401 11187 15026 115.25 154.75 159 483.14999389648 732.83401489258 85188.052734375 46592601.714767
5651	1366475 5386 11187 15026 115.25 154.75 159 184.17810058594 486.85000610352 63303.773925781 26977022.999986
5634	1371861 6104 10436 15125 108.5 156.25 192 0.973 11.36141391502 578.11039353218 2983.6970837985
5633	1377965 5860 10436 15125 108.5 156.25 192 -4.5 2.5 40.887662887573 392.12981046412
5632	1383825 6259 10408 15125 108.25 156.25 193 0.94603729248047 15.909393310547 2187.2391353846 29590.788866631
5631	1390084 6593 10379 15125 108 156.25 194 486.85000610352 733.45159912109 102347.55184937 54966076.715884
5630	1396677 6582 10379 15125 108 156.25 194 486.85000610352 785.82187652588 109646.71025085 63763439.043118
vector 5742  IntersectionExampleScenario.node[58].veinsmobility  posx  ETV
vector 5743  IntersectionExampleScenario.node[58].veinsmobility  posy  ETV
vector 5744  IntersectionExampleScenario.node[58].veinsmobility  speed  ETV
vector 5745  IntersectionExampleScenario.node[58].veinsmobility  acceleration  ETV
vector 5746  IntersectionExampleScenario.node[58].veinsmobility  co2emission  ETV
5641	1403655 6391 10548 15289 109.5 159 199 0.973 11.810082123732 574.80962148946 2935.7982719542
5640	1410046 6355 10548 15289 109.5 159 199 -4.5 2.5 38.511121749878 376.63650119122
5639	1416401 6448 10519 15289 109.25 159 200 2.057758808136 15.875 2268.2207634449 29976.250183844
5638	1422849 6809 10490 15289 109 159 201 486.85000610352 731.64099121094 105923.06130981 56807450.283698
5637	1429658 6820 10490 15289 109 159 201 486.75631713867 807.99687957764 115243.99290466 68237580.483241
5669	1436478 5296 11620 15304 119 159.25 162 0.973 11.810082123732 513.58775494947 2873.501900783
5668	1441774 5125 11620 15304 119 159.25 162 -3.3544044494629 2.5 38.511121749878 281.97657495854
5667	1446899 5198 11590 15304 118.75 159.25 163 5.6500000953674 15.875 2223.1624250412 31718.924024542
5666	1452097 5573 11559 15304 118.5 159.25 164 238.34838867188 483.14999389648 71169.955047607 31800291.947296
5665	1457670 5549 11559 15304 118.5 159.25 164 172.9296875 483.24182128906 64464.292510986 27249554.975807
5648	1463219 6286 10825 15379 112 160.5 195 0.973 11.200708441096 552.66409665332 2689.0956941455
5647	1469505 6044 10825 15379 112 160.5 195 -4.5 2.5 36.98334312439 350.18050325947
5646	1475549 6436 10796 15379 111.75 160.5 196 2.6386590003967 15.02499961853 2331.6981813908 31087.018275736
5645	1481985 6698 10767 15379 111.5 160.5 197 486.85000610352 486.85000610352 95909.451202393 46693516.90327
5644	1488683 6673 10767 15379 111.5 160.5 197 235.23907470703 812.50313568115 105123.97751617 60974155.878827
vector 5749  IntersectionExampleScenario.node[59].veinsmobility  posx  ETV
vector 5750  IntersectionExampleScenario.node[59].veinsmobility  posy  ETV
vector 5751  IntersectionExampleScenario.node[59].veinsmobility  speed  ETV
vector 5752  IntersectionExampleScenario.node[59].veinsmobility  acceleration  ETV
vector 5753  IntersectionExampleScenario.node[59].veinsmobility  co2emission  ETV
vector 5756  IntersectionExampleScenario.node[60].veinsmobility  posx  ETV
vector 5757  IntersectionExampleScenario.node[60].veinsmobility  posy  ETV
vector 5758  IntersectionExampleScenario.node[60].veinsmobility  speed  ETV
5662	1495981 5673 11501 15504 118 162.5 179 0.973 11.200708441096 515.06434192723 2537.3174417238
5661	1501654 5700 11501 15504 118 162.5 179 -2.6589813232422 2.5 37.32285118103 239.39167410486
5660	1507354 5913 11472 15504 117.75 162.5 180 4.574285030365 15.053378105164 2241.1509127617 29870.591139259
5659	1513267 6154 11443 15504 117.5 162.5 181 486.85000610352 486.85000610352 88119.851104736 42901150.048182
5658	1519421 6127 11443 15504 117.5 162.5 181 235.45794677734 790.44063568115 95034.495910645 54245536.34177
vector 5759  IntersectionExampleScenario.node[60].veinsmobility  acceleration  ETV
vector 5760  IntersectionExampleScenario.node[60].veinsmobility  co2emission  ETV
vector 5763  IntersectionExampleScenario.node[61].veinsmobility  posx  ETV
vector 5764  IntersectionExampleScenario.node[61].veinsmobility  posy  ETV
vector 5765  IntersectionExampleScenario.node[61].veinsmobility  speed  ETV
vector 5766  IntersectionExampleScenario.node[61].veinsmobility  acceleration  ETV
vector 5767  IntersectionExampleScenario.node[61].veinsmobility  co2emission  ETV
5683	1526111 5190 12223 15592 124 163.75 160 0.973 11.810082123732 515.96530341546 2974.9689372332
5682	1531301 5085 12223 15592 124 163.75 160 -3.3148422241211 2.5 38.850629806519 285.26564501771
5681	1536386 5141 12190 15592 123.75 163.75 161 5.6500000953674 15.875 2197.8448839188 31408.457742488
5680	1541527 5497 12157 15592 123.5 163.75 162 237.48114013672 483.14999389648 70188.254119873 31325434.535414
5679	1547024 5500 12157 15592 123.5 163.75 162 180.00085449219 483.15664672852 64142.070678711 27195453.885453
vector 5770  IntersectionExampleScenario.node[62].veinsmobility  posx  ETV
vector 5771  IntersectionExampleScenario.node[62].veinsmobility  posy  ETV
vector 5772  IntersectionExampleScenario.node[62].veinsmobility  speed  ETV
vector 5773  IntersectionExampleScenario.node[62].veinsmobility  acceleration  ETV
vector 5774  IntersectionExampleScenario.node[62].veinsmobility  co2emission  ETV
vector 5777  IntersectionExampleScenario.node[63].veinsmobility  posx  ETV
vector 5778  IntersectionExampleScenario.node[63].veinsmobility  posy  ETV
vector 5784  IntersectionExampleScenario.node[64].veinsmobility  posx  ETV
vector 5785  IntersectionExampleScenario.node[64].veinsmobility  posy  ETV
vector 5779  IntersectionExampleScenario.node[63].veinsmobility  speed  ETV
vector 5786  IntersectionExampleScenario.node[64].veinsmobility  speed  ETV
vector 5780  IntersectionExampleScenario.node[63].veinsmobility  acceleration  ETV
vector 5781  IntersectionExampleScenario.node[63].veinsmobility  co2emission  ETV
vector 5787  IntersectionExampleScenario.node[64].veinsmobility  acceleration  ETV
vector 5788  IntersectionExampleScenario.node[64].veinsmobility  co2emission  ETV
5704	1553712 4950 13221 16080 132.5 169.75 150 0.973 11.648172402475 471.81448541721 2587.1640414021
5703	1558662 4728 13221 16080 132.5 169.75 150 -3.1496124267578 2.5 38.001859664917 229.7575507956
5702	1563390 4849 13193 16080 132.25 169.75 151 5.6500000953674 15.64999961853 2089.5765581131 29805.444356034
5701	1568239 5155 13164 16080 132 169.75 152 235.16796875 486.85000610352 65437.07925415 29124834.036999
5700	1573394 5153 13164 16080 132 169.75 152 483.14999389648 755.05781555176 85033.110359192 48925286.232442
5690	1578547 5561 13026 16308 130.75 172.75 169 0.973 11.36141391502 537.79791551267 2827.4839532876
5689	1584108 5438 13026 16308 130.75 172.75 169 -4.5 2.5 37.492597579956 361.16579296007
5688	1589546 5469 12999 16308 130.5 172.75 170 5.6500000953674 15.25 2193.0697312355 29943.538334512
5687	1595015 5813 12972 16308 130.25 172.75 171 486.85000610352 735.25746154785 91691.423934937 50142269.009959
5686	1600828 5808 12972 16308 130.25 172.75 171 486.85000610352 785.82187652588 98955.342536926 59236739.994038
vector 5791  IntersectionExampleScenario.node[65].veinsmobility  posx  ETV
vector 5792  IntersectionExampleScenario.node[65].veinsmobility  posy  ETV
vector 5793  IntersectionExampleScenario.node[65].veinsmobility  speed  ETV
5697	1606865 5519 13137 16386 131.75 173.75 169 0.973 11.093806525473 493.10331820448 2309.9606522015
5696	1612384 5363 13137 16386 131.75 173.75 169 -3.289794921875 2.5 36.813589096069 177.27492437232
5695	1617747 5570 13109 16386 131.5 173.75 170 5.6500000953674 15.208199501038 2302.2677507401 31958.022531889
5694	1623317 5816 13080 16386 131.25 173.75 171 486.85000610352 486.85000610352 83251.351043701 40530920.763752
5693	1629133 5799 13080 16386 131.25 173.75 171 237.29565429688 807.99687957764 92142.295677185 54642176.244882
vector 5794  IntersectionExampleScenario.node[65].veinsmobility  acceleration  ETV
vector 5795  IntersectionExampleScenario.node[65].veinsmobility  co2emission  ETV
vector 5798  IntersectionExampleScenario.node[66].veinsmobility  posx  ETV
vector 5799  IntersectionExampleScenario.node[66].veinsmobility  posy  ETV
vector 5805  IntersectionExampleScenario.node[67].veinsmobility  posx  ETV
vector 5806  IntersectionExampleScenario.node[67].veinsmobility  posy  ETV
vector 5800  IntersectionExampleScenario.node[66].veinsmobility  speed  ETV
vector 5807  IntersectionExampleScenario.node[67].veinsmobility  speed  ETV
vector 5801  IntersectionExampleScenario.node[66].veinsmobility  acceleration  ETV
vector 5802  IntersectionExampleScenario.node[66].veinsmobility  co2emission  ETV
vector 5808  IntersectionExampleScenario.node[67].veinsmobility  acceleration  ETV
vector 5809  IntersectionExampleScenario.node[67].veinsmobility  co2emission  ETV
vector 5812  IntersectionExampleScenario.node[68].veinsmobility  posx  ETV
vector 5813  IntersectionExampleScenario.node[68].veinsmobility  posy  ETV
vector 5814  IntersectionExampleScenario.node[68].veinsmobility  speed  ETV
vector 5815  IntersectionExampleScenario.node[68].veinsmobility  acceleration  ETV
vector 5816  IntersectionExampleScenario.node[68].veinsmobility  co2emission  ETV
vector 5819  IntersectionExampleScenario.node[69].veinsmobility  posx  ETV
vector 5820  IntersectionExampleScenario.node[69].veinsmobility  posy  ETV
vector 5821  IntersectionExampleScenario.node[69].veinsmobility  speed  ETV
vector 5822  IntersectionExampleScenario.node[69].veinsmobility  acceleration  ETV
vector 5823  IntersectionExampleScenario.node[69].veinsmobility  co2emission  ETV
5718	1636683 5012 13917 16696 139.25 176.75 151 0.973 11.200708441096 477.46803849996 2376.3499476693
5717	1641695 4988 13917 16696 139.25 176.75 151 -3.1908416748047 2.5 40.038900375366 182.25469200762
5716	1646683 4947 13892 16696 139 176.75 152 5.6500000953674 15.891996383667 2208.7165193558 32814.82387315
5715	1651630 5203 13867 16696 138.75 176.75 153 486.85000610352 486.85000610352 74488.050933838 36264508.051778
5714	1656833 5176 13867 16696 138.75 176.75 153 238.85949707031 785.82187652588 80042.208244324 45902275.183303
vector 5826  IntersectionExampleScenario.node[70].veinsmobility  posx  ETV
vector 5827  IntersectionExampleScenario.node[70].veinsmobility  posy  ETV
5711	1662161 5467 13818 17074 138.25 180 168 0.973 11.810082123732 548.52349147058 3025.5657930216
5710	1667628 5111 13818 17074 138.25 180 168 -7.2641291618347 4 39.699392318726 483.2908312258
5709	1672739 5379 13793 17074 138 180 169 0 15.875 2180.8750771284 31208.168482518
5708	1678118 5774 13767 17074 137.75 180 170 486.63604736328 785.82187652588 96580.330421448 56647167.333943
5707	1683892 5713 13767 17074 137.75 180 170 236.12365722656 483.14999389648 74072.638092041 33215582.231713
vector 5833  IntersectionExampleScenario.node[71].veinsmobility  posx  ETV
vector 5834  IntersectionExampleScenario.node[71].veinsmobility  posy  ETV
vector 5828  IntersectionExampleScenario.node[70].veinsmobility  speed  ETV
vector 5829  IntersectionExampleScenario.node[70].veinsmobility  acceleration  ETV
vector 5830  IntersectionExampleScenario.node[70].veinsmobility  co2emission  ETV
vector 5835  IntersectionExampleScenario.node[71].veinsmobility  speed  ETV
5676	1690078 7079 12002 17137 122.25 180.5 234 0.973 11.450879080643 595.51058756768 2887.0020172327
5675	1697157 6738 12002 17137 122.25 180.5 234 -7.8744068145752 4 37.15309715271 479.07893849499
5674	1703895 6820 11971 17137 122 180.5 235 0 15.375 2210.7283728123 30856.763952388
5673	1710715 7992 11940 17137 121.75 180.5 236 184.17810058594 733.24285888672 107677.36975098 53355539.29078
5672	1718707 8024 11940 17137 121.75 180.5 236 486.85000610352 486.85000610352 114896.60144043 55937411.112546
vector 5836  IntersectionExampleScenario.node[71].veinsmobility  acceleration  ETV
vector 5837  IntersectionExampleScenario.node[71].veinsmobility  co2emission  ETV
vector 5840  IntersectionExampleScenario.node[72].veinsmobility  posx  ETV
vector 5841  IntersectionExampleScenario.node[72].veinsmobility  posy  ETV
vector 5847  IntersectionExampleScenario.node[73].veinsmobility  posx  ETV
vector 5848  IntersectionExampleScenario.node[73].veinsmobility  posy  ETV
vector 5842  IntersectionExampleScenario.node[72].veinsmobility  speed  ETV
vector 5843  IntersectionExampleScenario.node[72].veinsmobility  acceleration  ETV
vector 5844  IntersectionExampleScenario.node[72].veinsmobility  co2emission  ETV
vector 5849  IntersectionExampleScenario.node[73].veinsmobility  speed  ETV
vector 5850  IntersectionExampleScenario.node[73].veinsmobility  acceleration  ETV
vector 5851  IntersectionExampleScenario.node[73].veinsmobility  co2emission  ETV
5725	1727690 5114 14545 17760 147 185.25 154 0.973 11.648172402475 478.61597501416 2568.5003673715
5724	1732804 4867 14545 17760 147 185.25 154 -3.5870666503906 2.5 38.511121749878 204.35381815996
5723	1737671 5034 14528 17760 146.75 185.25 155 5.6500000953674 15.64999961853 2221.7530937195 32492.319606422
5722	1742705 5278 14511 17760 146.5 185.25 156 184.17810058594 734.39512634277 70055.995269775 35616863.386622
5721	1747983 5304 14511 17760 146.5 185.25 156 486.85000610352 486.85000610352 75948.600952148 36975576.837107
vector 5854  IntersectionExampleScenario.node[74].veinsmobility  posx  ETV
vector 5855  IntersectionExampleScenario.node[74].veinsmobility  posy  ETV
vector 5856  IntersectionExampleScenario.node[74].veinsmobility  speed  ETV
vector 5857  IntersectionExampleScenario.node[74].veinsmobility  acceleration  ETV
vector 5858  IntersectionExampleScenario.node[74].veinsmobility  co2emission  ETV
vector 5861  IntersectionExampleScenario.node[75].veinsmobility  posx  ETV
vector 5862  IntersectionExampleScenario.node[75].veinsmobility  posy  ETV
vector 5863  IntersectionExampleScenario.node[75].veinsmobility  speed  ETV
vector 5864  IntersectionExampleScenario.node[75].veinsmobility  acceleration  ETV
vector 5865  IntersectionExampleScenario.node[75].veinsmobility  co2emission  ETV
vector 5868  IntersectionExampleScenario.node[76].veinsmobility  posx  ETV
vector 5869  IntersectionExampleScenario.node[76].veinsmobility  posy  ETV
vector 5870  IntersectionExampleScenario.node[76].veinsmobility  speed  ETV
vector 5871  IntersectionExampleScenario.node[76].veinsmobility  acceleration  ETV
vector 5872  IntersectionExampleScenario.node[76].veinsmobility  co2emission  ETV
vector 5875  IntersectionExampleScenario.node[77].veinsmobility  posx  ETV
vector 5876  IntersectionExampleScenario.node[77].veinsmobility  posy  ETV
vector 5877  IntersectionExampleScenario.node[77].veinsmobility  speed  ETV
vector 5878  IntersectionExampleScenario.node[77].veinsmobility  acceleration  ETV
vector 5879  IntersectionExampleScenario.node[77].veinsmobility  co2emission  ETV
vector 5882  IntersectionExampleScenario.node[78].veinsmobility  posx  ETV
vector 5883  IntersectionExampleScenario.node[78].veinsmobility  posy  ETV
vector 5884  IntersectionExampleScenario.node[78].veinsmobility  speed  ETV
vector 5885  IntersectionExampleScenario.node[78].veinsmobility  acceleration  ETV
vector 5886  IntersectionExampleScenario.node[78].veinsmobility  co2emission  ETV
vector 5889  IntersectionExampleScenario.node[79].veinsmobility  posx  ETV
vector 5890  IntersectionExampleScenario.node[79].veinsmobility  posy  ETV
vector 5891  IntersectionExampleScenario.node[79].veinsmobility  speed  ETV
vector 5892  IntersectionExampleScenario.node[79].veinsmobility  acceleration  ETV
vector 5893  IntersectionExampleScenario.node[79].veinsmobility  co2emission  ETV
vector 5896  IntersectionExampleScenario.node[80].veinsmobility  posx  ETV
vector 5897  IntersectionExampleScenario.node[80].veinsmobility  posy  ETV
vector 5898  IntersectionExampleScenario.node[80].veinsmobility  speed  ETV
vector 5899  IntersectionExampleScenario.node[80].veinsmobility  acceleration  ETV
vector 5900  IntersectionExampleScenario.node[80].veinsmobility  co2emission  ETV
vector 5903  IntersectionExampleScenario.node[81].veinsmobility  posx  ETV
vector 5904  IntersectionExampleScenario.node[81].veinsmobility  posy  ETV
vector 5910  IntersectionExampleScenario.node[82].veinsmobility  posx  ETV
vector 5911  IntersectionExampleScenario.node[82].veinsmobility  posy  ETV
vector 5905  IntersectionExampleScenario.node[81].veinsmobility  speed  ETV
vector 5912  IntersectionExampleScenario.node[82].veinsmobility  speed  ETV
vector 5906  IntersectionExampleScenario.node[81].veinsmobility  acceleration  ETV
vector 5907  IntersectionExampleScenario.node[81].veinsmobility  co2emission  ETV
vector 5913  IntersectionExampleScenario.node[82].veinsmobility  acceleration  ETV
vector 5914  IntersectionExampleScenario.node[82].veinsmobility  co2emission  ETV
5746	1756851 5031 15244 19313 158.25 196 152 0.973 12.099024792222 509.65437851529 2931.6333282533
5745	1761882 4570 15244 19313 158.25 196 152 -3.4177932739258 2.5 41.227170944214 260.25388199205
5744	1766452 4895 15229 19313 158 196 153 5.6500000953674 16.27499961853 2208.2856054306 32998.513875184
5743	1771347 5209 15214 19313 157.75 196 154 184.17810058594 486.87908935547 61244.765014648 26091993.249851
5742	1776556 5226 15214 19313 157.75 196 154 236.80914306641 486.85000610352 66920.826568604 29998911.00053
vector 5917  IntersectionExampleScenario.node[83].veinsmobility  posx  ETV
vector 5918  IntersectionExampleScenario.node[83].veinsmobility  posy  ETV
vector 5919  IntersectionExampleScenario.node[83].veinsmobility  speed  ETV
vector 5920  IntersectionExampleScenario.node[83].veinsmobility  acceleration  ETV
vector 5921  IntersectionExampleScenario.node[83].veinsmobility  co2emission  ETV
vector 5924  IntersectionExampleScenario.node[84].veinsmobility  posx  ETV
vector 5925  IntersectionExampleScenario.node[84].veinsmobility  posy  ETV
vector 5926  IntersectionExampleScenario.node[84].veinsmobility  speed  ETV
vector 5927  IntersectionExampleScenario.node[84].veinsmobility  acceleration  ETV
vector 5928  IntersectionExampleScenario.node[84].veinsmobility  co2emission  ETV
vector 5931  IntersectionExampleScenario.node[85].veinsmobility  posx  ETV
vector 5932  IntersectionExampleScenario.node[85].veinsmobility  posy  ETV
vector 5938  IntersectionExampleScenario.node[86].veinsmobility  posx  ETV
vector 5939  IntersectionExampleScenario.node[86].veinsmobility  posy  ETV
vector 5933  IntersectionExampleScenario.node[85].veinsmobility  speed  ETV
vector 5934  IntersectionExampleScenario.node[85].veinsmobility  acceleration  ETV
vector 5935  IntersectionExampleScenario.node[85].veinsmobility  co2emission  ETV
vector 5940  IntersectionExampleScenario.node[86].veinsmobility  speed  ETV
vector 5941  IntersectionExampleScenario.node[86].veinsmobility  acceleration  ETV
vector 5942  IntersectionExampleScenario.node[86].veinsmobility  co2emission  ETV
vector 5945  IntersectionExampleScenario.node[87].veinsmobility  posx  ETV
vector 5946  IntersectionExampleScenario.node[87].veinsmobility  posy  ETV
vector 5947  IntersectionExampleScenario.node[87].veinsmobility  speed  ETV
vector 5948  IntersectionExampleScenario.node[87].veinsmobility  acceleration  ETV
vector 5949  IntersectionExampleScenario.node[87].veinsmobility  co2emission  ETV
5774	1783762 5000 15646 20404 164.5 202.25 152 0.973 12.26218747632 532.89367022912 3188.8601019495
5773	1788762 4592 15646 20404 164.5 202.25 152 -3.8640041351318 2.5 42.585195541382 315.18210408579
5772	1793354 4863 15628 20404 164.25 202.25 153 5.6500000953674 16.5 2175.8598589897 32665.706014073
5771	1798217 5205 15609 20404 164 202.25 154 184.17810058594 483.14999389648 61109.390350342 25936609.754631
5770	1803422 5231 15609 20404 164 202.25 154 486.85000610352 731.15892028809 82545.045120239 45098187.987175
vector 5952  IntersectionExampleScenario.node[88].veinsmobility  posx  ETV
vector 5953  IntersectionExampleScenario.node[88].veinsmobility  posy  ETV
vector 5954  IntersectionExampleScenario.node[88].veinsmobility  speed  ETV
vector 5955  IntersectionExampleScenario.node[88].veinsmobility  acceleration  ETV
vector 5956  IntersectionExampleScenario.node[88].veinsmobility  co2emission  ETV
5732	1809049 6525 14927 21048 153.25 206 212 0.973 11.810082123732 593.0859259185 3074.0397990552
5731	1815574 5897 14927 21048 153.25 206 212 -6.9388580322266 4 39.869146347046 481.49561185204
5730	1821471 6253 14910 21048 153 206 213 0 15.875 2183.3810286522 31318.381264493
5729	1827724 7205 14893 21048 152.75 206 214 486.85000610352 734.37205505371 112260.66159058 59912714.17208
5728	1834929 7266 14893 21048 152.75 206 214 486.63604736328 785.82187652588 118489.66582489 67553744.01986
5788	1842195 5374 15705 21048 165.25 206 164 0.973 11.648172402475 521.7894859655 2820.6509807782
5787	1847569 4940 15705 21048 165.25 206 164 -3.3835163116455 2.5 38.171613693237 329.97004562955
5786	1852509 5331 15684 21048 165 206 165 4.5804667472839 15.64999961853 2183.8789844513 30664.647429468
5785	1857840 5627 15663 21048 164.75 206 166 236.59014892578 483.14999389648 71971.395812988 32143961.72109
5784	1863467 5616 15663 21048 164.75 206 166 184.17810058594 483.14999389648 66283.498291016 28230246.636406
5739	1869083 7066 14992 21426 154.25 208.25 217 0.973 11.476553705853 590.49334442606 2825.4551534922
5738	1876149 7035 14992 21426 154.25 208.25 217 -4.5 2.5000002384186 38.001859664917 418.88719448102
5737	1883184 7378 14975 21426 154 208.25 218 0 15.410838127136 2294.4079080299 31557.610913898
5736	1890562 7439 14958 21426 153.75 208.25 219 237.12023925781 486.85000610352 98159.0519104 45073444.128791
5735	1898001 7432 14958 21426 153.75 208.25 219 483.12484741211 807.99687957764 123353.135849 71862948.71835
5753	1905433 5816 15442 21426 161.5 208.25 188 0.973 11.990504229548 565.79001652483 3084.654336676
5752	1911249 6015 15442 21426 161.5 208.25 188 -3.102912902832 2.5000009536743 41.396924972534 321.34120650854
5751	1917264 6231 15426 21426 161.25 208.25 189 1.885338306427 16.125 2211.8257319927 30542.575583268
5750	1923495 6459 15409 21426 161 208.25 190 486.85000610352 486.85000610352 92501.501159668 45034356.404169
5749	1929954 6426 15409 21426 161 208.25 190 238.1103515625 785.82187652588 99638.229225159 56244619.668738
vector 5959  IntersectionExampleScenario.node[89].veinsmobility  posx  ETV
vector 5960  IntersectionExampleScenario.node[89].veinsmobility  posy  ETV
5760	1936532 6157 15521 21669 162.75 209.75 189 0.95317432489365 12.099024792222 598.82920055845 3286.165529696
5759	1942689 5888 15521 21669 162.75 209.75 189 -4.5 2.5000009536743 42.585195541382 409.0061818372
5758	1948577 6225 15504 21669 162.5 209.75 190 2.9449965953827 16.345149993896 2295.9153373241 32113.326673501
5757	1954802 6496 15487 21669 162.25 209.75 191 486.85000610352 486.85000610352 92988.351165771 45271379.332612
5756	1961298 6470 15487 21669 162.25 209.75 191 239.03491210938 807.09531402588 102272.55109406 59144623.767793
vector 5961  IntersectionExampleScenario.node[89].veinsmobility  speed  ETV
vector 5962  IntersectionExampleScenario.node[89].veinsmobility  acceleration  ETV
vector 5963  IntersectionExampleScenario.node[89].veinsmobility  co2emission  ETV
vector 5966  IntersectionExampleScenario.node[90].veinsmobility  posx  ETV
vector 5967  IntersectionExampleScenario.node[90].veinsmobility  posy  ETV
vector 5973  IntersectionExampleScenario.node[91].veinsmobility  posx  ETV
vector 5974  IntersectionExampleScenario.node[91].veinsmobility  posy  ETV
vector 5968  IntersectionExampleScenario.node[90].veinsmobility  speed  ETV
vector 5969  IntersectionExampleScenario.node[90].veinsmobility  acceleration  ETV
vector 5970  IntersectionExampleScenario.node[90].veinsmobility  co2emission  ETV
vector 5975  IntersectionExampleScenario.node[91].veinsmobility  speed  ETV
vector 5976  IntersectionExampleScenario.node[91].veinsmobility  acceleration  ETV
vector 5977  IntersectionExampleScenario.node[91].veinsmobility  co2emission  ETV
vector 5980  IntersectionExampleScenario.node[92].veinsmobility  posx  ETV
vector 5981  IntersectionExampleScenario.node[92].veinsmobility  posy  ETV
vector 5982  IntersectionExampleScenario.node[92].veinsmobility  speed  ETV
vector 5983  IntersectionExampleScenario.node[92].veinsmobility  acceleration  ETV
vector 5984  IntersectionExampleScenario.node[92].veinsmobility  co2emission  ETV
vector 5987  IntersectionExampleScenario.node[93].veinsmobility  posx  ETV
vector 5988  IntersectionExampleScenario.node[93].veinsmobility  posy  ETV
5767	1969352 6476 15592 22513 163.75 214.5 204 0.973 11.36141391502 579.6004705837 2977.6596898756
5766	1975828 6675 15592 22513 163.75 214.5 204 -4.5 2.5 37.852834701538 387.80764571745
5765	1982503 6648 15574 22513 163.5 214.5 205 3.184645652771 15.25 2317.8334739208 29368.906167368
5764	1989151 6999 15555 22513 163.25 214.5 206 486.85000610352 733.98078918457 108842.83821106 58559864.509051
5763	1996150 6986 15555 22513 163.25 214.5 206 486.85000610352 818.66606903076 119728.70215607 72004078.775347
vector 5989  IntersectionExampleScenario.node[93].veinsmobility  speed  ETV
vector 5994  IntersectionExampleScenario.node[94].veinsmobility  posx  ETV
vector 5995  IntersectionExampleScenario.node[94].veinsmobility  posy  ETV
vector 5990  IntersectionExampleScenario.node[93].veinsmobility  acceleration  ETV
vector 5991  IntersectionExampleScenario.node[93].veinsmobility  co2emission  ETV
vector 5996  IntersectionExampleScenario.node[94].veinsmobility  speed  ETV
vector 6001  IntersectionExampleScenario.node[95].veinsmobility  posx  ETV
vector 6002  IntersectionExampleScenario.node[95].veinsmobility  posy  ETV
vector 5997  IntersectionExampleScenario.node[94].veinsmobility  acceleration  ETV
vector 5998  IntersectionExampleScenario.node[94].veinsmobility  co2emission  ETV
vector 6003  IntersectionExampleScenario.node[95].veinsmobility  speed  ETV
vector 6004  IntersectionExampleScenario.node[95].veinsmobility  acceleration  ETV
vector 6005  IntersectionExampleScenario.node[95].veinsmobility  co2emission  ETV
vector 6008  IntersectionExampleScenario.node[96].veinsmobility  posx  ETV
vector 6009  IntersectionExampleScenario.node[96].veinsmobility  posy  ETV
5795	2004324 5323 16407 22947 174 216.75 172 0.973 11.648172402475 515.7355540105 2909.0263094749
5794	2009647 5398 16407 22947 174 216.75 172 -2.7955589294434 2.5 38.001859664917 264.10051969989
5793	2015045 5556 16386 22947 173.75 216.75 173 5.6500000953674 15.64999961853 2183.9765148163 28946.823943924
5792	2020601 5851 16365 22947 173.5 216.75 174 486.85000610352 733.1529083252 92949.261169434 50610224.816093
5791	2026452 5906 16365 22947 173.5 216.75 174 486.82141113281 785.82187652588 99546.196327209 58716110.659807
vector 6010  IntersectionExampleScenario.node[96].veinsmobility  speed  ETV
5830	2032435 4871 17137 22998 180.5 217 147 0.973 12.44402232946 498.50891995123 2917.9168879266
5829	2037306 4403 17137 22998 180.5 217 147 -3.5515937805176 2.5 42.415441513062 225.37559493981
5828	2041709 4765 17105 22998 180.25 217 148 5.6500000953674 16.75 2216.1186733246 34069.548960878
5827	2046474 5064 17074 22998 180 217 149 483.14999389648 483.14999389648 71989.349090576 34781653.573724
5826	2051538 5024 17074 22998 180 217 149 184.17810058594 732.669921875 66571.438690186 33690794.750884
vector 6011  IntersectionExampleScenario.node[96].veinsmobility  acceleration  ETV
vector 6012  IntersectionExampleScenario.node[96].veinsmobility  co2emission  ETV
5802	2056729 5501 16478 23049 174.75 217.25 171 0.973 11.990504229548 526.49807061875 2947.8846619154
5801	2062230 5352 16478 23049 174.75 217.25 171 -4.5 2.5 39.699392318726 286.06087534767
5800	2067582 5593 16453 23049 174.5 217.25 172 5.6500000953674 16.125 2314.633810997 32407.631380758
5799	2073175 5883 16428 23049 174.25 217.25 173 486.85000610352 486.85000610352 84225.051055908 41004966.620638
5798	2079058 5870 16428 23049 174.25 217.25 173 235.51245117188 808.82032012939 92396.117210388 54002125.255231
5823	2084928 5513 16667 23448 176.5 219.25 172 0.973 11.5772374072 508.11351400625 2583.3488933363
5822	2090441 5522 16667 23448 176.5 219.25 172 -4.4188079833984 2.5 38.341367721558 211.71468669464
5821	2095963 5731 16638 23448 176.25 219.25 173 5.6500000953674 15.551230430603 2342.9393935204 32781.296723292
5820	2101694 5915 16609 23448 176 219.25 174 486.85000610352 486.85000610352 84711.901062012 41241989.549081
5819	2107609 5889 16609 23448 176 219.25 174 236.00567626953 816.55704498291 93271.108451843 54874656.88173
vector 6015  IntersectionExampleScenario.node[97].veinsmobility  posx  ETV
vector 6016  IntersectionExampleScenario.node[97].veinsmobility  posy  ETV
vector 6017  IntersectionExampleScenario.node[97].veinsmobility  speed  ETV
vector 6018  IntersectionExampleScenario.node[97].veinsmobility  acceleration  ETV
vector 6019  IntersectionExampleScenario.node[97].veinsmobility  co2emission  ETV
5851	2113894 5288 17550 24213 183.75 223.25 159 0.973 11.54047740176 472.60364475868 2356.264067516
5850	2119182 4588 17550 24213 183.75 223.25 159 -3.0663375854492 2.5 37.492597579956 180.58720900634
5849	2123770 5210 17515 24213 183.5 223.25 160 5.6500000953674 15.5 2266.081029892 32687.560019182
5848	2128980 5475 17480 24213 183.25 223.25 161 483.14999389648 483.14999389648 77787.149017334 37582860.57295
5847	2134455 5436 17480 24213 183.25 223.25 161 172.9296875 734.35836791992 71447.429763794 36170130.914485
5858	2139891 5174 17973 24692 186.75 225.75 157 0.973 11.810082123732 515.400247613 2947.9835336646
5857	2145065 5017 17973 24692 186.75 225.75 157 -3.5341472625732 2.5 39.869146347046 293.26689019128
5856	2150082 5058 17937 24692 186.5 225.75 158 5.6500000953674 15.875 2187.9873404503 31751.306117526
5855	2155140 5402 17900 24692 186.25 225.75 159 486.85000610352 734.05308532715 85459.723419189 46847771.135983
5854	2160542 5397 17900 24692 186.25 225.75 159 486.6686706543 785.82187652588 91053.380470276 53868055.797884
5872	2165939 4891 18471 24877 190.25 226.75 147 0.973 11.54047740176 504.31889527702 2608.7548434463
5871	2170830 4851 18471 24877 190.25 226.75 147 -3.7210922241211 2.5 43.264211654663 210.16902121914
5870	2175681 4784 18436 24877 190 226.75 148 5.6500000953674 16.616903305054 2219.9043874741 34200.659842305
5869	2180465 5067 18401 24877 189.75 226.75 149 483.14999389648 483.14999389648 71989.349090576 34781653.573724
5868	2185532 5044 18401 24877 189.75 226.75 149 184.17810058594 733.53523254395 66478.234085083 33624677.546533
5879	2190576 5118 18785 25536 192.5 231 155 0.973 11.648172402475 467.21913199159 2455.9456036607
5878	2195694 5080 18785 25536 192.5 231 155 -3.6405220031738 2.5 37.662351608276 195.00799892523
5877	2200774 5067 18750 25536 192.25 231 156 5.6500000953674 15.64999961853 2213.0880718231 32002.803732919
5876	2205841 5336 18715 25536 192 231 157 486.85000610352 486.85000610352 76435.450958252 37212599.76555
5875	2211177 5310 18715 25536 192 231 157 237.65191650391 785.82187652588 81876.67502594 46849651.382265
vector 6022  IntersectionExampleScenario.node[98].veinsmobility  posx  ETV
vector 6023  IntersectionExampleScenario.node[98].veinsmobility  posy  ETV
vector 6024  IntersectionExampleScenario.node[98].veinsmobility  speed  ETV
vector 6025  IntersectionExampleScenario.node[98].veinsmobility  acceleration  ETV
vector 6026  IntersectionExampleScenario.node[98].veinsmobility  co2emission  ETV
5893	2216883 5518 19002 26144 194 235.5 167 0.973 11.200708441096 495.18195122331 2486.0331470956
5892	2222401 4955 19002 26144 194 235.5 167 -3.5915718078613 2.5 35.625318527222 262.12732146963
5891	2227356 5420 18965 26144 193.75 235.5 168 5.6500000953674 15.02499961853 2221.5675764084 30485.413382704
5890	2232776 5721 18928 26144 193.5 235.5 169 235.30889892578 483.14999389648 73003.307647705 32519595.470549
5889	2238497 5722 18928 26144 193.5 235.5 169 176.21716308594 483.3264465332 66727.455383301 28253829.845369
5907	2244219 5377 19272 26237 195.75 236.25 163 0.973 11.648172402475 513.13664466445 2757.1618100818
5906	2249596 4806 19272 26237 195.75 236.25 163 -3.5098495483398 2.5 38.341367721558 280.53243225752
5905	2254402 5255 19231 26237 195.5 236.25 164 5.6500000953674 15.64999961853 2233.6617050171 31792.587487303
5904	2259657 5608 19190 26237 195.25 236.25 165 486.85000610352 734.23564147949 88597.146316528 48516186.11262
5903	2265265 5587 19190 26237 195.25 236.25 165 486.76641845703 797.07032012939 95121.603050232 56755850.25939
vector 6029  IntersectionExampleScenario.node[99].veinsmobility  posx  ETV
vector 6030  IntersectionExampleScenario.node[99].veinsmobility  posy  ETV
vector 6031  IntersectionExampleScenario.node[99].veinsmobility  speed  ETV
vector 6032  IntersectionExampleScenario.node[99].veinsmobility  acceleration  ETV
vector 6033  IntersectionExampleScenario.node[99].veinsmobility  co2emission  ETV
vector 6036  IntersectionExampleScenario.node[100].veinsmobility  posx  ETV
vector 6037  IntersectionExampleScenario.node[100].veinsmobility  posy  ETV
vector 6038  IntersectionExampleScenario.node[100].veinsmobility  speed  ETV
vector 6039  IntersectionExampleScenario.node[100].veinsmobility  acceleration  ETV
vector 6040  IntersectionExampleScenario.node[100].veinsmobility  co2emission  ETV
5900	2271649 5812 19153 26835 195 241.25 186 0.973 12.553400930962 594.98583228091 3525.3579984204
5899	2277461 5587 19153 26835 195 241.25 186 -8.7560472488403 4 42.754949569702 532.57116308819
[...]
10653	26314838 5835 219208 225659 1729.75 1770.75 165 0.973 11.200708441096 528.9158530383 3054.5466230223
10652	26320673 5535 219208 225659 1729.75 1770.75 165 -4.7352447509766 2.5 35.964826583862 297.06211262124
10651	26326208 5905 219167 225659 1729.5 1770.75 166 5.6500000953674 15.02499961853 2217.5327425003 30215.947977526
10650	26332113 6181 219126 225659 1729.25 1770.75 167 486.85000610352 486.85000610352 81303.951019287 39582829.04998
10649	26338294 6165 219126 225659 1729.25 1770.75 167 236.56109619141 785.82187652588 87167.613517761 49778832.990304
vector 10775  IntersectionExampleScenario.node[777].veinsmobility  posx  ETV
vector 10776  IntersectionExampleScenario.node[777].veinsmobility  posy  ETV
10660	26344615 5958 219499 225927 1731.5 1772.5 165 0.973 11.200708441096 501.12852913839 2475.6078922982
10659	26350573 5656 219499 225927 1731.5 1772.5 165 -4.5 2.5 36.98334312439 220.55010777837
10658	26356229 5935 219456 225927 1731.25 1772.5 166 5.6500000953674 15.02499961853 2286.3751621246 32034.196310425
10657	26362164 6178 219413 225927 1731 1772.5 167 486.85000610352 486.85000610352 81303.951019287 39582829.04998
10656	26368342 6171 219413 225927 1731 1772.5 167 238.54437255859 805.05782318115 88880.391723633 51925811.386921
vector 10777  IntersectionExampleScenario.node[777].veinsmobility  speed  ETV
vector 10778  IntersectionExampleScenario.node[777].veinsmobility  acceleration  ETV
vector 10779  IntersectionExampleScenario.node[777].veinsmobility  co2emission  ETV
vector 10782  IntersectionExampleScenario.node[778].veinsmobility  posx  ETV
vector 10783  IntersectionExampleScenario.node[778].veinsmobility  posy  ETV
vector 10784  IntersectionExampleScenario.node[778].veinsmobility  speed  ETV
vector 10785  IntersectionExampleScenario.node[778].veinsmobility  acceleration  ETV
vector 10786  IntersectionExampleScenario.node[778].veinsmobility  co2emission  ETV
10667	26375169 5477 220406 226325 1736.75 1775 154 0.96333723109819 12.099024792222 508.60884935278 3076.3767088126
10666	26380646 5349 220406 226325 1736.75 1775 154 -3.4436531066895 2.5 40.208654403687 267.70275347648
10665	26385995 5439 220361 226325 1736.5 1775 155 5.6500000953674 16.27499961853 2212.5603218079 32636.982524599
10664	26391434 5761 220316 226325 1736.25 1775 156 483.14999389648 734.24822998047 83612.405014038 45756575.536394
10663	26397195 5735 220316 226325 1736.25 1775 156 184.17810058594 486.87286376953 62090.069519043 26461297.160421
vector 10789  IntersectionExampleScenario.node[779].veinsmobility  posx  ETV
vector 10790  IntersectionExampleScenario.node[779].veinsmobility  posy  ETV
vector 10791  IntersectionExampleScenario.node[779].veinsmobility  speed  ETV
10674	26403165 5751 221228 227205 1741.5 1781.25 160 0.973 11.648172402475 506.66245044688 2754.5685785452
10673	26408916 5453 221228 227205 1741.5 1781.25 160 -3.6171493530273 2.5 38.341367721558 282.88689604638
10672	26414369 5636 221189 227205 1741.25 1781.25 161 5.6500000953674 15.64999961853 2189.0222263336 31124.661077082
10671	26420005 5991 221149 227205 1741 1781.25 162 486.85000610352 734.29057312012 87140.52557373 47809850.618158
10670	26425996 5985 221149 227205 1741 1781.25 162 486.73663330078 785.82187652588 92682.084877014 54771712.01939
vector 10796  IntersectionExampleScenario.node[780].veinsmobility  posx  ETV
vector 10797  IntersectionExampleScenario.node[780].veinsmobility  posy  ETV
vector 10792  IntersectionExampleScenario.node[779].veinsmobility  acceleration  ETV
vector 10793  IntersectionExampleScenario.node[779].veinsmobility  co2emission  ETV
vector 10798  IntersectionExampleScenario.node[780].veinsmobility  speed  ETV
10688	26432387 5652 221392 227270 1742.5 1781.75 158 0.973 11.810082123732 509.98955174528 2862.2227432109
10687	26438039 5416 221392 227270 1742.5 1781.75 158 -3.8633232116699 2.5 39.020376205444 290.68591294712
10686	26443455 5559 221349 227270 1742.25 1781.75 159 5.6500000953674 15.875 2180.1505804062 31298.173476065
10685	26449014 5912 221306 227270 1742 1781.75 160 237.63616943359 483.14999389648 69255.709564209 30885148.212608
10684	26454926 5892 221306 227270 1742 1781.75 160 184.17810058594 483.16455078125 63567.950592041 26987591.558494
vector 10799  IntersectionExampleScenario.node[780].veinsmobility  acceleration  ETV
vector 10800  IntersectionExampleScenario.node[780].veinsmobility  co2emission  ETV
vector 10803  IntersectionExampleScenario.node[781].veinsmobility  posx  ETV
vector 10804  IntersectionExampleScenario.node[781].veinsmobility  posy  ETV
vector 10805  IntersectionExampleScenario.node[781].veinsmobility  speed  ETV
vector 10806  IntersectionExampleScenario.node[781].veinsmobility  acceleration  ETV
vector 10807  IntersectionExampleScenario.node[781].veinsmobility  co2emission  ETV
vector 10810  IntersectionExampleScenario.node[782].veinsmobility  posx  ETV
vector 10811  IntersectionExampleScenario.node[782].veinsmobility  posy  ETV
vector 10812  IntersectionExampleScenario.node[782].veinsmobility  speed  ETV
vector 10813  IntersectionExampleScenario.node[782].veinsmobility  acceleration  ETV
vector 10814  IntersectionExampleScenario.node[782].veinsmobility  co2emission  ETV
10723	26461801 5839 222373 228057 1748.5 1788.75 162 0.973 11.36141391502 497.74703185032 2617.2534759618
10722	26467640 5675 222373 228057 1748.5 1788.75 162 -3.663761138916 2.5 36.98334312439 276.77016491947
10721	26473315 5713 222330 228057 1748.25 1788.75 163 5.6500000953674 15.25 2184.9846515656 30525.973415649
10720	26479028 6046 222287 228057 1748 1788.75 164 486.85000610352 733.60649108887 88237.899246216 48422553.726348
10719	26485074 6059 222287 228057 1748 1788.75 164 486.85000610352 785.82187652588 93861.034065247 55483371.09716
vector 10817  IntersectionExampleScenario.node[783].veinsmobility  posx  ETV
vector 10818  IntersectionExampleScenario.node[783].veinsmobility  posy  ETV
vector 10819  IntersectionExampleScenario.node[783].veinsmobility  speed  ETV
vector 10820  IntersectionExampleScenario.node[783].veinsmobility  acceleration  ETV
vector 10821  IntersectionExampleScenario.node[783].veinsmobility  co2emission  ETV
10597	26491539 8561 218630 228368 1725.5 1791.75 266 0.973 12.099024792222 660.94052330366 3394.0475487188
10596	26500100 8057 218630 228368 1725.5 1791.75 266 -7.1477041244507 4 40.378400802612 516.35514714301
10595	26508157 8110 218603 228368 1725.25 1791.75 267 0 16.27499961853 2173.025850296 31401.379070245
10594	26516267 9904 218576 228368 1725 1791.75 268 486.63604736328 785.82187652588 145322.34960175 80869636.731975
10593	26526171 9848 218576 228368 1725 1791.75 268 238.07672119141 483.14999389648 121622.74234009 56242585.741311
10625	26536019 8327 218978 228395 1728.25 1792 256 0.973 11.810082123732 639.34071033706 3166.7302563023
10624	26544346 7839 218978 228395 1728.25 1792 256 -9.4119367599487 4 39.869146347046 520.96543831745
10623	26552185 7905 218943 228395 1728 1792 257 0 15.875 2184.2118520737 31331.167095645
10622	26560090 9525 218910 228395 1727.75 1792 258 184.17810058594 483.36395263672 109841.47375488 48823081.197222
10621	26569615 9475 218910 228395 1727.75 1792 258 486.85000610352 734.37205505371 133682.06190491 70341723.08032
10639	26579090 8794 219087 228584 1729 1793.75 260 0.973 12.099024792222 646.75776796588 3193.0265573352
10638	26587884 8801 219087 228584 1729 1793.75 260 -4.5 2.5 40.038900375366 464.9943740523
10637	26596685 8893 219050 228584 1728.75 1793.75 261 0 16.27499961853 2150.9727017526 30487.611176726
10636	26605578 9678 219013 228584 1728.5 1793.75 262 483.04345703125 770.14542388916 141590.22802734 78281001.712515
10635	26615256 9689 219013 228584 1728.5 1793.75 262 483.14999389648 735.08760070801 134904.31620789 70593287.147155
10604	26624945 9704 218690 228746 1726 1795.25 278 0.973 11.54047740176 696.53596664353 3250.8501759272
10603	26634649 10011 218690 228746 1726 1795.25 278 -4.5 2.5000009536743 37.662351608276 513.63505885921
10602	26644660 10056 218659 228746 1725.75 1795.25 279 0 15.5 2302.136440374 30279.813569535
10601	26654716 10295 218630 228746 1725.5 1795.25 280 238.31140136719 809.56562805176 148866.0432663 84249699.758826
10600	26665011 10360 218630 228746 1725.5 1795.25 280 483.14999389648 483.14999389648 135281.99829102 65361496.648608
10681	26675371 7401 221392 228908 1742.5 1796.75 218 0.973 11.200708441096 562.12948525639 2650.9547691371
10680	26682772 7642 221392 228908 1742.5 1796.75 218 -4.5 2.5 35.455564498901 368.46626748848
10679	26690414 7902 221349 228908 1742.25 1796.75 219 0 15.02499961853 2187.2985455729 27754.032542427
10678	26698316 8097 221306 228908 1742 1796.75 220 184.17810058594 483.22619628906 90520.244934082 39171305.48994
10677	26706413 8131 221306 228908 1742 1796.75 220 486.85000610352 734.32479858398 115760.19084167 61995286.178456
10695	26714544 7330 221718 228962 1744.5 1797.25 212 0.973 11.54047740176 588.55869627302 2886.8280450826
10694	26721874 7373 221718 228962 1744.5 1797.25 212 -4.5 2.5 38.001859664917 423.70836327024
10693	26729247 7694 221677 228962 1744.25 1797.25 213 1.6588513851166 15.5 2285.3368253708 29912.667757259
10692	26736941 7863 221636 228962 1744 1797.25 214 166.078125 732.36087036133 93889.920501709 45765395.102101
10691	26744804 7917 221636 228962 1744 1797.25 214 486.85000610352 486.85000610352 104185.90130615 50722906.6868
10632	26752721 9817 219013 229038 1728.5 1798 279 0.973 11.838708253715 688.04569578373 3132.7483976999
10631	26762538 10223 219013 229038 1728.5 1798 279 -4.5 2.5000004768372 40.676557540894 471.09732189782
10630	26772761 10255 218978 229038 1728.25 1798 280 0 15.914716720581 2318.5060483422 30996.442048043
10629	26783016 10367 218943 229038 1728 1798 281 483.02551269531 813.28979492188 157788.96199036 91281055.116466
10628	26793383 10392 218943 229038 1728 1798 281 483.14999389648 733.81034851074 144143.5037384 75092928.631239
10709	26803775 7588 221960 229188 1746 1799.5 215 0.973 11.90022389248 620.11697731565 3265.7632085768
10708	26811363 7471 221960 229188 1746 1799.5 215 -4.5 2.5 40.038900375366 452.79575810159
10707	26818834 7707 221919 229188 1745.75 1799.5 216 0.50780415534973 16 2330.3873342872 31365.289129198
10706	26826541 8001 221878 229188 1745.5 1799.5 217 154.83435058594 486.85000610352 85629.868835449 36068983.066416
10705	26834542 8015 221878 229188 1745.5 1799.5 217 235.60491943359 486.85000610352 97374.41897583 44763110.442992
vector 10824  IntersectionExampleScenario.node[784].veinsmobility  posx  ETV
vector 10825  IntersectionExampleScenario.node[784].veinsmobility  posy  ETV
10646	26842713 9980 219167 229239 1729.5 1800 283 0.973 11.450879080643 677.63685743299 2962.9813613698
10645	26852693 10048 219167 229239 1729.5 1800 283 -4.5 2.5 43.300848007202 436.83860829805
10644	26862741 10154 219126 229239 1729.25 1800 284 0 15.375 2303.2244859552 29938.457407188
10643	26872895 10518 219087 229239 1729 1800 285 483.14999389648 821.80533599854 162167.91882324 95193448.351062
10642	26883413 10536 219087 229239 1729 1800 285 483.14999389648 720.41407775879 145305.59823608 75082070.056002
10702	26893949 7365 221960 229239 1746 1800 217 0.973 10.756497587458 530.37352086325 2418.3623195031
10701	26901314 7960 221960 229239 1746 1800 217 -3.8536789417267 2.5 34.606801986694 298.22647519418
10700	26909274 7781 221919 229239 1745.75 1800 218 0 14.643846511841 1978.8300491013 24006.225522581
10699	26917055 8077 221878 229239 1745.5 1800 219 482.93792724609 785.82187652588 124394.16203308 72451136.010857
10698	26925132 8099 221878 229239 1745.5 1800 219 483.14999389648 676.25471496582 111178.82014465 57000947.392007
10716	26933231 7153 222330 229239 1748.25 1800 208 0.973 10.756497587458 537.25301142094 2515.6719795199
10715	26940384 7369 222330 229239 1748.25 1800 208 -4.5 2.5 32.909269332886 335.90873669792
10714	26947753 7521 222287 229239 1748 1800 209 1.4842237234116 14.39999961853 2179.9287525415 26739.957967641
10713	26955274 7737 222246 229239 1747.75 1800 210 152.62030029297 693.27256774902 87187.534912109 40458678.853363
10712	26963011 7769 222246 229239 1747.75 1800 210 486.85000610352 486.85000610352 102238.50128174 49774814.973028
10730	26970780 5713 223288 229239 1754.5 1800 183 0.973 11.200708441096 362.8707176064 1482.9436345005
10729	26976493 5532 223288 229239 1754.5 1800 183 -6.9167938232422 4 -1.1000003814697 366.7155506532
10728	26982025 5507 223252 229239 1754.25 1800 184 0 15.02499961853 1172.7728402615 15551.140927834
10727	26987532 6843 223215 229239 1754 1800 185 486.85000610352 486.85000610352 90067.25112915 43849241.761954
10726	26994375 6839 223215 229239 1754 1800 185 493.54061889648 785.82187652588 105438.25421906 61835541.083235
10737	27001214 5615 223397 229239 1755.25 1800 180 0.973 11.648172402475 371.16555277445 1622.7109306847
10736	27006829 5400 223397 229239 1755.25 1800 180 -9.1619300842285 4 -1.1000003814697 415.28311790407
10735	27012229 5382 223360 229239 1755 1800 181 0 15.64999961853 1171.399753809 16239.447464218
10734	27017611 6733 223323 229239 1754.75 1800 182 483.14999389648 484.55718994141 87936.505432129 42488074.453579
10733	27024344 6705 223323 229239 1754.75 1800 182 184.17810058594 476.20910644531 73026.344970703 31018633.146709
10744	27031049 5635 223900 229239 1758.75 1800 166 0.973 11.200708441096 338.80321200217 1412.8561409087
10743	27036684 6147 223900 229239 1758.75 1800 166 -3.7441108226776 2.5 -4.8854846954346 254.26831160784
10742	27042831 6135 223863 229239 1758.5 1800 167 0 15.02499961853 1178.60946922 15068.706429322
10741	27048966 6216 223826 229239 1758.25 1800 168 483.14999389648 483.14999389648 81169.198974609 39216897.989165
10740	27055182 6176 223826 229239 1758.25 1800 168 174.53436279297 468.06408691406 64482.119628906 26406961.993262
10751	27061358 5116 224327 229239 1761.75 1800 154 0.973 11.200708441096 334.28926150796 1456.2003844613
10750	27066474 5744 224327 229239 1761.75 1800 154 -3.6863129138947 2.5000004768372 -4.6040782928467 241.78456684545
10749	27072218 5704 224290 229239 1761.5 1800 155 0 15.667806625366 1140.190523969 14757.485898276
10748	27077922 5772 224253 229239 1761.25 1800 156 486.85000610352 486.85000610352 75948.600952148 36975576.837107
10747	27083694 5756 224253 229239 1761.25 1800 156 502.01791381836 785.82187652588 91344.958213806 54920929.215549
10758	27089450 4758 224977 229239 1766.25 1800 136 0.973 11.580256181707 463.44617907857 2797.2167050321
10757	27094208 4808 224977 229239 1766.25 1800 136 -3.472188949585 2.5 37.49268913269 294.45494000369
10756	27099016 4771 224942 229239 1766 1800 137 5.6500000953674 15.555436134338 1794.7924208641 24660.426381066
10755	27103787 5075 224907 229239 1765.75 1800 138 184.17810058594 483.14999389648 52628.435241699 21603846.058748
10754	27108862 5104 224907 229239 1765.75 1800 138 486.85000610352 636.03137207031 70321.664794922 36070915.871979
10765	27113966 4149 225156 229239 1767.5 1800 131 0.973 12.099024792222 304.3312650636 1645.7388429124
10764	27118115 4661 225156 229239 1767.5 1800 131 -3.8087298870087 2.5 -16.516945838928 214.25939100305
10763	27122776 4867 225119 229239 1767.25 1800 132 0 16.27499961853 1096.7124309763 13621.346138153
10762	27127643 4919 225082 229239 1767 1800 133 483.14999389648 483.14999389648 64258.949188232 31046710.908089
10761	27132562 4891 225082 229239 1767 1800 133 184.17810058594 458.22354125977 48650.709838867 18946059.024317
10772	27137453 4347 225308 229239 1768.5 1800 127 0.973 11.440161957732 295.29555531967 1378.3399479366
10771	27141800 4609 225308 229239 1768.5 1800 127 -4.5 2.5 -17.198286056519 304.83204227394
10770	27146409 4716 225269 229239 1768.25 1800 128 0 15.360035896301 1148.3468287028 14422.504546127
10769	27151125 4771 225230 229239 1768 1800 129 483.14999389648 483.14999389648 62326.349212646 30112975.24168
10768	27155896 4748 225230 229239 1768 1800 129 162.00311279297 449.0719909668 44402.100402832 16544478.755651
10779	27160644 3534 226005 229239 1773 1800 109 0.973 11.200708441096 259.03536713558 1292.3093118998
10778	27164178 3899 226005 229239 1773 1800 109 -4.5 2.5 -21.953024029732 233.46013515012
10777	27168077 3961 225966 229239 1772.75 1800 110 -0.35919189453125 15.02499961853 1096.860104613 14143.100953935
10776	27172038 4106 225927 229239 1772.5 1800 111 483.14999389648 483.14999389648 53629.64932251 25911164.742841
10775	27176144 4078 225927 229239 1772.5 1800 111 169.84094238281 444.15991210938 37107.805236816 13405441.209617
10786	27180222 3692 226243 229239 1774.5 1800 103 0.973 11.54047740176 353.09616812283 2099.8229678977
10785	27183914 3205 226243 229239 1774.5 1800 103 -3.6199722290039 2.5 38.061460494995 185.83154063276
10784	27187119 3600 226202 229239 1774.25 1800 104 5.6500000953674 15.5 1414.9797525406 19763.079903102
10783	27190719 3878 226161 229239 1774 1800 105 437.26708984375 785.82187652588 64705.468025208 41091357.785959
10782	27194597 3883 226161 229239 1774 1800 105 483.14999389648 483.14999389648 50730.749359131 24510561.243228
10793	27198480 2695 227237 229239 1781.5 1800 75 0.973 11.648172402475 256.81389695756 1469.7970296727
10792	27201175 2753 227237 229239 1781.5 1800 75 -3.0348243713379 2.5 19.488370895386 161.4854823394
10791	27203928 2797 227205 229239 1781.25 1800 76 5.6500000953674 15.905850410461 1085.68724823 16026.338464098
10790	27206725 2829 227172 229239 1781 1800 77 184.17810058594 452.10070800781 23763.448699951 7873929.4584189
10789	27209554 2847 227172 229239 1781 1800 77 486.85000610352 486.85000610352 37487.450469971 18250765.49011
10800	27212401 2662 227302 229239 1782 1800 73 0.973 11.407177666965 252.41290012563 1444.8672173034
10799	27215063 2574 227302 229239 1782 1800 73 -0.5 2.5 38.177618026733 99.450456202296
10798	27217637 2736 227270 229239 1781.75 1800 74 5.6500000953674 15.875202178955 1048.4042978287 15325.517482446
10797	27220373 2758 227237 229239 1781.5 1800 75 160.43438720703 417.43896484375 20847.487487793 6270437.2190927
10796	27223131 2774 227237 229239 1781.5 1800 75 486.85000610352 486.85000610352 36513.750457764 17776719.633224
10807	27225905 1947 227819 229239 1786.5 1800 55 0.973 11.648172402475 208.40562395159 1338.8999805456
10806	27227852 1967 227819 229239 1786.5 1800 55 -2.2286186218262 2.5 23.294500350952 133.07575864808
10805	27229819 2055 227792 229239 1786.25 1800 56 5.6500000953674 15.64999961853 765.92582035065 10908.697317591
10804	27231874 2107 227765 229239 1786 1800 57 483.14999389648 483.14999389648 27539.5496521 13305733.246324
10803	27233981 2087 227765 229239 1786 1800 57 184.17810058594 371.7951965332 15367.048309326 4345456.0861367
10814	27236068 1804 227976 229239 1788 1800 49 1.2918632710966 11.648172402475 202.97179380186 1333.411897012
10813	27237872 1754 227976 229239 1788 1800 49 -0.24490737915039 2.5 39.020444869995 100.13708659992
10812	27239626 1837 227949 229239 1787.75 1800 50 5.6500000953674 15.64999961853 690.15273284912 9941.7271547032
10811	27241463 1886 227922 229239 1787.5 1800 51 486.85000610352 486.85000610352 24829.350311279 12088169.350593
10810	27243349 1882 227922 229239 1787.5 1800 51 618.45021057129 785.82187652588 36300.222373962 25978516.593614
10821	27245231 1240 228368 229239 1791.75 1800 34 0.973 11.200708441096 158.02206539601 1121.1691860087
10820	27246471 1146 228368 229239 1791.75 1800 34 -0.34135818481445 2.5 36.140340805054 94.016327638328
10819	27247617 1281 228341 229239 1791.5 1800 35 5.6500000953674 15.02499961853 445.4089384079 5969.3093495739
10818	27248898 1313 228314 229239 1791.25 1800 36 184.17810058594 290.62963867188 8271.801940918 1941636.2457608
10817	27250211 1332 228314 229239 1791.25 1800 36 486.85000610352 486.85000610352 17526.600219727 8532825.4239478
10825	27251543 35 229239 229239 1800 1800 1 785.82187652588 785.82187652588 785.82187652588 617516.02162665
10824	27251578 35 229239 229239 1800 1800 1 483.14999389648 483.14999389648 483.14999389648 233433.91660217
5332	27251613 611 0 229238 0 1800 31 0 36 675 16123
5333	27252224 627 0 229238 0 1800 31 0 238 3538 560010
