file 27552713 1591452698                                        
version 2
run nodebug-37-20200606-10:07:34-21192
attr configname nodebug
attr datetime 20200606-10:07:34
attr experiment nodebug
attr inifile omnetpp.ini
attr iterationvars ""
attr iterationvars2 $repetition=37
attr measurement ""
attr network "\"org.car2x.veins.modules.application.ExtTraCIScenarioManagerLaunchd.IntersectionExampleScenario\""
attr processid 21192
attr repetition 37
attr replication #37
attr resultdir results
attr runnumber 37
attr seedset 37
param **.coreDebug false
param **.debug false
param *.**.nic.mac1609_4.bitrate 18Mbps
param *.**.nic.mac1609_4.txPower 20mW
param *.**.nic.mac1609_4.useServiceChannel false
param *.**.nic.phy80211p.analogueModels "xmldoc(\"config.xml\")"
param *.**.nic.phy80211p.decider "xmldoc(\"config.xml\")"
param *.**.nic.phy80211p.sensitivity -89dBm
param *.**.nic.phy80211p.thermalNoise -110dBm
param *.**.nic.phy80211p.usePropagationDelay true
param *.**.nic.phy80211p.useThermalNoise true
param *.annotations.draw false
param *.connectionManager.alpha 2.0
param *.connectionManager.carrierFrequency "5.890e9 Hz"
param *.connectionManager.pMax 20mW
param *.connectionManager.sat -89dBm
param *.connectionManager.sendDirect true
param *.manager.autoShutdown true
param *.manager.host "\"localhost\""
param *.manager.launchConfig "xmldoc(\"paramics.launchd.xml\")"
param *.manager.margin 25
param *.manager.moduleDisplayString "\"\""
param *.manager.moduleName "\"node\""
param *.manager.moduleType "\"org.car2x.veins.nodes.Car\""
param *.manager.port 9999
param *.manager.updateInterval 250ms
param *.node[*0].veinsmobility.accidentCount 0
param *.node[*0].veinsmobility.accidentDuration 30s
param *.node[*0].veinsmobility.accidentStart 75s
param *.node[*].appl.LiderSelectZoneRadio 55.0
param *.node[*].appl.ShareDataZoneRadio 110.0
param *.node[*].appl.TiempoSemaforo 30.0
param *.node[*].appl.beaconInterval 1s
param *.node[*].appl.beaconPriority 3
param *.node[*].appl.dataOnSch false
param *.node[*].appl.dataPriority 2
param *.node[*].appl.debug false
param *.node[*].appl.headerLength "256 bit"
param *.node[*].appl.maxOffset 0.005s
param *.node[*].appl.sendBeacons false
param *.node[*].appl.sendData true
param *.node[*].applType "\"Dummy\""
param *.node[*].mobilityType "\"TraCIMobility\""
param *.node[*].mobilityType.debug true
param *.node[*].veinsmobility.x 0
param *.node[*].veinsmobility.y 0
param *.node[*].veinsmobility.z 1.895
param *.node[*].veinsmobilityType "\"org.car2x.veins.modules.mobility.traci.TraCIMobility\""
param *.node[*].veinsmobilityType.debug true
param *.playgroundSizeX 8500m
param *.playgroundSizeY 8500m
param *.playgroundSizeZ 50m
param *.world.use2D false
param *.world.useTorus false

vector 50096  IntersectionExampleScenario.manager  vehiclesinsim  ETV
attr type  int
vector 50097  IntersectionExampleScenario.manager  realtime  ETV
attr type  int
attr unit  s
vector 50100  IntersectionExampleScenario.node[0].veinsmobility  posx  ETV
vector 50101  IntersectionExampleScenario.node[0].veinsmobility  posy  ETV
vector 50102  IntersectionExampleScenario.node[0].veinsmobility  speed  ETV
vector 50103  IntersectionExampleScenario.node[0].veinsmobility  acceleration  ETV
vector 50104  IntersectionExampleScenario.node[0].veinsmobility  co2emission  ETV
vector 50107  IntersectionExampleScenario.node[1].veinsmobility  posx  ETV
vector 50108  IntersectionExampleScenario.node[1].veinsmobility  posy  ETV
vector 50109  IntersectionExampleScenario.node[1].veinsmobility  speed  ETV
vector 50114  IntersectionExampleScenario.node[2].veinsmobility  posx  ETV
vector 50115  IntersectionExampleScenario.node[2].veinsmobility  posy  ETV
vector 50110  IntersectionExampleScenario.node[1].veinsmobility  acceleration  ETV
vector 50111  IntersectionExampleScenario.node[1].veinsmobility  co2emission  ETV
vector 50116  IntersectionExampleScenario.node[2].veinsmobility  speed  ETV
vector 50117  IntersectionExampleScenario.node[2].veinsmobility  acceleration  ETV
vector 50118  IntersectionExampleScenario.node[2].veinsmobility  co2emission  ETV
vector 50121  IntersectionExampleScenario.node[3].veinsmobility  posx  ETV
vector 50122  IntersectionExampleScenario.node[3].veinsmobility  posy  ETV
vector 50123  IntersectionExampleScenario.node[3].veinsmobility  speed  ETV
vector 50124  IntersectionExampleScenario.node[3].veinsmobility  acceleration  ETV
vector 50125  IntersectionExampleScenario.node[3].veinsmobility  co2emission  ETV
vector 50128  IntersectionExampleScenario.node[4].veinsmobility  posx  ETV
vector 50129  IntersectionExampleScenario.node[4].veinsmobility  posy  ETV
vector 50135  IntersectionExampleScenario.node[5].veinsmobility  posx  ETV
vector 50136  IntersectionExampleScenario.node[5].veinsmobility  posy  ETV
vector 50130  IntersectionExampleScenario.node[4].veinsmobility  speed  ETV
vector 50131  IntersectionExampleScenario.node[4].veinsmobility  acceleration  ETV
vector 50132  IntersectionExampleScenario.node[4].veinsmobility  co2emission  ETV
vector 50137  IntersectionExampleScenario.node[5].veinsmobility  speed  ETV
vector 50138  IntersectionExampleScenario.node[5].veinsmobility  acceleration  ETV
vector 50139  IntersectionExampleScenario.node[5].veinsmobility  co2emission  ETV
vector 50142  IntersectionExampleScenario.node[6].veinsmobility  posx  ETV
vector 50143  IntersectionExampleScenario.node[6].veinsmobility  posy  ETV
vector 50144  IntersectionExampleScenario.node[6].veinsmobility  speed  ETV
vector 50145  IntersectionExampleScenario.node[6].veinsmobility  acceleration  ETV
vector 50146  IntersectionExampleScenario.node[6].veinsmobility  co2emission  ETV
vector 50149  IntersectionExampleScenario.node[7].veinsmobility  posx  ETV
vector 50150  IntersectionExampleScenario.node[7].veinsmobility  posy  ETV
vector 50151  IntersectionExampleScenario.node[7].veinsmobility  speed  ETV
vector 50152  IntersectionExampleScenario.node[7].veinsmobility  acceleration  ETV
vector 50153  IntersectionExampleScenario.node[7].veinsmobility  co2emission  ETV
vector 50156  IntersectionExampleScenario.node[8].veinsmobility  posx  ETV
vector 50157  IntersectionExampleScenario.node[8].veinsmobility  posy  ETV
vector 50158  IntersectionExampleScenario.node[8].veinsmobility  speed  ETV
vector 50159  IntersectionExampleScenario.node[8].veinsmobility  acceleration  ETV
vector 50160  IntersectionExampleScenario.node[8].veinsmobility  co2emission  ETV
vector 50163  IntersectionExampleScenario.node[9].veinsmobility  posx  ETV
vector 50164  IntersectionExampleScenario.node[9].veinsmobility  posy  ETV
vector 50165  IntersectionExampleScenario.node[9].veinsmobility  speed  ETV
vector 50166  IntersectionExampleScenario.node[9].veinsmobility  acceleration  ETV
vector 50167  IntersectionExampleScenario.node[9].veinsmobility  co2emission  ETV
vector 50170  IntersectionExampleScenario.node[10].veinsmobility  posx  ETV
vector 50171  IntersectionExampleScenario.node[10].veinsmobility  posy  ETV
vector 50177  IntersectionExampleScenario.node[11].veinsmobility  posx  ETV
vector 50178  IntersectionExampleScenario.node[11].veinsmobility  posy  ETV
vector 50172  IntersectionExampleScenario.node[10].veinsmobility  speed  ETV
vector 50179  IntersectionExampleScenario.node[11].veinsmobility  speed  ETV
vector 50173  IntersectionExampleScenario.node[10].veinsmobility  acceleration  ETV
vector 50174  IntersectionExampleScenario.node[10].veinsmobility  co2emission  ETV
vector 50180  IntersectionExampleScenario.node[11].veinsmobility  acceleration  ETV
vector 50181  IntersectionExampleScenario.node[11].veinsmobility  co2emission  ETV
vector 50184  IntersectionExampleScenario.node[12].veinsmobility  posx  ETV
vector 50185  IntersectionExampleScenario.node[12].veinsmobility  posy  ETV
vector 50186  IntersectionExampleScenario.node[12].veinsmobility  speed  ETV
vector 50187  IntersectionExampleScenario.node[12].veinsmobility  acceleration  ETV
vector 50188  IntersectionExampleScenario.node[12].veinsmobility  co2emission  ETV
vector 50191  IntersectionExampleScenario.node[13].veinsmobility  posx  ETV
vector 50192  IntersectionExampleScenario.node[13].veinsmobility  posy  ETV
vector 50193  IntersectionExampleScenario.node[13].veinsmobility  speed  ETV
vector 50194  IntersectionExampleScenario.node[13].veinsmobility  acceleration  ETV
vector 50195  IntersectionExampleScenario.node[13].veinsmobility  co2emission  ETV
vector 50198  IntersectionExampleScenario.node[14].veinsmobility  posx  ETV
vector 50199  IntersectionExampleScenario.node[14].veinsmobility  posy  ETV
vector 50200  IntersectionExampleScenario.node[14].veinsmobility  speed  ETV
vector 50201  IntersectionExampleScenario.node[14].veinsmobility  acceleration  ETV
vector 50202  IntersectionExampleScenario.node[14].veinsmobility  co2emission  ETV
vector 50205  IntersectionExampleScenario.node[15].veinsmobility  posx  ETV
vector 50206  IntersectionExampleScenario.node[15].veinsmobility  posy  ETV
vector 50207  IntersectionExampleScenario.node[15].veinsmobility  speed  ETV
vector 50208  IntersectionExampleScenario.node[15].veinsmobility  acceleration  ETV
vector 50209  IntersectionExampleScenario.node[15].veinsmobility  co2emission  ETV
vector 50212  IntersectionExampleScenario.node[16].veinsmobility  posx  ETV
vector 50213  IntersectionExampleScenario.node[16].veinsmobility  posy  ETV
vector 50219  IntersectionExampleScenario.node[17].veinsmobility  posx  ETV
vector 50220  IntersectionExampleScenario.node[17].veinsmobility  posy  ETV
vector 50226  IntersectionExampleScenario.node[18].veinsmobility  posx  ETV
vector 50227  IntersectionExampleScenario.node[18].veinsmobility  posy  ETV
vector 50214  IntersectionExampleScenario.node[16].veinsmobility  speed  ETV
vector 50215  IntersectionExampleScenario.node[16].veinsmobility  acceleration  ETV
vector 50216  IntersectionExampleScenario.node[16].veinsmobility  co2emission  ETV
vector 50221  IntersectionExampleScenario.node[17].veinsmobility  speed  ETV
vector 50228  IntersectionExampleScenario.node[18].veinsmobility  speed  ETV
vector 50233  IntersectionExampleScenario.node[19].veinsmobility  posx  ETV
vector 50234  IntersectionExampleScenario.node[19].veinsmobility  posy  ETV
vector 50222  IntersectionExampleScenario.node[17].veinsmobility  acceleration  ETV
vector 50223  IntersectionExampleScenario.node[17].veinsmobility  co2emission  ETV
vector 50229  IntersectionExampleScenario.node[18].veinsmobility  acceleration  ETV
vector 50230  IntersectionExampleScenario.node[18].veinsmobility  co2emission  ETV
vector 50235  IntersectionExampleScenario.node[19].veinsmobility  speed  ETV
vector 50236  IntersectionExampleScenario.node[19].veinsmobility  acceleration  ETV
vector 50237  IntersectionExampleScenario.node[19].veinsmobility  co2emission  ETV
vector 50240  IntersectionExampleScenario.node[20].veinsmobility  posx  ETV
vector 50241  IntersectionExampleScenario.node[20].veinsmobility  posy  ETV
vector 50242  IntersectionExampleScenario.node[20].veinsmobility  speed  ETV
vector 50243  IntersectionExampleScenario.node[20].veinsmobility  acceleration  ETV
vector 50244  IntersectionExampleScenario.node[20].veinsmobility  co2emission  ETV
vector 50247  IntersectionExampleScenario.node[21].veinsmobility  posx  ETV
vector 50248  IntersectionExampleScenario.node[21].veinsmobility  posy  ETV
vector 50249  IntersectionExampleScenario.node[21].veinsmobility  speed  ETV
vector 50250  IntersectionExampleScenario.node[21].veinsmobility  acceleration  ETV
vector 50251  IntersectionExampleScenario.node[21].veinsmobility  co2emission  ETV
50104	11708 4757 13 3490 2 40.25 154 0.973 12.26218747632 523.57545090993 3144.7925962108
50103	16465 4557 13 3490 2 40.25 154 -3.4394798278809 2.5 41.227170944214 302.80224814944
50102	21022 4660 10 3490 1.75 40.25 155 5.6500000953674 16.5 2175.8512306213 32142.649363025
50101	25682 5021 7 3490 1.5 40.25 156 238.94183349609 483.14999389648 67670.491485596 30222946.555156
50100	30703 4998 7 3490 1.5 40.25 156 184.17810058594 483.14999389648 61924.894622803 26282376.759348
vector 50254  IntersectionExampleScenario.node[22].veinsmobility  posx  ETV
vector 50255  IntersectionExampleScenario.node[22].veinsmobility  posy  ETV
vector 50256  IntersectionExampleScenario.node[22].veinsmobility  speed  ETV
vector 50257  IntersectionExampleScenario.node[22].veinsmobility  acceleration  ETV
vector 50258  IntersectionExampleScenario.node[22].veinsmobility  co2emission  ETV
50118	36102 5104 43 3931 3.5 44 163 0.973 11.36141391502 496.1251870503 2595.3906663282
50117	41206 4763 43 3931 3.5 44 163 -3.4301414489746 2.5 36.643835067749 265.75234308176
50116	45969 5006 36 3931 3.25 44 164 5.6500000953674 15.25 2191.122508049 30466.390167276
50115	50975 5332 29 3931 3 44 165 486.85000610352 735.11010742188 88861.405975342 48825266.499655
50114	56307 5330 29 3931 3 44 165 486.85000610352 785.82187652588 94406.139045715 55785592.577343
vector 50261  IntersectionExampleScenario.node[23].veinsmobility  posx  ETV
vector 50262  IntersectionExampleScenario.node[23].veinsmobility  posy  ETV
vector 50263  IntersectionExampleScenario.node[23].veinsmobility  speed  ETV
vector 50264  IntersectionExampleScenario.node[23].veinsmobility  acceleration  ETV
vector 50265  IntersectionExampleScenario.node[23].veinsmobility  co2emission  ETV
50132	62038 5036 264 4500 9.75 49.25 159 0.973 11.36141391502 508.90666622938 2711.103400381
50131	67074 4650 264 4500 9.75 49.25 159 -3.8015403747559 2.5 38.680875778198 285.14698585953
50130	71724 4935 251 4500 9.5 49.25 160 5.6500000953674 15.450834274292 2188.0243463516 31269.425697747
50129	76659 5247 240 4500 9.25 49.25 161 486.85000610352 734.17182922363 86593.506439209 47504788.543585
50128	81906 5262 240 4500 9.25 49.25 161 486.85000610352 785.82187652588 92177.296546936 54515918.34023
50139	87168 5151 277 4600 10 50.25 162 0.973 11.36141391502 497.7395508762 2618.3563097184
50138	92319 5008 277 4600 10 50.25 162 -3.6597461700439 2.5 36.98334312439 276.80053800343
50137	97327 5019 264 4600 9.75 50.25 163 5.6500000953674 15.25 2185.0889239311 30528.85591171
50136	102346 5359 251 4600 9.5 50.25 164 236.40148925781 483.14999389648 70842.681335449 31549057.114853
50135	107705 5342 251 4600 9.5 50.25 164 184.17810058594 483.14999389648 65219.714813232 27701070.422408
50153	113047 5180 384 4825 11.75 52.5 164 0.973 11.810082123732 523.96446108233 2909.4212325053
50152	118227 4900 384 4825 11.75 52.5 164 -4.5 2.5 39.359884262085 292.59793089988
50151	123127 5084 367 4825 11.5 52.5 165 5.6500000953674 15.875 2259.8834223747 32414.918681978
50150	128211 5442 350 4825 11.25 52.5 166 486.85000610352 733.73289489746 88915.951721191 48559418.39263
50149	133653 5440 350 4825 11.25 52.5 166 486.85000610352 803.92188262939 96137.949371338 57691560.798199
vector 50268  IntersectionExampleScenario.node[24].veinsmobility  posx  ETV
vector 50269  IntersectionExampleScenario.node[24].veinsmobility  posy  ETV
vector 50270  IntersectionExampleScenario.node[24].veinsmobility  speed  ETV
vector 50271  IntersectionExampleScenario.node[24].veinsmobility  acceleration  ETV
vector 50272  IntersectionExampleScenario.node[24].veinsmobility  co2emission  ETV
50160	139494 5355 439 5035 12.5 54.5 169 0.973 11.54047740176 528.82146610319 2893.2271035168
50159	144849 5119 439 5035 12.5 54.5 169 -4.5 2.5 36.98334312439 265.53904995534
50158	149968 5350 420 5035 12.25 54.5 170 5.6500000953674 15.5 2345.6355004311 33144.648786288
50157	155318 5612 401 5035 12 54.5 171 486.85000610352 486.85000610352 83251.351043701 40530920.763752
50156	160930 5577 401 5035 12 54.5 171 236.9765625 817.87032318115 92314.08946991 54928187.360856
vector 50275  IntersectionExampleScenario.node[25].veinsmobility  posx  ETV
vector 50276  IntersectionExampleScenario.node[25].veinsmobility  posy  ETV
vector 50277  IntersectionExampleScenario.node[25].veinsmobility  speed  ETV
vector 50278  IntersectionExampleScenario.node[25].veinsmobility  acceleration  ETV
vector 50279  IntersectionExampleScenario.node[25].veinsmobility  co2emission  ETV
50111	166908 6274 29 5223 3 56.25 214 0.973 11.648172402475 586.38227313783 2973.8931582191
50110	173182 5724 29 5223 3 56.25 214 -7.775092124939 4 38.511121749878 480.02722360891
50109	178906 6069 24 5223 2.75 56.25 215 0 15.64999961853 2214.2519137859 31459.955894097
50108	184975 6991 19 5223 2.5 56.25 216 184.17810058594 733.9766998291 98287.928817749 48893788.405237
50107	191966 7018 19 5223 2.5 56.25 216 486.85000610352 486.85000610352 105159.60131836 51196952.543686
50125	198984 6098 96 5223 5.25 56.25 205 0.97223939240464 11.648172402475 578.90252463599 2972.4635779066
50124	205082 5556 96 5223 5.25 56.25 205 -9.2304162979126 4 38.680875778198 510.06008957628
50123	210638 5909 87 5223 5 56.25 206 0 15.64999961853 2215.810362339 31607.268446587
50122	216547 6738 78 5223 4.75 56.25 207 235.46472167969 785.82187652588 106704.33878326 59174716.547486
50121	223285 6748 78 5223 4.75 56.25 207 483.14999389648 483.14999389648 100012.04873657 48320820.73665
50146	230033 5765 320 5466 10.75 58.5 192 0.973 11.36141391502 537.26091776196 2746.5584152336
50145	235798 5862 320 5466 10.75 58.5 192 -2.4945602416992 2.5 37.15309715271 300.18336490606
50144	241660 6009 305 5466 10.5 58.5 193 2.0992202758789 15.25 2188.8607969284 28544.791942154
50143	247669 6339 290 5466 10.25 58.5 194 184.17810058594 483.14999389648 78574.594268799 33653031.937323
50142	254008 6356 290 5466 10.25 58.5 194 486.85000610352 734.1879119873 102860.78012085 55556068.509648
vector 50282  IntersectionExampleScenario.node[26].veinsmobility  posx  ETV
vector 50283  IntersectionExampleScenario.node[26].veinsmobility  posy  ETV
vector 50284  IntersectionExampleScenario.node[26].veinsmobility  speed  ETV
vector 50289  IntersectionExampleScenario.node[27].veinsmobility  posx  ETV
vector 50290  IntersectionExampleScenario.node[27].veinsmobility  posy  ETV
vector 50285  IntersectionExampleScenario.node[26].veinsmobility  acceleration  ETV
vector 50286  IntersectionExampleScenario.node[26].veinsmobility  co2emission  ETV
50167	260919 5215 823 5551 17.5 59.25 168 0.973 11.54047740176 551.50286418203 3120.6130711719
50166	266134 4980 823 5551 17.5 59.25 168 -4.5364990234375 2.5 40.378400802612 317.26689787996
50165	271114 5329 802 5551 17.25 59.25 169 5.6500000953674 15.798172950745 2217.4137201309 30734.816484751
50164	276443 5573 781 5551 17 59.25 170 184.17810058594 733.51409912109 75438.993240356 37573013.398899
50163	282016 5599 781 5551 17 59.25 170 486.85000610352 486.85000610352 82764.501037598 40293897.835309
vector 50291  IntersectionExampleScenario.node[27].veinsmobility  speed  ETV
vector 50292  IntersectionExampleScenario.node[27].veinsmobility  acceleration  ETV
vector 50293  IntersectionExampleScenario.node[27].veinsmobility  co2emission  ETV
vector 50296  IntersectionExampleScenario.node[28].veinsmobility  posx  ETV
vector 50297  IntersectionExampleScenario.node[28].veinsmobility  posy  ETV
vector 50298  IntersectionExampleScenario.node[28].veinsmobility  speed  ETV
vector 50299  IntersectionExampleScenario.node[28].veinsmobility  acceleration  ETV
vector 50300  IntersectionExampleScenario.node[28].veinsmobility  co2emission  ETV
50188	288263 5162 1132 5896 20.75 62 166 0.973 11.200708441096 491.86271045085 2590.6024977111
50187	293425 5217 1132 5896 20.75 62 166 -3.0652198791504 2.5 37.15309715271 204.64643168394
50186	298642 5300 1105 5896 20.5 62 167 5.6500000953674 15.354297637939 2263.418466568 31385.225986528
50185	303942 5502 1078 5896 20.25 62 168 172.9296875 733.77700805664 74336.765136719 37369883.178174
50184	309444 5544 1078 5896 20.25 62 168 486.85000610352 486.85000610352 81790.801025391 39819851.978423
vector 50303  IntersectionExampleScenario.node[29].veinsmobility  posx  ETV
vector 50304  IntersectionExampleScenario.node[29].veinsmobility  posy  ETV
vector 50310  IntersectionExampleScenario.node[30].veinsmobility  posx  ETV
vector 50311  IntersectionExampleScenario.node[30].veinsmobility  posy  ETV
vector 50305  IntersectionExampleScenario.node[29].veinsmobility  speed  ETV
vector 50312  IntersectionExampleScenario.node[30].veinsmobility  speed  ETV
vector 50306  IntersectionExampleScenario.node[29].veinsmobility  acceleration  ETV
vector 50307  IntersectionExampleScenario.node[29].veinsmobility  co2emission  ETV
vector 50313  IntersectionExampleScenario.node[30].veinsmobility  acceleration  ETV
vector 50314  IntersectionExampleScenario.node[30].veinsmobility  co2emission  ETV
50202	315790 5266 1528 6363 24.25 65.5 166 0.973 11.36141391502 524.10908708929 2803.8881990194
50201	321056 5039 1528 6363 24.25 65.5 166 -3.5486698150635 2.5 38.171613693237 284.41700575975
50200	326095 5207 1497 6363 24 65.5 167 5.6500000953674 15.25 2242.1088442802 31348.511038351
50199	331302 5519 1466 6363 23.75 65.5 168 168.91015625 483.14999389648 65732.446746826 27702116.984955
50198	336821 5531 1466 6363 23.75 65.5 168 486.85000610352 732.47686767578 89953.810470581 49100916.998022
vector 50317  IntersectionExampleScenario.node[31].veinsmobility  posx  ETV
vector 50318  IntersectionExampleScenario.node[31].veinsmobility  posy  ETV
vector 50319  IntersectionExampleScenario.node[31].veinsmobility  speed  ETV
vector 50320  IntersectionExampleScenario.node[31].veinsmobility  acceleration  ETV
vector 50321  IntersectionExampleScenario.node[31].veinsmobility  co2emission  ETV
vector 50324  IntersectionExampleScenario.node[32].veinsmobility  posx  ETV
vector 50325  IntersectionExampleScenario.node[32].veinsmobility  posy  ETV
vector 50326  IntersectionExampleScenario.node[32].veinsmobility  speed  ETV
vector 50327  IntersectionExampleScenario.node[32].veinsmobility  acceleration  ETV
vector 50328  IntersectionExampleScenario.node[32].veinsmobility  co2emission  ETV
50230	343154 4819 2507 6990 32.75 70.5 152 0.973 12.553400930962 534.65867589645 3308.4808432824
50229	347973 4563 2507 6990 32.75 70.5 152 -3.4894390106201 2.5 42.585195541382 321.51058599708
50228	352536 4706 2473 6990 32.5 70.5 153 5.6500000953674 16.89999961853 2177.1846585274 32721.183112315
50227	357242 5067 2438 6990 32.25 70.5 154 486.85000610352 785.82187652588 88232.258628845 52236946.608288
50226	362309 5075 2438 6990 32.25 70.5 154 238.53521728516 483.14999389648 66814.314025879 29844082.53308
vector 50331  IntersectionExampleScenario.node[33].veinsmobility  posx  ETV
vector 50332  IntersectionExampleScenario.node[33].veinsmobility  posy  ETV
vector 50333  IntersectionExampleScenario.node[33].veinsmobility  speed  ETV
vector 50334  IntersectionExampleScenario.node[33].veinsmobility  acceleration  ETV
vector 50335  IntersectionExampleScenario.node[33].veinsmobility  co2emission  ETV
vector 50338  IntersectionExampleScenario.node[34].veinsmobility  posx  ETV
vector 50339  IntersectionExampleScenario.node[34].veinsmobility  posy  ETV
vector 50340  IntersectionExampleScenario.node[34].veinsmobility  speed  ETV
vector 50345  IntersectionExampleScenario.node[35].veinsmobility  posx  ETV
vector 50346  IntersectionExampleScenario.node[35].veinsmobility  posy  ETV
vector 50341  IntersectionExampleScenario.node[34].veinsmobility  acceleration  ETV
vector 50342  IntersectionExampleScenario.node[34].veinsmobility  co2emission  ETV
vector 50347  IntersectionExampleScenario.node[35].veinsmobility  speed  ETV
vector 50348  IntersectionExampleScenario.node[35].veinsmobility  acceleration  ETV
vector 50349  IntersectionExampleScenario.node[35].veinsmobility  co2emission  ETV
vector 50352  IntersectionExampleScenario.node[36].veinsmobility  posx  ETV
vector 50353  IntersectionExampleScenario.node[36].veinsmobility  posy  ETV
vector 50354  IntersectionExampleScenario.node[36].veinsmobility  speed  ETV
vector 50359  IntersectionExampleScenario.node[37].veinsmobility  posx  ETV
vector 50360  IntersectionExampleScenario.node[37].veinsmobility  posy  ETV
vector 50355  IntersectionExampleScenario.node[36].veinsmobility  acceleration  ETV
vector 50356  IntersectionExampleScenario.node[36].veinsmobility  co2emission  ETV
vector 50361  IntersectionExampleScenario.node[37].veinsmobility  speed  ETV
vector 50362  IntersectionExampleScenario.node[37].veinsmobility  acceleration  ETV
vector 50363  IntersectionExampleScenario.node[37].veinsmobility  co2emission  ETV
50244	369389 5213 3132 7812 37.5 77.75 162 0.973 11.200708441096 476.22252455857 2381.4003325061
50243	374602 4976 3132 7812 37.5 77.75 162 -3.6271781921387 2.5 35.795072555542 223.55009627223
50242	379578 5105 3099 7812 37.25 77.75 163 5.6500000953674 15.02499961853 2210.192401886 30716.327090972
50241	384683 5387 3066 7812 37 77.75 164 184.17810058594 486.88079833984 65346.040527344 27851590.310451
50240	390070 5410 3066 7812 37 77.75 164 235.90515136719 486.85000610352 71024.198364258 31760556.3986
vector 50366  IntersectionExampleScenario.node[38].veinsmobility  posx  ETV
vector 50367  IntersectionExampleScenario.node[38].veinsmobility  posy  ETV
vector 50373  IntersectionExampleScenario.node[39].veinsmobility  posx  ETV
vector 50374  IntersectionExampleScenario.node[39].veinsmobility  posy  ETV
vector 50368  IntersectionExampleScenario.node[38].veinsmobility  speed  ETV
vector 50380  IntersectionExampleScenario.node[40].veinsmobility  posx  ETV
vector 50381  IntersectionExampleScenario.node[40].veinsmobility  posy  ETV
vector 50369  IntersectionExampleScenario.node[38].veinsmobility  acceleration  ETV
vector 50370  IntersectionExampleScenario.node[38].veinsmobility  co2emission  ETV
vector 50375  IntersectionExampleScenario.node[39].veinsmobility  speed  ETV
vector 50376  IntersectionExampleScenario.node[39].veinsmobility  acceleration  ETV
vector 50377  IntersectionExampleScenario.node[39].veinsmobility  co2emission  ETV
vector 50382  IntersectionExampleScenario.node[40].veinsmobility  speed  ETV
vector 50383  IntersectionExampleScenario.node[40].veinsmobility  acceleration  ETV
vector 50384  IntersectionExampleScenario.node[40].veinsmobility  co2emission  ETV
vector 50387  IntersectionExampleScenario.node[41].veinsmobility  posx  ETV
vector 50388  IntersectionExampleScenario.node[41].veinsmobility  posy  ETV
vector 50389  IntersectionExampleScenario.node[41].veinsmobility  speed  ETV
vector 50390  IntersectionExampleScenario.node[41].veinsmobility  acceleration  ETV
vector 50391  IntersectionExampleScenario.node[41].veinsmobility  co2emission  ETV
50258	397084 5090 3641 8245 41.5 81 159 0.973 11.810082123732 520.49228367326 2828.0858335325
50257	402174 4802 3641 8245 41.5 81 159 -3.5925350189209 2.5 39.869146347046 291.96000911672
50256	406976 4954 3610 8245 41.25 81 160 5.6500000953674 15.875 2216.4654803276 32181.556149343
50255	411930 5276 3579 8245 41 81 161 177.97814941406 483.14999389648 63601.388427734 26949068.664897
50254	417206 5306 3579 8245 41 81 161 486.85000610352 735.16532897949 86513.485839844 47417761.674229
50174	422512 7089 978 8280 19.25 81.25 249 0.973 12.26218747632 652.68830934562 3280.9226067442
50173	429601 6565 978 8280 19.25 81.25 249 -8.7362804412842 4 42.754949569702 514.07118059918
50172	436166 6691 953 8280 19 81.25 250 0 16.5 2191.4408240318 32254.971936471
50171	442857 8209 928 8280 18.75 81.25 251 486.85000610352 731.10134887695 129745.18112183 68061738.619522
50170	451066 8270 928 8280 18.75 81.25 251 486.63604736328 791.16822052002 137259.38583374 77189041.958452
vector 50394  IntersectionExampleScenario.node[42].veinsmobility  posx  ETV
vector 50395  IntersectionExampleScenario.node[42].veinsmobility  posy  ETV
vector 50396  IntersectionExampleScenario.node[42].veinsmobility  speed  ETV
vector 50401  IntersectionExampleScenario.node[43].veinsmobility  posx  ETV
vector 50402  IntersectionExampleScenario.node[43].veinsmobility  posy  ETV
vector 50397  IntersectionExampleScenario.node[42].veinsmobility  acceleration  ETV
vector 50398  IntersectionExampleScenario.node[42].veinsmobility  co2emission  ETV
vector 50403  IntersectionExampleScenario.node[43].veinsmobility  speed  ETV
vector 50408  IntersectionExampleScenario.node[44].veinsmobility  posx  ETV
vector 50409  IntersectionExampleScenario.node[44].veinsmobility  posy  ETV
vector 50404  IntersectionExampleScenario.node[43].veinsmobility  acceleration  ETV
vector 50405  IntersectionExampleScenario.node[43].veinsmobility  co2emission  ETV
vector 50410  IntersectionExampleScenario.node[44].veinsmobility  speed  ETV
vector 50411  IntersectionExampleScenario.node[44].veinsmobility  acceleration  ETV
vector 50412  IntersectionExampleScenario.node[44].veinsmobility  co2emission  ETV
50181	460539 7524 978 8780 19.25 84.5 262 0.973 11.649428619336 631.87238179966 3019.0354901858
50180	468063 7287 978 8780 19.25 84.5 262 -7.0758934020996 4 38.171613693237 486.46532089815
50179	475350 7413 953 8780 19 84.5 263 0 15.651747703552 2201.2417224646 30971.894972698
50178	482763 8694 928 8780 18.75 84.5 264 483.14999389648 735.03472900391 136119.29734802 71341260.956449
50177	491457 8677 928 8780 18.75 84.5 264 184.17810058594 487.02593994141 112774.91329956 50291619.925344
50195	500134 7805 1379 8975 23 85.75 252 0.973 11.200708441096 600.03618297078 2705.0438493091
50194	507939 8014 1379 8975 23 85.75 252 -3.8811264038086 2.5000002384186 35.455564498901 362.87635657872
50193	515953 8196 1350 8975 22.75 85.75 253 0 15.02499961853 2246.0499114124 29899.156432159
50192	524149 8383 1321 8975 22.5 85.75 254 483.14999389648 483.14999389648 122720.09844971 59292214.816952
50191	532532 8344 1321 8975 22.5 85.75 254 176.21716308594 733.38325500488 114780.71817017 56361213.203514
vector 50415  IntersectionExampleScenario.node[45].veinsmobility  posx  ETV
vector 50416  IntersectionExampleScenario.node[45].veinsmobility  posy  ETV
50216	541030 6497 2473 9131 32.5 86.75 218 0.96333723109819 12.099024792222 608.07072793636 3162.0352084293
50215	547527 6729 2473 9131 32.5 86.75 218 -23.107776641846 4 40.208654403687 959.79620772423
50214	554256 6855 2438 9131 32.25 86.75 219 0 16.27499961853 2184.7874228805 29391.77557576
50213	561111 7235 2407 9131 32 86.75 220 486.85000610352 733.61346435547 115097.82969666 61234505.025563
50212	568346 7230 2407 9131 32 86.75 220 486.73355102539 785.82187652588 122429.07811737 70012457.628447
vector 50417  IntersectionExampleScenario.node[45].veinsmobility  speed  ETV
vector 50418  IntersectionExampleScenario.node[45].veinsmobility  acceleration  ETV
vector 50419  IntersectionExampleScenario.node[45].veinsmobility  co2emission  ETV
50209	575823 6926 2175 9249 30 87.5 231 0.973 11.810082123732 608.1690952931 3036.8804640741
50208	582749 7127 2175 9249 30 87.5 231 -3.803635597229 2.5000009536743 40.038900375366 368.19084174833
50207	589876 7309 2146 9249 29.75 87.5 232 0 15.875 2181.471532736 28562.466578659
50206	597185 7684 2117 9249 29.5 87.5 233 237.82629394531 483.14999389648 104650.37014771 48023146.107866
50205	604869 7641 2117 9249 29.5 87.5 233 184.17810058594 483.24694824219 96178.426940918 41580860.903068
vector 50422  IntersectionExampleScenario.node[46].veinsmobility  posx  ETV
vector 50423  IntersectionExampleScenario.node[46].veinsmobility  posy  ETV
vector 50424  IntersectionExampleScenario.node[46].veinsmobility  speed  ETV
vector 50425  IntersectionExampleScenario.node[46].veinsmobility  acceleration  ETV
vector 50426  IntersectionExampleScenario.node[46].veinsmobility  co2emission  ETV
50223	612911 6984 2507 9653 32.75 90 230 0.973 11.468795983774 599.47717370764 2816.7681015004
50222	619895 7313 2507 9653 32.75 90 230 -4.5 2.5 37.32285118103 422.64016025902
50221	627208 7361 2473 9653 32.5 90 231 1.3282616138458 15.400011062622 2287.8427979946 29131.193119862
50220	634569 7649 2438 9653 32.25 90 232 486.85000610352 734.91110229492 121388.8033905 64598241.525497
50219	642218 7639 2438 9653 32.25 90 232 486.7522277832 810.23281097412 131894.32065582 77336452.397943
50237	649857 7183 2577 9853 33.25 91.25 233 0.973 11.200708441096 577.07740467995 2651.1522183277
50236	657040 7180 2577 9853 33.25 91.25 233 -4.5 2.5 35.625318527222 382.17520456435
50235	664220 7399 2542 9853 33 91.25 234 0 15.02499961853 2223.8030983824 28049.821780127
50234	671619 7752 2507 9853 32.75 91.25 235 237.94281005859 483.14999389648 105063.29525757 48048057.113704
50233	679371 7716 2507 9853 32.75 91.25 235 172.9296875 483.17266845703 95675.461547852 41039063.305907
50251	687087 6318 3391 10009 39.5 92.25 212 0.973 11.324623475218 593.99925728511 2952.9287599657
50250	693405 6690 3391 10009 39.5 92.25 212 -4.0423011779785 2.5 42.163824081421 365.99219137168
50249	700095 6698 3358 10009 39.25 92.25 213 0 16.190956115723 2177.2935637459 28812.59987649
50248	706793 7050 3325 10009 39 92.25 214 238.63403320312 483.14999389648 95576.015167236 43666013.856083
50247	713843 7034 3325 10009 39 92.25 214 184.17810058594 483.14999389648 87055.837005615 37221829.027522
vector 50429  IntersectionExampleScenario.node[47].veinsmobility  posx  ETV
vector 50430  IntersectionExampleScenario.node[47].veinsmobility  posy  ETV
vector 50431  IntersectionExampleScenario.node[47].veinsmobility  speed  ETV
vector 50432  IntersectionExampleScenario.node[47].veinsmobility  acceleration  ETV
vector 50433  IntersectionExampleScenario.node[47].veinsmobility  co2emission  ETV
vector 50436  IntersectionExampleScenario.node[48].veinsmobility  posx  ETV
vector 50437  IntersectionExampleScenario.node[48].veinsmobility  posy  ETV
50272	721432 5074 4954 10292 53.75 94 162 0.973 11.648172402475 544.26873326709 3301.4491108837
50271	726506 4736 4954 10292 53.75 94 162 -3.9698257446289 2.5 38.511121749878 312.60490065508
50270	731242 5134 4927 10292 53.5 94 163 5.6500000953674 15.64999961853 2226.7625150681 31191.687055538
50269	736376 5420 4900 10292 53.25 94 164 483.14999389648 483.14999389648 79236.598999023 38283162.322756
50268	741796 5396 4900 10292 53.25 94 164 184.17810058594 735.37330627441 73429.570480347 37074059.221668
vector 50438  IntersectionExampleScenario.node[48].veinsmobility  speed  ETV
vector 50439  IntersectionExampleScenario.node[48].veinsmobility  acceleration  ETV
vector 50440  IntersectionExampleScenario.node[48].veinsmobility  co2emission  ETV
50279	747439 5104 5142 10543 55.5 95.5 161 0.973 11.200708441096 478.65185910933 2459.6995837885
50278	752543 5182 5142 10543 55.5 95.5 161 -3.028133392334 2.5 36.813589096069 208.6849376573
50277	757725 5189 5115 10543 55.25 95.5 162 5.6500000953674 15.136788368225 2211.7407579422 31010.229470115
50276	762914 5386 5088 10543 55 95.5 163 235.63342285156 486.85000610352 70663.532684326 31626364.154698
50275	768300 5386 5088 10543 55 95.5 163 483.13754272461 785.82187652588 93145.097328186 55029717.965318
vector 50443  IntersectionExampleScenario.node[49].veinsmobility  posx  ETV
vector 50444  IntersectionExampleScenario.node[49].veinsmobility  posy  ETV
vector 50445  IntersectionExampleScenario.node[49].veinsmobility  speed  ETV
vector 50446  IntersectionExampleScenario.node[49].veinsmobility  acceleration  ETV
vector 50447  IntersectionExampleScenario.node[49].veinsmobility  co2emission  ETV
50300	774087 5164 5772 11402 61 100.75 160 0.973 11.36141391502 502.72158910051 2648.2451430347
50299	779251 4862 5772 11402 61 100.75 160 -3.6919212341309 2.5 38.001859664917 273.56613719921
50298	784113 5033 5740 11402 60.75 100.75 161 5.6500000953674 15.370492935181 2180.7493677139 30851.767746705
50297	789146 5382 5707 11402 60.5 100.75 162 486.85000610352 732.5811920166 87065.991470337 47716572.351083
50296	794528 5378 5707 11402 60.5 100.75 162 486.85000610352 785.82187652588 92755.99861908 54857701.286399
vector 50450  IntersectionExampleScenario.node[50].veinsmobility  posx  ETV
vector 50451  IntersectionExampleScenario.node[50].veinsmobility  posy  ETV
vector 50452  IntersectionExampleScenario.node[50].veinsmobility  speed  ETV
vector 50453  IntersectionExampleScenario.node[50].veinsmobility  acceleration  ETV
vector 50454  IntersectionExampleScenario.node[50].veinsmobility  co2emission  ETV
50314	800307 5251 6090 11839 63.5 103.75 162 0.973 11.36141391502 499.83297715496 2645.9811663528
50313	805558 5089 6090 11839 63.5 103.75 162 -3.3922653198242 2.5 37.32285118103 270.43473082991
50312	810647 5123 6055 11839 63.25 103.75 163 5.6500000953674 15.25 2189.4791965485 30677.419958349
50311	815770 5467 6020 11839 63 103.75 164 235.32836914062 483.14999389648 70814.501464844 31532134.630304
50310	821237 5442 6020 11839 63 103.75 164 184.17810058594 483.14999389648 65249.774993896 27723748.321786
vector 50457  IntersectionExampleScenario.node[51].veinsmobility  posx  ETV
vector 50458  IntersectionExampleScenario.node[51].veinsmobility  posy  ETV
vector 50459  IntersectionExampleScenario.node[51].veinsmobility  speed  ETV
vector 50460  IntersectionExampleScenario.node[51].veinsmobility  acceleration  ETV
vector 50461  IntersectionExampleScenario.node[51].veinsmobility  co2emission  ETV
vector 50464  IntersectionExampleScenario.node[52].veinsmobility  posx  ETV
vector 50465  IntersectionExampleScenario.node[52].veinsmobility  posy  ETV
vector 50466  IntersectionExampleScenario.node[52].veinsmobility  speed  ETV
vector 50467  IntersectionExampleScenario.node[52].veinsmobility  acceleration  ETV
vector 50468  IntersectionExampleScenario.node[52].veinsmobility  co2emission  ETV
vector 50471  IntersectionExampleScenario.node[53].veinsmobility  posx  ETV
vector 50472  IntersectionExampleScenario.node[53].veinsmobility  posy  ETV
50321	827635 5123 6585 12238 67.25 107 160 0.973 11.36141391502 510.5339931664 2697.9220507299
50320	832758 5049 6585 12238 67.25 107 160 -3.3328399658203 2.5 39.869146347046 254.33117375934
50319	837807 5091 6552 12238 67 107 161 5.6500000953674 15.676451683044 2220.0069541931 32068.310630969
50318	842898 5416 6519 12238 66.75 107 162 235.99157714844 483.14999389648 70214.235107422 31353714.567591
50317	848314 5414 6519 12238 66.75 107 162 176.21716308594 483.14999389648 63900.77243042 27055905.878479
vector 50473  IntersectionExampleScenario.node[53].veinsmobility  speed  ETV
vector 50474  IntersectionExampleScenario.node[53].veinsmobility  acceleration  ETV
vector 50475  IntersectionExampleScenario.node[53].veinsmobility  co2emission  ETV
vector 50478  IntersectionExampleScenario.node[54].veinsmobility  posx  ETV
vector 50479  IntersectionExampleScenario.node[54].veinsmobility  posy  ETV
vector 50480  IntersectionExampleScenario.node[54].veinsmobility  speed  ETV
vector 50481  IntersectionExampleScenario.node[54].veinsmobility  acceleration  ETV
vector 50482  IntersectionExampleScenario.node[54].veinsmobility  co2emission  ETV
50328	854376 5264 6959 12732 70.25 111 164 0.973 11.810082123732 508.21497380863 2852.1838656437
50327	859640 5276 6959 12732 70.25 111 164 -3.1121826171875 2.5 38.511121749878 261.76652394131
50326	864916 5217 6928 12732 70 111 165 5.6500000953674 15.875 2244.9795827866 31941.778032928
50325	870133 5595 6897 12732 69.75 111 166 238.40069580078 483.14999389648 72140.129272461 32270058.699812
50324	875728 5586 6897 12732 69.75 111 166 167.42266845703 483.1901550293 64916.957061768 27385501.743665
50342	881314 5171 7490 13052 75 113.75 156 0.973 11.54047740176 464.63231158543 2336.4085283449
50341	886485 4605 7490 13052 75 113.75 156 -2.9061431884766 2.5 37.32285118103 179.22973772633
50340	891090 5089 7463 13052 74.75 113.75 157 5.6500000953674 15.5 2216.5902757645 31875.991883042
50339	896179 5358 7436 13052 74.5 113.75 158 486.85000610352 486.85000610352 76922.300964355 37449622.693993
50338	901537 5347 7436 13052 74.5 113.75 158 236.77197265625 785.82187652588 82351.454399109 47114349.676633
50349	906884 5123 7548 13168 75.5 114.75 158 0.973 11.810082123732 515.89609428791 2921.9145990158
50348	912007 5019 7548 13168 75.5 114.75 158 -3.7940120697021 2.5 40.038900375366 280.05620115611
50347	917026 5072 7519 13168 75.25 114.75 159 5.6500000953674 15.875 2196.5360827446 31822.279530242
50346	922098 5421 7490 13168 75 114.75 160 238.60528564453 483.14999389648 69434.791137695 31022721.443054
50345	927519 5418 7490 13168 75 114.75 160 179.17993164062 483.14999389648 63239.473480225 26788328.935653
vector 50485  IntersectionExampleScenario.node[55].veinsmobility  posx  ETV
vector 50486  IntersectionExampleScenario.node[55].veinsmobility  posy  ETV
vector 50487  IntersectionExampleScenario.node[55].veinsmobility  speed  ETV
vector 50488  IntersectionExampleScenario.node[55].veinsmobility  acceleration  ETV
vector 50489  IntersectionExampleScenario.node[55].veinsmobility  co2emission  ETV
50384	933338 5047 7977 13433 79 117 153 0.973 11.200708441096 492.52658762184 2660.1502514957
50383	938385 5000 7977 13433 79 117 153 -4.0073585510254 2.5 38.850629806519 241.22805194647
50382	943385 5059 7943 13433 78.75 117 154 5.6500000953674 15.680694580078 2148.0518579483 30908.60079068
50381	948444 5275 7908 13433 78.5 117 155 236.24432373047 486.85000610352 67082.251190186 29978327.164492
50380	953719 5270 7908 13433 78.5 117 155 483.13027954102 770.41329193115 87686.308258057 51156976.808026
50265	958989 8276 4124 13557 45.75 118 290 0.973 11.90022389248 670.26915852702 3179.3094683211
50264	967265 7503 4124 13557 45.75 118 290 -7.2346410751343 4 39.699392318726 486.80719743533
50263	974768 7730 4095 13557 45.5 118 291 0 16 2204.2720556259 31715.171502569
50262	982498 9809 4066 13557 45.25 118 292 483.14999389648 785.82187652588 157139.48892975 86713999.15505
50261	992307 9811 4066 13557 45.25 118 292 483.14999389648 733.64456176758 149338.84683228 77521576.345423
50286	1002118 7119 5551 13619 59.25 118.5 238 0.973 11.450879080643 601.92620614453 2903.0928376408
50285	1009237 6597 5551 13619 59.25 118.5 238 -7.2053184509277 4 37.32285118103 473.07308382394
50284	1015834 6839 5522 13619 59 118.5 239 0 15.375 2213.2533946037 30976.93226008
50283	1022673 8064 5493 13619 58.75 118.5 240 184.17810058594 733.81198120117 109613.55995178 54292476.944159
50282	1030737 8101 5493 13619 58.75 118.5 240 486.85000610352 486.85000610352 116844.00146484 56885502.826318
50307	1038838 6862 6090 13681 63.5 119 223 0.96333723109819 12.099024792222 601.52369008884 3188.0992004316
50306	1045700 6944 6090 13681 63.5 119 223 -3.8760974407196 2.5000019073486 40.208654403687 362.20931769905
50305	1052644 7407 6055 13681 63.25 119 224 0 16.27499961853 2215.5843454916 30236.499876584
50304	1060051 7576 6020 13681 63 119 225 236.83306884766 785.82187652588 116904.3241806 64811719.819771
50303	1067627 7608 6020 13681 63 119 225 483.14999389648 483.14999389648 108708.74862671 52522631.235489
50293	1075235 7337 5613 13806 59.75 120 242 0.973 10.961479581405 624.13654232199 2903.7797459719
50292	1082572 6531 5613 13806 59.75 120 242 -4.5 2.5 38.680875778198 498.26490297504
50291	1089103 7052 5582 13806 59.5 120 243 0 15.408641815186 2281.5890719891 31691.058539804
50290	1096155 8226 5551 13806 59.25 120 244 160.43438720703 483.33462524414 100394.88131714 43750805.831323
50289	1104381 8240 5551 13806 59.25 120 244 486.85000610352 734.37763977051 127013.20487976 67191814.066173
50370	1112621 5442 7908 13899 78.5 120.75 170 0.973 12.099024792222 545.13389955694 3133.6660875307
50369	1118063 5404 7908 13899 78.5 120.75 170 -2.1943969726562 2.5 41.227170944214 285.68043743357
50368	1123467 5638 7875 13899 78.25 120.75 171 4.9024367332458 16.27499961853 2221.4182982445 31148.885712382
50367	1129105 5861 7843 13899 78 120.75 172 235.9755859375 785.82187652588 90181.311546326 51321473.75533
50366	1134966 5875 7843 13899 78 120.75 172 483.14999389648 483.14999389648 83101.798950195 40150633.655574
50335	1140841 6173 7218 14054 72.5 122 199 0.973 12.099024792222 574.56495096622 3137.2723197869
50334	1147014 6168 7218 14054 72.5 122 199 -3.2630481719971 2.5000009536743 40.887662887573 333.98237637491
50333	1153182 6505 7189 14054 72.25 122 200 1.4963352680206 16.27499961853 2187.150097847 29434.172368181
50332	1159687 6815 7160 14054 72 122 201 184.17810058594 483.14999389648 81879.219970703 35152098.097853
50331	1166502 6834 7160 14054 72 122 201 486.85000610352 733.51173400879 105759.65176392 56630233.685029
50398	1173336 5536 8459 14392 82.5 124.75 170 0.973 11.36141391502 529.67409333067 2957.3992017886
50397	1178872 5438 8459 14392 82.5 124.75 170 -4.0410118103027 2.5 36.98334312439 339.97342779179
50396	1184310 5557 8422 14392 82.25 124.75 171 5.6500000953674 15.25 2208.6688847542 29802.68547513
50395	1189867 5894 8385 14392 82 124.75 172 486.81301879883 792.02188110352 98733.250991821 58539120.536494
50394	1195761 5894 8385 14392 82 124.75 172 236.77600097656 483.14999389648 74734.905578613 33436371.844695
50363	1201655 6125 7781 14508 77.5 125.75 194 0.973 12.099024792222 602.33923778172 3323.501292023
50362	1207780 6534 7781 14508 77.5 125.75 194 -4.5 2.5 42.483106613159 424.20462999167
50361	1214314 6651 7750 14508 77.25 125.75 195 4.4069314002991 16.27499961853 2200.1068115234 28617.110730424
50360	1220965 6674 7719 14508 77 125.75 196 184.17810058594 486.85000610352 79820.161834717 34344366.844777
50359	1227639 6697 7719 14508 77 125.75 196 239.34271240234 486.85000610352 86966.004089355 39602786.284963
vector 50492  IntersectionExampleScenario.node[56].veinsmobility  posx  ETV
vector 50493  IntersectionExampleScenario.node[56].veinsmobility  posy  ETV
vector 50494  IntersectionExampleScenario.node[56].veinsmobility  speed  ETV
vector 50495  IntersectionExampleScenario.node[56].veinsmobility  acceleration  ETV
vector 50496  IntersectionExampleScenario.node[56].veinsmobility  co2emission  ETV
50419	1234737 5233 9210 14717 87.25 127.5 162 0.973 11.648172402475 518.89891615147 2860.1905752075
50418	1239970 5484 9210 14717 87.25 127.5 162 -2.7281341552734 2.5 39.020376205444 229.15999344224
50417	1245454 5578 9171 14717 87 127.5 163 5.6500000953674 15.64999961853 2213.8525438309 31026.434871239
50416	1251032 5635 9131 14717 86.75 127.5 164 184.17810058594 486.85000610352 65417.1355896 27878275.866289
50415	1256667 5654 9131 14717 86.75 127.5 164 235.30596923828 486.85000610352 71386.245452881 32049322.746597
vector 50499  IntersectionExampleScenario.node[57].veinsmobility  posx  ETV
vector 50500  IntersectionExampleScenario.node[57].veinsmobility  posy  ETV
vector 50501  IntersectionExampleScenario.node[57].veinsmobility  speed  ETV
vector 50506  IntersectionExampleScenario.node[58].veinsmobility  posx  ETV
vector 50507  IntersectionExampleScenario.node[58].veinsmobility  posy  ETV
vector 50502  IntersectionExampleScenario.node[57].veinsmobility  acceleration  ETV
vector 50503  IntersectionExampleScenario.node[57].veinsmobility  co2emission  ETV
vector 50508  IntersectionExampleScenario.node[58].veinsmobility  speed  ETV
vector 50509  IntersectionExampleScenario.node[58].veinsmobility  acceleration  ETV
vector 50510  IntersectionExampleScenario.node[58].veinsmobility  co2emission  ETV
vector 50513  IntersectionExampleScenario.node[59].veinsmobility  posx  ETV
vector 50514  IntersectionExampleScenario.node[59].veinsmobility  posy  ETV
vector 50515  IntersectionExampleScenario.node[59].veinsmobility  speed  ETV
vector 50516  IntersectionExampleScenario.node[59].veinsmobility  acceleration  ETV
vector 50517  IntersectionExampleScenario.node[59].veinsmobility  co2emission  ETV
vector 50520  IntersectionExampleScenario.node[60].veinsmobility  posx  ETV
vector 50521  IntersectionExampleScenario.node[60].veinsmobility  posy  ETV
vector 50522  IntersectionExampleScenario.node[60].veinsmobility  speed  ETV
vector 50527  IntersectionExampleScenario.node[61].veinsmobility  posx  ETV
vector 50528  IntersectionExampleScenario.node[61].veinsmobility  posy  ETV
vector 50523  IntersectionExampleScenario.node[60].veinsmobility  acceleration  ETV
vector 50524  IntersectionExampleScenario.node[60].veinsmobility  co2emission  ETV
vector 50529  IntersectionExampleScenario.node[61].veinsmobility  speed  ETV
vector 50534  IntersectionExampleScenario.node[62].veinsmobility  posx  ETV
vector 50535  IntersectionExampleScenario.node[62].veinsmobility  posy  ETV
vector 50530  IntersectionExampleScenario.node[61].veinsmobility  acceleration  ETV
vector 50531  IntersectionExampleScenario.node[61].veinsmobility  co2emission  ETV
vector 50536  IntersectionExampleScenario.node[62].veinsmobility  speed  ETV
vector 50537  IntersectionExampleScenario.node[62].veinsmobility  acceleration  ETV
vector 50538  IntersectionExampleScenario.node[62].veinsmobility  co2emission  ETV
vector 50541  IntersectionExampleScenario.node[63].veinsmobility  posx  ETV
vector 50542  IntersectionExampleScenario.node[63].veinsmobility  posy  ETV
vector 50543  IntersectionExampleScenario.node[63].veinsmobility  speed  ETV
vector 50544  IntersectionExampleScenario.node[63].veinsmobility  acceleration  ETV
vector 50545  IntersectionExampleScenario.node[63].veinsmobility  co2emission  ETV
vector 50548  IntersectionExampleScenario.node[64].veinsmobility  posx  ETV
vector 50549  IntersectionExampleScenario.node[64].veinsmobility  posy  ETV
vector 50550  IntersectionExampleScenario.node[64].veinsmobility  speed  ETV
vector 50551  IntersectionExampleScenario.node[64].veinsmobility  acceleration  ETV
vector 50552  IntersectionExampleScenario.node[64].veinsmobility  co2emission  ETV
vector 50555  IntersectionExampleScenario.node[65].veinsmobility  posx  ETV
vector 50556  IntersectionExampleScenario.node[65].veinsmobility  posy  ETV
vector 50557  IntersectionExampleScenario.node[65].veinsmobility  speed  ETV
50454	1265761 5281 11592 16146 102 140.25 154 0.973 11.648172402475 472.37063277033 2468.6221642102
50453	1271042 4808 11592 16146 102 140.25 154 -3.3639106750488 2.5 38.511121749878 193.7515100159
50452	1275850 5190 11553 16146 101.75 140.25 155 5.6500000953674 15.64999961853 2221.4249238968 32483.241731561
50451	1281040 5428 11514 16146 101.5 140.25 156 235.65411376953 785.82187652588 81264.277168274 46487544.880767
50450	1286468 5460 11514 16146 101.5 140.25 156 483.14999389648 483.14999389648 75371.399047852 36415690.989939
vector 50558  IntersectionExampleScenario.node[65].veinsmobility  acceleration  ETV
vector 50559  IntersectionExampleScenario.node[65].veinsmobility  co2emission  ETV
vector 50562  IntersectionExampleScenario.node[66].veinsmobility  posx  ETV
vector 50563  IntersectionExampleScenario.node[66].veinsmobility  posy  ETV
vector 50569  IntersectionExampleScenario.node[67].veinsmobility  posx  ETV
vector 50570  IntersectionExampleScenario.node[67].veinsmobility  posy  ETV
vector 50564  IntersectionExampleScenario.node[66].veinsmobility  speed  ETV
vector 50571  IntersectionExampleScenario.node[67].veinsmobility  speed  ETV
vector 50565  IntersectionExampleScenario.node[66].veinsmobility  acceleration  ETV
vector 50566  IntersectionExampleScenario.node[66].veinsmobility  co2emission  ETV
vector 50572  IntersectionExampleScenario.node[67].veinsmobility  acceleration  ETV
vector 50573  IntersectionExampleScenario.node[67].veinsmobility  co2emission  ETV
vector 50576  IntersectionExampleScenario.node[68].veinsmobility  posx  ETV
vector 50577  IntersectionExampleScenario.node[68].veinsmobility  posy  ETV
vector 50578  IntersectionExampleScenario.node[68].veinsmobility  speed  ETV
vector 50579  IntersectionExampleScenario.node[68].veinsmobility  acceleration  ETV
vector 50580  IntersectionExampleScenario.node[68].veinsmobility  co2emission  ETV
vector 50583  IntersectionExampleScenario.node[69].veinsmobility  posx  ETV
vector 50584  IntersectionExampleScenario.node[69].veinsmobility  posy  ETV
vector 50590  IntersectionExampleScenario.node[70].veinsmobility  posx  ETV
vector 50591  IntersectionExampleScenario.node[70].veinsmobility  posy  ETV
50356	1293608 8201 7719 16685 77 144.5 271 0.973 11.450879080643 650.91570415485 3024.1919095275
50355	1301809 7237 7719 16685 77 144.5 271 -41.150634765625 4 36.98334312439 2031.5209687759
50354	1309046 7677 7690 16685 76.75 144.5 272 0 15.375 2301.2276639938 32651.583842771
50353	1316723 9398 7661 16685 76.5 144.5 273 483.14999389648 483.14999389648 131899.94833374 63727459.232393
50352	1326121 9394 7661 16685 76.5 144.5 273 161.38525390625 732.67367553711 123152.61933899 60356038.71366
vector 50585  IntersectionExampleScenario.node[69].veinsmobility  speed  ETV
vector 50592  IntersectionExampleScenario.node[70].veinsmobility  speed  ETV
vector 50586  IntersectionExampleScenario.node[69].veinsmobility  acceleration  ETV
vector 50587  IntersectionExampleScenario.node[69].veinsmobility  co2emission  ETV
vector 50593  IntersectionExampleScenario.node[70].veinsmobility  acceleration  ETV
vector 50594  IntersectionExampleScenario.node[70].veinsmobility  co2emission  ETV
50377	1336009 8123 7943 16802 78.75 145.25 267 0.973 10.916047529558 610.55608704017 2597.7825989917
50376	1344132 7440 7943 16802 78.75 145.25 267 -9.0043716430664 4 38.213752746582 463.09361347924
50375	1351572 7742 7908 16802 78.5 145.25 268 0 14.67587184906 2213.3231818676 29044.761148347
50374	1359314 9209 7875 16802 78.25 145.25 269 486.85000610352 734.07568359375 139762.86933899 73776897.108189
50373	1368523 9260 7875 16802 78.25 145.25 269 486.63604736328 793.78281402588 148408.94464111 84370487.797381
50412	1377783 7518 8619 16802 83.5 145.25 248 0.973 11.450879080643 619.49089337444 2834.5518725054
50411	1385301 6909 8619 16802 83.5 145.25 248 -4.5 2.5 39.529638290405 457.84555496063
50410	1392210 7159 8578 16802 83.25 145.25 249 0 15.593863487244 2173.5693985224 30511.215570466
50409	1399369 8640 8537 16802 83 145.25 250 237.427734375 486.85000610352 113487.50131226 52612114.141864
50408	1408009 8635 8537 16802 83 145.25 250 482.96939086914 778.05604553223 136295.52210999 76214658.486935
vector 50597  IntersectionExampleScenario.node[71].veinsmobility  posx  ETV
vector 50598  IntersectionExampleScenario.node[71].veinsmobility  posy  ETV
vector 50599  IntersectionExampleScenario.node[71].veinsmobility  speed  ETV
vector 50600  IntersectionExampleScenario.node[71].veinsmobility  acceleration  ETV
vector 50601  IntersectionExampleScenario.node[71].veinsmobility  co2emission  ETV
50405	1417045 8428 8537 17196 83 147.75 260 0.973 11.54047740176 625.69968629847 2766.4111457885
50404	1425473 8637 8537 17196 83 147.75 260 -4.5 2.5000009536743 36.98334312439 389.67090669627
50403	1434110 8754 8498 17196 82.75 147.75 261 0 15.5 2268.41120202 30300.933579592
50402	1442864 9062 8459 17196 82.5 147.75 262 486.85000610352 486.85000610352 127554.70159912 62100007.252064
50401	1451926 9024 8459 17196 82.5 147.75 262 237.71789550781 799.99844360352 138161.81475067 77701484.17602
50391	1460950 8768 8245 17360 81 148.75 272 0.973 11.36141391502 656.14709328847 2944.5078208928
50390	1469718 8560 8245 17360 81 148.75 272 -20 4 36.813589096069 908.9791790608
50389	1478278 8716 8210 17360 80.75 148.75 273 0 15.25 2254.0463098874 30571.838548482
50388	1486994 9451 8175 17360 80.5 148.75 274 235.45092773438 483.14999389648 123911.58068848 57171169.839449
50387	1496445 9415 8175 17360 80.5 148.75 274 166.58166503906 483.23788452148 114814.70120239 50509175.630479
50426	1505860 7687 9448 17401 88.75 149 242 0.973 11.54047740176 608.59628453011 2900.8796643937
50425	1513547 7920 9448 17401 88.75 149 242 -3.7520565986633 2.5 38.680875778198 362.7359368261
50424	1521467 8272 9407 17401 88.5 149 243 0 15.5 2221.3471173625 29174.231826389
50423	1529739 8477 9366 17401 88.25 149 244 483.14999389648 483.14999389648 117888.59851074 56957875.65093
50422	1538216 8431 9366 17401 88.25 149 244 184.17810058594 734.71620178223 109643.77738953 53460585.600957
50440	1546647 7087 10378 17523 94.5 149.75 222 0.973 11.648172402475 583.36966130715 2913.5293897948
50439	1553734 7319 10378 17523 94.5 149.75 222 -3.7851901054382 2.5000019073486 38.511121749878 332.1774746598
50438	1561053 7573 10335 17523 94.25 149.75 223 0 15.64999961853 2221.6973479744 29439.869300758
50437	1568626 7816 10292 17523 94 149.75 224 486.85000610352 486.85000610352 109054.40136719 53093135.97123
50436	1576442 7787 10292 17523 94 149.75 224 235.68237304688 785.82187652588 117104.65406036 65397073.52986
50433	1584229 7370 10169 17718 93.25 151 232 0.973 11.648172402475 605.39605939654 2997.9779247927
50432	1591599 7845 10169 17718 93.25 151 232 -4.0904960632324 2.5 40.378400802612 391.59006565621
50431	1599444 7768 10128 17718 93 151 233 0 15.798385620117 2179.8495942205 28455.045579023
50430	1607212 8148 10087 17718 92.75 151 234 237.98516845703 483.14999389648 105179.0178833 48291719.753809
50429	1615360 8130 10087 17718 92.75 151 234 184.17810058594 483.14999389648 96062.60824585 41263689.990511
50447	1623490 7319 10670 17952 96.25 152.5 226 0.973 11.200708441096 574.8306308321 2635.9472200727
50446	1630809 7514 10670 17952 96.25 152.5 226 -4.5 2.5 35.964826583862 357.78046260899
50445	1638323 7706 10627 17952 96 152.5 227 0 15.02499961853 2291.8825867772 29372.567069148
50444	1646029 7963 10584 17952 95.75 152.5 228 486.85000610352 486.85000610352 111001.8013916 54041227.685002
50443	1653992 7913 10584 17952 95.75 152.5 228 237.06976318359 805.05782318115 121294.01953888 69247235.20598
vector 50604  IntersectionExampleScenario.node[72].veinsmobility  posx  ETV
vector 50605  IntersectionExampleScenario.node[72].veinsmobility  posy  ETV
vector 50611  IntersectionExampleScenario.node[73].veinsmobility  posx  ETV
vector 50612  IntersectionExampleScenario.node[73].veinsmobility  posy  ETV
vector 50606  IntersectionExampleScenario.node[72].veinsmobility  speed  ETV
vector 50607  IntersectionExampleScenario.node[72].veinsmobility  acceleration  ETV
vector 50608  IntersectionExampleScenario.node[72].veinsmobility  co2emission  ETV
vector 50613  IntersectionExampleScenario.node[73].veinsmobility  speed  ETV
vector 50614  IntersectionExampleScenario.node[73].veinsmobility  acceleration  ETV
vector 50615  IntersectionExampleScenario.node[73].veinsmobility  co2emission  ETV
50475	1662707 5993 12304 18258 107.5 154.5 189 0.96333723109819 12.099024792222 577.85023721901 3366.8190081993
50474	1668700 6009 12304 18258 107.5 154.5 189 -3.620288848877 2.5 40.208654403687 371.24797485651
50473	1674709 6335 12271 18258 107.25 154.5 190 4.058198928833 16.27499961853 2191.1713681221 28474.059398271
50472	1681044 6678 12238 18258 107 154.5 191 486.85000610352 735.23329162598 101075.78578186 54480362.497559
50471	1687722 6665 12238 18258 107 154.5 191 486.85000610352 785.82187652588 108935.96482086 63880888.750392
vector 50618  IntersectionExampleScenario.node[74].veinsmobility  posx  ETV
vector 50619  IntersectionExampleScenario.node[74].veinsmobility  posy  ETV
vector 50620  IntersectionExampleScenario.node[74].veinsmobility  speed  ETV
vector 50621  IntersectionExampleScenario.node[74].veinsmobility  acceleration  ETV
vector 50622  IntersectionExampleScenario.node[74].veinsmobility  co2emission  ETV
vector 50625  IntersectionExampleScenario.node[75].veinsmobility  posx  ETV
vector 50626  IntersectionExampleScenario.node[75].veinsmobility  posy  ETV
vector 50627  IntersectionExampleScenario.node[75].veinsmobility  speed  ETV
vector 50628  IntersectionExampleScenario.node[75].veinsmobility  acceleration  ETV
vector 50629  IntersectionExampleScenario.node[75].veinsmobility  co2emission  ETV
vector 50632  IntersectionExampleScenario.node[76].veinsmobility  posx  ETV
vector 50633  IntersectionExampleScenario.node[76].veinsmobility  posy  ETV
vector 50639  IntersectionExampleScenario.node[77].veinsmobility  posx  ETV
vector 50640  IntersectionExampleScenario.node[77].veinsmobility  posy  ETV
vector 50634  IntersectionExampleScenario.node[76].veinsmobility  speed  ETV
vector 50635  IntersectionExampleScenario.node[76].veinsmobility  acceleration  ETV
vector 50636  IntersectionExampleScenario.node[76].veinsmobility  co2emission  ETV
vector 50641  IntersectionExampleScenario.node[77].veinsmobility  speed  ETV
vector 50642  IntersectionExampleScenario.node[77].veinsmobility  acceleration  ETV
vector 50643  IntersectionExampleScenario.node[77].veinsmobility  co2emission  ETV
vector 50646  IntersectionExampleScenario.node[78].veinsmobility  posx  ETV
vector 50647  IntersectionExampleScenario.node[78].veinsmobility  posy  ETV
vector 50648  IntersectionExampleScenario.node[78].veinsmobility  speed  ETV
vector 50649  IntersectionExampleScenario.node[78].veinsmobility  acceleration  ETV
vector 50650  IntersectionExampleScenario.node[78].veinsmobility  co2emission  ETV
vector 50653  IntersectionExampleScenario.node[79].veinsmobility  posx  ETV
vector 50654  IntersectionExampleScenario.node[79].veinsmobility  posy  ETV
vector 50655  IntersectionExampleScenario.node[79].veinsmobility  speed  ETV
50496	1696624 5222 14686 19913 127.25 165.25 153 0.973 11.648172402475 474.925234236 2481.352005492
50495	1701846 4806 14686 19913 127.25 165.25 153 -3.4320068359375 2.5 39.020376205444 194.78216897432
50494	1706652 5147 14655 19913 127 165.25 154 5.6500000953674 15.64999961853 2217.0800733566 32596.395712939
50493	1711799 5425 14624 19913 126.75 165.25 155 486.85000610352 486.85000610352 75461.750946045 36738553.908664
50492	1717224 5406 14624 19913 126.75 165.25 155 236.82946777344 785.82187652588 80855.384376526 46285427.655232
vector 50656  IntersectionExampleScenario.node[79].veinsmobility  acceleration  ETV
vector 50657  IntersectionExampleScenario.node[79].veinsmobility  co2emission  ETV
vector 50660  IntersectionExampleScenario.node[80].veinsmobility  posx  ETV
vector 50661  IntersectionExampleScenario.node[80].veinsmobility  posy  ETV
50503	1722953 5362 14944 20386 129.5 168.25 156 0.973 11.648172402475 484.70939525497 2516.8619600993
50502	1728315 4710 14944 20386 129.5 168.25 156 -3.2473564147949 2.5 39.869146347046 191.06091745192
50501	1733025 5266 14916 20386 129.25 168.25 157 5.6500000953674 15.64999961853 2289.3528375626 34101.805401599
50500	1738291 5529 14887 20386 129 168.25 158 486.85000610352 486.85000610352 76922.300964355 37449622.693993
50499	1743820 5505 14887 20386 129 168.25 158 235.67578125 802.70781707764 83703.074737549 48812693.044583
vector 50662  IntersectionExampleScenario.node[80].veinsmobility  speed  ETV
vector 50663  IntersectionExampleScenario.node[80].veinsmobility  acceleration  ETV
vector 50664  IntersectionExampleScenario.node[80].veinsmobility  co2emission  ETV
vector 50667  IntersectionExampleScenario.node[81].veinsmobility  posx  ETV
vector 50668  IntersectionExampleScenario.node[81].veinsmobility  posy  ETV
vector 50669  IntersectionExampleScenario.node[81].veinsmobility  speed  ETV
vector 50670  IntersectionExampleScenario.node[81].veinsmobility  acceleration  ETV
vector 50671  IntersectionExampleScenario.node[81].veinsmobility  co2emission  ETV
50510	1749973 5508 15002 20695 130 170.25 162 0.973 11.36141391502 496.04206152594 2597.598836304
50509	1755481 5062 15002 20695 130 170.25 162 -4.1636962890625 2.5 36.813589096069 274.27251214115
50508	1760543 5391 14973 20695 129.75 170.25 163 5.6500000953674 15.25 2179.8608140945 30364.53085435
50507	1765934 5738 14944 20695 129.5 170.25 164 237.57897949219 483.14999389648 70903.1769104 31591672.263054
50506	1771672 5710 14944 20695 129.5 170.25 164 184.17810058594 483.15948486328 65184.381286621 27671739.513254
50517	1777382 5463 15284 20954 132.5 172 159 0.973 11.648172402475 480.03676014603 2479.7125490144
50516	1782845 4993 15284 20954 132.5 172 159 -3.7211418151855 2.5 38.511121749878 195.98506182203
50515	1787838 5350 15257 20954 132.25 172 160 5.6500000953674 15.64999961853 2295.7161159515 33593.307283763
50514	1793188 5633 15230 20954 132 172 161 486.85000610352 486.85000610352 78382.850982666 38160691.479322
50513	1798821 5612 15230 20954 132 172 161 238.35003662109 807.03985595703 85739.796859741 50236556.910777
vector 50674  IntersectionExampleScenario.node[82].veinsmobility  posx  ETV
vector 50675  IntersectionExampleScenario.node[82].veinsmobility  posy  ETV
50552	1804587 5129 15955 21455 138.5 175.75 150 0.973 12.099024792222 488.44102676454 2754.3233874776
50551	1809716 4837 15955 21455 138.5 175.75 150 -3.4592323303223 2.5 40.887662887573 214.75836162569
50550	1814553 5046 15928 21455 138.25 175.75 151 5.6500000953674 16.27499961853 2225.5168018341 33588.470762743
50549	1819599 5320 15900 21455 138 175.75 152 483.14999389648 483.14999389648 73438.799072266 35481955.32353
50548	1824919 5296 15900 21455 138 175.75 152 184.17810058594 735.25187683105 68203.338623047 34666343.767762
50545	1830215 5586 15596 21455 135.25 175.75 163 0.973 11.54047740176 475.37329987941 2351.8451801861
50544	1835801 5055 15596 21455 135.25 175.75 163 -3.6398506164551 2.5 37.15309715271 182.72937694996
50543	1840856 5503 15567 21455 135 175.75 164 5.6500000953674 15.5 2316.6420440674 33301.5468619
50542	1846359 5776 15537 21455 134.75 175.75 165 486.85000610352 486.85000610352 80330.25100708 39108783.193094
50541	1852135 5758 15537 21455 134.75 175.75 165 236.56469726562 810.65431213379 87980.694480896 51694413.904384
vector 50676  IntersectionExampleScenario.node[82].veinsmobility  speed  ETV
vector 50681  IntersectionExampleScenario.node[83].veinsmobility  posx  ETV
vector 50682  IntersectionExampleScenario.node[83].veinsmobility  posy  ETV
vector 50677  IntersectionExampleScenario.node[82].veinsmobility  acceleration  ETV
vector 50678  IntersectionExampleScenario.node[82].veinsmobility  co2emission  ETV
vector 50683  IntersectionExampleScenario.node[83].veinsmobility  speed  ETV
vector 50684  IntersectionExampleScenario.node[83].veinsmobility  acceleration  ETV
vector 50685  IntersectionExampleScenario.node[83].veinsmobility  co2emission  ETV
vector 50688  IntersectionExampleScenario.node[84].veinsmobility  posx  ETV
vector 50689  IntersectionExampleScenario.node[84].veinsmobility  posy  ETV
vector 50690  IntersectionExampleScenario.node[84].veinsmobility  speed  ETV
vector 50691  IntersectionExampleScenario.node[84].veinsmobility  acceleration  ETV
vector 50692  IntersectionExampleScenario.node[84].veinsmobility  co2emission  ETV
vector 50695  IntersectionExampleScenario.node[85].veinsmobility  posx  ETV
vector 50696  IntersectionExampleScenario.node[85].veinsmobility  posy  ETV
vector 50697  IntersectionExampleScenario.node[85].veinsmobility  speed  ETV
50461	1859174 8977 12116 22091 106 180.5 299 0.973 11.450879080643 662.85072998324 2911.7080707058
50460	1868151 7852 12116 22091 106 180.5 299 -7.930832862854 4 37.492597579956 484.37672405371
50459	1876003 8401 12086 22091 105.75 180.5 300 0 15.375 2228.0340502262 31179.968935549
50458	1884404 10525 12055 22091 105.5 180.5 301 483.14999389648 792.02188110352 162390.50965118 89923372.262901
50457	1894929 10526 12055 22091 105.5 180.5 301 483.14999389648 733.76802062988 153983.6960144 79960330.965747
vector 50698  IntersectionExampleScenario.node[85].veinsmobility  acceleration  ETV
vector 50699  IntersectionExampleScenario.node[85].veinsmobility  co2emission  ETV
50489	1905624 8318 13433 22196 117 181.25 258 0.97223939240464 11.648172402475 628.60622117086 3075.9596820297
50488	1913942 8668 13433 22196 117 181.25 258 -3.8022971153259 2.5000009536743 38.680875778198 353.85133072037
50487	1922610 8886 13402 22196 116.75 181.25 259 0 15.734512329102 2217.1963823568 29761.160455219
50486	1931496 9080 13371 22196 116.5 181.25 260 236.43908691406 785.82187652588 134502.01689911 73736071.581909
50485	1940576 9100 13371 22196 116.5 181.25 260 483.14999389648 483.14999389648 125618.99841309 60692818.316565
vector 50702  IntersectionExampleScenario.node[86].veinsmobility  posx  ETV
vector 50703  IntersectionExampleScenario.node[86].veinsmobility  posy  ETV
vector 50704  IntersectionExampleScenario.node[86].veinsmobility  speed  ETV
vector 50705  IntersectionExampleScenario.node[86].veinsmobility  acceleration  ETV
vector 50706  IntersectionExampleScenario.node[86].veinsmobility  co2emission  ETV
50531	1950077 6225 15450 22377 134 182.5 195 0.973 12.099024792222 584.57167382242 3154.2215754929
50530	1956302 6450 15450 22377 134 182.5 195 -2.193920135498 2.5 42.415441513062 333.13423459131
50529	1962752 6670 15422 22377 133.75 182.5 196 1.2645989656448 16.27508354187 2219.8362247944 30826.719538103
50528	1969422 6860 15393 22377 133.5 182.5 197 236.19543457031 785.82187652588 103132.93968964 57984663.415841
50527	1976282 6895 15393 22377 133.5 182.5 197 483.14999389648 483.14999389648 95180.548797607 45986481.570628
50468	1983177 9302 12207 22599 106.75 184 310 0.973 10.916047529558 648.28072461618 2630.2268195338
50467	1992479 8255 12207 22599 106.75 184 310 -9.268856048584 4 34.606801986694 494.90270414544
50466	2000734 8691 12176 22599 106.5 184 311 0 14.625 2181.278236866 29130.802288285
50465	2009425 10893 12145 22599 106.25 184 312 184.17810058594 483.24322509766 134661.94891357 60342415.710586
50464	2020318 10915 12145 22599 106.25 184 312 486.85000610352 734.04000854492 160643.59820557 83907421.380313
50482	2031233 9600 12639 22880 110.25 186 304 0.973 10.916047529558 664.38323476822 2703.984361157
50481	2040833 9363 12639 22880 110.25 186 304 -4.5 2.5 37.15309715271 396.40532532761
50480	2050196 9514 12608 22880 110 186 305 0 14.972389221191 2223.4828633526 30177.909221145
50479	2059710 10683 12577 22880 109.75 186 306 174.53436279297 483.14999389648 130349.10559082 57820993.501853
50478	2070393 10706 12577 22880 109.75 186 306 486.85000610352 733.64645385742 157357.64039612 82064471.659114
50524	2081099 6920 15393 23055 133.5 187.25 216 0.973 12.099024792222 596.18604007885 3012.8959830148
50523	2088019 7339 15393 23055 133.5 187.25 216 -3.9650754928589 2.5 41.566686630249 329.60029854202
50522	2095358 7296 15366 23055 133.25 187.25 217 0 16.27499961853 2183.3364733197 29402.829093043
50521	2102654 7598 15338 23055 133 187.25 218 184.17810058594 483.14999389648 89709.184204102 38750351.18248
50520	2110252 7621 15338 23055 133 187.25 218 486.85000610352 732.33358764648 113946.37059021 60545582.543815
50601	2117873 5359 17196 23125 147.75 187.75 161 0.973 11.810082123732 547.17772278622 3378.0620630948
50600	2123232 5194 17196 23125 147.75 187.75 161 -3.7424373626709 2.5 38.511121749878 346.9300979878
50599	2128426 5340 17155 23125 147.5 187.75 162 5.6500000953674 15.875 2188.2606806755 30876.120497179
50598	2133766 5696 17114 23125 147.25 187.75 163 486.85000610352 785.82187652588 93342.601966858 55193537.63359
50597	2139462 5696 17114 23125 147.25 187.75 163 235.83111572266 483.14999389648 70533.13092041 31458668.732896
vector 50709  IntersectionExampleScenario.node[87].veinsmobility  posx  ETV
vector 50710  IntersectionExampleScenario.node[87].veinsmobility  posy  ETV
vector 50711  IntersectionExampleScenario.node[87].veinsmobility  speed  ETV
vector 50712  IntersectionExampleScenario.node[87].veinsmobility  acceleration  ETV
vector 50713  IntersectionExampleScenario.node[87].veinsmobility  co2emission  ETV
vector 50716  IntersectionExampleScenario.node[88].veinsmobility  posx  ETV
vector 50717  IntersectionExampleScenario.node[88].veinsmobility  posy  ETV
50538	2145713 7126 15508 23404 134.5 189.75 222 0.973 12.099024792222 610.3686707063 3111.8979843989
50537	2152839 7305 15508 23404 134.5 189.75 222 -4.5 2.5 40.038900375366 400.26403311103
50536	2160144 7482 15479 23404 134.25 189.75 223 1.3041745424271 16.27499961853 2282.3143832684 30104.938043016
50535	2167626 7795 15450 23404 134 189.75 224 162.00311279297 483.14999389648 89916.80380249 38275254.655409
50534	2175421 7827 15450 23404 134 189.75 224 486.85000610352 735.20054626465 117175.26786804 62338260.81288
vector 50718  IntersectionExampleScenario.node[88].veinsmobility  speed  ETV
vector 50719  IntersectionExampleScenario.node[88].veinsmobility  acceleration  ETV
vector 50720  IntersectionExampleScenario.node[88].veinsmobility  co2emission  ETV
vector 50723  IntersectionExampleScenario.node[89].veinsmobility  posx  ETV
vector 50724  IntersectionExampleScenario.node[89].veinsmobility  posy  ETV
vector 50725  IntersectionExampleScenario.node[89].veinsmobility  speed  ETV
vector 50726  IntersectionExampleScenario.node[89].veinsmobility  acceleration  ETV
vector 50727  IntersectionExampleScenario.node[89].veinsmobility  co2emission  ETV
50559	2183896 6581 16175 23685 140.5 191.75 206 0.973 11.200708441096 535.19477897831 2600.0017547583
50558	2190477 6758 16175 23685 140.5 191.75 206 -2.1493787765503 2.5 35.795072555542 272.93933019974
50557	2197235 7040 16146 23685 140.25 191.75 207 1.4352971315384 15.02499961853 2224.5159357786 28419.609603729
50556	2204275 7254 16117 23685 140 191.75 208 184.17810058594 735.02360534668 92966.970504761 45887411.423331
50555	2211529 7280 16117 23685 140 191.75 208 486.85000610352 486.85000610352 101264.80126953 49300769.116142
50615	2218809 5270 18180 23751 154 192.25 154 0.973 11.648172402475 470.85286664564 2470.9845829003
50614	2224079 5153 18180 23751 154 192.25 154 -3.3869285583496 2.5 38.341367721558 193.18019187023
50613	2229232 5193 18141 23751 153.75 192.25 155 5.6500000953674 15.64999961853 2217.4365739822 32358.083865622
50612	2234425 5434 18102 23751 153.5 192.25 156 236.65887451172 785.82187652588 81332.491477966 46544512.87428
50611	2239859 5460 18102 23751 153.5 192.25 156 483.14999389648 483.14999389648 75371.399047852 36415690.989939
vector 50730  IntersectionExampleScenario.node[90].veinsmobility  posx  ETV
vector 50731  IntersectionExampleScenario.node[90].veinsmobility  posy  ETV
vector 50732  IntersectionExampleScenario.node[90].veinsmobility  speed  ETV
vector 50733  IntersectionExampleScenario.node[90].veinsmobility  acceleration  ETV
vector 50734  IntersectionExampleScenario.node[90].veinsmobility  co2emission  ETV
vector 50737  IntersectionExampleScenario.node[91].veinsmobility  posx  ETV
vector 50738  IntersectionExampleScenario.node[91].veinsmobility  posy  ETV
vector 50744  IntersectionExampleScenario.node[92].veinsmobility  posx  ETV
vector 50745  IntersectionExampleScenario.node[92].veinsmobility  posy  ETV
vector 50751  IntersectionExampleScenario.node[93].veinsmobility  posx  ETV
vector 50752  IntersectionExampleScenario.node[93].veinsmobility  posy  ETV
vector 50739  IntersectionExampleScenario.node[91].veinsmobility  speed  ETV
vector 50746  IntersectionExampleScenario.node[92].veinsmobility  speed  ETV
vector 50740  IntersectionExampleScenario.node[91].veinsmobility  acceleration  ETV
vector 50741  IntersectionExampleScenario.node[91].veinsmobility  co2emission  ETV
vector 50747  IntersectionExampleScenario.node[92].veinsmobility  acceleration  ETV
vector 50748  IntersectionExampleScenario.node[92].veinsmobility  co2emission  ETV
vector 50753  IntersectionExampleScenario.node[93].veinsmobility  speed  ETV
vector 50754  IntersectionExampleScenario.node[93].veinsmobility  acceleration  ETV
vector 50755  IntersectionExampleScenario.node[93].veinsmobility  co2emission  ETV
50573	2246923 6887 16444 24130 142.75 195 210 0.973 11.36141391502 582.90648484173 2937.6927080958
50572	2253810 6974 16444 24130 142.75 195 210 -4.4182929992676 2.5 36.643835067749 383.10735864367
50571	2260784 7057 16411 24130 142.5 195 211 1.6106953620911 15.25 2248.6561864614 28405.294254828
50570	2267841 7389 16378 24130 142.25 195 212 167.29217529297 483.14999389648 84508.381500244 35795010.982668
50569	2275230 7414 16378 24130 142.25 195 212 486.85000610352 732.40400695801 111569.26649475 59750777.178234
vector 50758  IntersectionExampleScenario.node[94].veinsmobility  posx  ETV
vector 50759  IntersectionExampleScenario.node[94].veinsmobility  posy  ETV
vector 50760  IntersectionExampleScenario.node[94].veinsmobility  speed  ETV
vector 50761  IntersectionExampleScenario.node[94].veinsmobility  acceleration  ETV
vector 50762  IntersectionExampleScenario.node[94].veinsmobility  co2emission  ETV
50643	2283045 4961 19494 24711 162.75 199 146 0.96997852711604 12.553400930962 500.09881591929 3054.4612657837
50642	2288006 4819 19494 24711 162.75 199 146 -3.5978660583496 2.5 42.585195541382 235.80860773934
50641	2292825 4887 19453 24711 162.5 199 147 5.6500000953674 16.89999961853 2211.5908679962 34164.203045397
50640	2297712 5155 19412 24711 162.25 199 148 184.17810058594 731.63497924805 66062.921157837 33400840.247918
50639	2302867 5180 19412 24711 162.25 199 148 486.85000610352 486.85000610352 72053.80090332 35079393.409563
vector 50765  IntersectionExampleScenario.node[95].veinsmobility  posx  ETV
vector 50766  IntersectionExampleScenario.node[95].veinsmobility  posy  ETV
vector 50767  IntersectionExampleScenario.node[95].veinsmobility  speed  ETV
vector 50768  IntersectionExampleScenario.node[95].veinsmobility  acceleration  ETV
vector 50769  IntersectionExampleScenario.node[95].veinsmobility  co2emission  ETV
vector 50772  IntersectionExampleScenario.node[96].veinsmobility  posx  ETV
vector 50773  IntersectionExampleScenario.node[96].veinsmobility  posy  ETV
vector 50774  IntersectionExampleScenario.node[96].veinsmobility  speed  ETV
vector 50775  IntersectionExampleScenario.node[96].veinsmobility  acceleration  ETV
vector 50776  IntersectionExampleScenario.node[96].veinsmobility  co2emission  ETV
vector 50779  IntersectionExampleScenario.node[97].veinsmobility  posx  ETV
vector 50780  IntersectionExampleScenario.node[97].veinsmobility  posy  ETV
vector 50781  IntersectionExampleScenario.node[97].veinsmobility  speed  ETV
vector 50782  IntersectionExampleScenario.node[97].veinsmobility  acceleration  ETV
vector 50783  IntersectionExampleScenario.node[97].veinsmobility  co2emission  ETV
50657	2309250 5482 19955 25580 165.5 205.5 161 0.973 11.36141391502 499.34038570949 2614.2275838502
50656	2314732 4820 19955 25580 165.5 205.5 161 -3.4165802001953 2.5 37.492597579956 268.68036002663
50655	2319552 5349 19913 25580 165.25 205.5 162 5.6500000953674 15.25 2177.7739219666 30562.390161318
50654	2324901 5699 19870 25580 165 205.5 163 486.79116821289 785.82187652588 93318.304298401 55181264.091198
50653	2330600 5701 19870 25580 165 205.5 163 238.38116455078 483.14999389648 70553.45489502 31459534.191703
vector 50786  IntersectionExampleScenario.node[98].veinsmobility  posx  ETV
vector 50787  IntersectionExampleScenario.node[98].veinsmobility  posy  ETV
50580	2336455 7633 16580 25609 143.75 205.75 249 0.973 12.099024792222 638.20129970809 3285.3447547868
50579	2344088 7126 16580 25609 143.75 205.75 249 -8.1196670532227 4 40.548154830933 508.18033022122
50578	2351214 7269 16545 25609 143.5 205.75 250 0 16.27499961853 2212.166359663 32332.169307759
50577	2358483 8787 16510 25609 143.25 205.75 251 483.14999389648 483.14999389648 121270.64846802 58591913.067145
50576	2367270 8760 16510 25609 143.25 205.75 251 184.17810058594 733.28230285645 114724.6736908 56506442.913794
vector 50788  IntersectionExampleScenario.node[98].veinsmobility  speed  ETV
vector 50789  IntersectionExampleScenario.node[98].veinsmobility  acceleration  ETV
vector 50790  IntersectionExampleScenario.node[98].veinsmobility  co2emission  ETV
50566	2376277 7966 16444 25764 142.75 207 258 0.973 11.200708441096 639.8151668087 2870.2571761981
50565	2384243 7430 16444 25764 142.75 207 258 -7.2835245132446 4 39.699392318726 490.75314640872
50564	2391673 7718 16411 25764 142.5 207 259 0 15.616375923157 2212.898720026 31557.117755382
50563	2399391 9100 16378 25764 142.25 207 260 486.85000610352 486.85000610352 126581.00158691 61625961.395178
50562	2408491 9086 16378 25764 142.25 207 260 236.83209228516 785.82187652588 133127.43393707 72290866.431687
vector 50793  IntersectionExampleScenario.node[99].veinsmobility  posx  ETV
vector 50794  IntersectionExampleScenario.node[99].veinsmobility  posy  ETV
50587	2417731 8134 16763 25795 145 207.25 250 0.973 11.810082123732 640.75429586335 3136.6125555787
50586	2425865 7742 16763 25795 145 207.25 250 -4.5 2.5 40.208654403687 462.16552655166
50585	2433607 8028 16724 25795 144.75 207.25 251 0 15.875 2245.7455310822 31932.075984712
50584	2441635 8813 16685 25795 144.5 207.25 252 486.85000610352 731.43937683105 130534.27828979 68646066.896528
50583	2450448 8805 16685 25795 144.5 207.25 252 486.85000610352 802.70781707764 139439.61173248 79444459.86457
vector 50795  IntersectionExampleScenario.node[99].veinsmobility  speed  ETV
vector 50796  IntersectionExampleScenario.node[99].veinsmobility  acceleration  ETV
[...]
55422	26730912 6738 215574 221350 1716 1762.5 187 3.6330273151398 15.64999961853 2211.828990221 29257.60411903
55421	26737650 6956 215549 221350 1715.75 1762.5 188 483.14999389648 483.14999389648 90832.198852539 43885576.321208
55420	26744606 6922 215549 221350 1715.75 1762.5 188 184.17810058594 731.75987243652 83564.629547119 41264952.279533
55410	26751528 7326 214856 221375 1709.25 1762.75 215 0.973 11.36141391502 586.5047269968 2862.7378739078
55409	26758854 7530 214856 221375 1709.25 1762.75 215 -4.3175926208496 2.5 40.208654403687 344.55835624195
55408	26766384 7667 214828 221375 1709 1762.75 216 1.5664570331573 15.740400314331 2209.4083755016 28956.881483344
55407	26774051 8019 214799 221375 1708.75 1762.75 217 486.85000610352 731.50198364258 113512.35720825 60369210.568149
55406	26782070 8013 214799 221375 1708.75 1762.75 217 486.85000610352 793.78281402588 122750.44535065 71363057.323825
vector 55560  IntersectionExampleScenario.node[780].veinsmobility  posx  ETV
vector 55561  IntersectionExampleScenario.node[780].veinsmobility  posy  ETV
vector 55562  IntersectionExampleScenario.node[780].veinsmobility  speed  ETV
vector 55563  IntersectionExampleScenario.node[780].veinsmobility  acceleration  ETV
vector 55564  IntersectionExampleScenario.node[780].veinsmobility  co2emission  ETV
55431	26790489 6982 215653 221721 1716.75 1766.25 199 0.973 11.071591910684 567.54236987349 2739.3094395422
55430	26797471 6761 215653 221721 1716.75 1766.25 199 -4.5 2.5 35.795072555542 402.82496195799
55429	26804232 7115 215626 221721 1716.5 1766.25 200 3.6375908851624 14.843796730042 2275.2814042568 28653.789651429
55428	26811347 7436 215599 221721 1716.25 1766.25 201 238.19006347656 483.14999389648 88682.263031006 40147677.949913
55427	26818783 7424 215599 221721 1716.25 1766.25 201 160.43438720703 483.14999389648 78819.787414551 33159226.711436
vector 55567  IntersectionExampleScenario.node[781].veinsmobility  posx  ETV
vector 55568  IntersectionExampleScenario.node[781].veinsmobility  posy  ETV
vector 55569  IntersectionExampleScenario.node[781].veinsmobility  speed  ETV
vector 55570  IntersectionExampleScenario.node[781].veinsmobility  acceleration  ETV
vector 55571  IntersectionExampleScenario.node[781].veinsmobility  co2emission  ETV
55466	26826613 5794 216884 221975 1728.75 1769 162 0.973 11.093806525473 468.57692429211 2317.5835532078
55465	26832407 5684 216884 221975 1728.75 1769 162 -2.9659576416016 2.5 34.77654838562 181.54106049642
55464	26838091 5803 216853 221975 1728.5 1769 163 5.6500000953674 14.875 2221.1942434311 30723.496037633
55463	26843894 6068 216822 221975 1728.25 1769 164 483.14999389648 483.14999389648 79236.598999023 38283162.322756
55462	26849962 6017 216822 221975 1728.25 1769 164 184.17810058594 734.61901855469 73829.314910889 37597590.116194
vector 55574  IntersectionExampleScenario.node[782].veinsmobility  posx  ETV
vector 55575  IntersectionExampleScenario.node[782].veinsmobility  posy  ETV
55487	26856135 5401 217658 222217 1734.75 1771.75 149 0.973 12.099024792222 489.0549849157 2759.7990548981
55486	26861536 5018 217658 222217 1734.75 1771.75 149 -3.3615646362305 2.5 41.227170944214 211.90550692683
55485	26866554 5297 217621 222217 1734.5 1771.75 150 5.6500000953674 16.27499961853 2215.6485786438 33537.560062301
55484	26871851 5589 217584 222217 1734.25 1771.75 151 486.85000610352 486.85000610352 73514.350921631 35790462.194892
55483	26877440 5582 217584 222217 1734.25 1771.75 151 237.31915283203 785.82187652588 78917.34778595 45240598.539291
vector 55576  IntersectionExampleScenario.node[782].veinsmobility  speed  ETV
vector 55577  IntersectionExampleScenario.node[782].veinsmobility  acceleration  ETV
vector 55578  IntersectionExampleScenario.node[782].veinsmobility  co2emission  ETV
55473	26883272 5801 217415 222332 1733 1773 161 0.973 11.36141391502 509.25499344471 2590.9507575195
55472	26889073 5560 217415 222332 1733 1773 161 -3.6216373443604 2.5 38.511121749878 270.23442158647
55471	26894633 5675 217382 222332 1732.75 1773 162 5.6500000953674 15.325042724609 2205.1283707619 31362.304429097
55470	26900308 6023 217349 222332 1732.5 1773 163 235.80010986328 483.14999389648 70514.973083496 31442418.381057
55469	26906331 6018 217349 222332 1732.5 1773 163 179.77722167969 483.20916748047 64485.449951172 27330165.872959
55480	26912349 5801 217584 222419 1734.25 1774 160 0.973 11.200708441096 534.76065195013 2839.9008166284
55479	26918150 5371 217584 222419 1734.25 1774 160 -4.5 2.5 39.869146347046 288.75897564699
55478	26923521 5732 217549 222419 1734 1774 161 5.6500000953674 15.652233123779 2314.0451898575 34023.008722678
55477	26929253 5993 217514 222419 1733.75 1774 162 483.14999389648 483.14999389648 78270.29901123 37816294.489552
55476	26935246 5975 217514 222419 1733.75 1774 162 160.70422363281 733.39039611816 70716.817657471 35479529.642272
55494	26941221 5633 218058 222638 1737.5 1776.75 158 0.973 12.099024792222 512.59874247928 2879.3880356669
55493	26946854 5316 218058 222638 1737.5 1776.75 158 -3.3044662475586 2.5 40.038900375366 247.02732753064
55492	26952170 5599 218021 222638 1737.25 1776.75 159 5.6500000953674 16.27499961853 2268.3452768326 33420.772435506
55491	26957769 5911 217984 222638 1737 1776.75 160 236.11944580078 486.85000610352 69650.488983154 31270641.388592
55490	26963680 5907 217984 222638 1737 1776.75 160 483.14999389648 800.04531860352 92393.691192627 55321927.542789
55508	26969587 5396 218554 222724 1740.75 1778.25 151 0.973 11.648172402475 505.52879736103 2823.3113459245
55507	26974983 5381 218554 222724 1740.75 1778.25 151 -3.6337814331055 2.5 39.699392318726 290.34423967361
55506	26980364 5443 218517 222724 1740.5 1778.25 152 5.6500000953674 15.921088218689 2082.1782493591 29936.431803456
55505	26985807 5654 218478 222724 1740.25 1778.25 153 237.40802001953 483.14999389648 65931.810699463 29297621.527043
55504	26991461 5642 218478 222724 1740.25 1778.25 153 208.67199707031 483.14999389648 62248.822265625 26714401.014858
vector 55581  IntersectionExampleScenario.node[783].veinsmobility  posx  ETV
vector 55582  IntersectionExampleScenario.node[783].veinsmobility  posy  ETV
vector 55583  IntersectionExampleScenario.node[783].veinsmobility  speed  ETV
vector 55584  IntersectionExampleScenario.node[783].veinsmobility  acceleration  ETV
vector 55585  IntersectionExampleScenario.node[783].veinsmobility  co2emission  ETV
55501	26997509 5980 218321 222858 1739.25 1781 168 0.973 11.810082123732 531.80576368611 2931.7389211546
55500	27003489 5890 218321 222858 1739.25 1781 168 -4.5 2.5 39.529638290405 310.5483005159
55499	27009379 5931 218282 222858 1739 1781 169 5.6500000953674 15.875 2232.2989373207 31256.819220856
55498	27015310 6278 218243 222858 1738.75 1781 170 235.45867919922 483.14999389648 74002.8487854 33162470.690275
55497	27021588 6278 218243 222858 1738.75 1781 170 173.75341796875 483.19122314453 66013.768005371 27712705.843681
vector 55588  IntersectionExampleScenario.node[784].veinsmobility  posx  ETV
vector 55589  IntersectionExampleScenario.node[784].veinsmobility  posy  ETV
55529	27028022 5126 219256 222907 1745.75 1782 146 0.973 12.561051366959 547.33336784558 3439.4831659201
55528	27033148 5362 219256 222907 1745.75 1782 146 -3.5212821960449 2.5 45.041921615601 305.98500511828
55527	27038510 5403 219221 222907 1745.5 1782 147 5.6500000953674 16.910480499268 2094.7080197334 31248.23944463
55526	27043913 5469 219186 222907 1745.25 1782 148 235.51654052734 486.85000610352 63849.842254639 28463449.793358
55525	27049382 5454 219186 222907 1745.25 1782 148 483.14999389648 756.11563110352 82719.191459656 47577039.997731
vector 55590  IntersectionExampleScenario.node[784].veinsmobility  speed  ETV
vector 55591  IntersectionExampleScenario.node[784].veinsmobility  acceleration  ETV
vector 55592  IntersectionExampleScenario.node[784].veinsmobility  co2emission  ETV
55515	27055086 5800 219050 223024 1744.25 1784.25 161 0.973 11.650970656634 514.52581987125 2813.470199733
55514	27060886 5441 219050 223024 1744.25 1784.25 161 -4.5 2.5 38.171613693237 286.82902483041
55513	27066327 5772 219015 223024 1744 1784.25 162 5.6500000953674 15.653893470764 2210.6490917206 31399.103401612
55512	27072099 6031 218980 223024 1743.75 1784.25 163 486.85000610352 486.85000610352 79356.550994873 38634737.336208
55511	27078130 6017 218980 223024 1743.75 1784.25 163 238.22259521484 785.82187652588 86717.476791382 50615296.918397
vector 55595  IntersectionExampleScenario.node[785].veinsmobility  posx  ETV
vector 55596  IntersectionExampleScenario.node[785].veinsmobility  posy  ETV
vector 55597  IntersectionExampleScenario.node[785].veinsmobility  speed  ETV
vector 55598  IntersectionExampleScenario.node[785].veinsmobility  acceleration  ETV
vector 55599  IntersectionExampleScenario.node[785].veinsmobility  co2emission  ETV
55522	27084553 5915 219186 223125 1745.25 1786 164 0.973 11.093806525473 515.54851807601 2552.8746358082
55521	27090468 5583 219186 223125 1745.25 1786 164 -4.4013214111328 2.5 39.699392318726 206.42006401657
55520	27096051 5895 219153 223125 1745 1786 165 5.6500000953674 15.623935699463 2310.6667308807 33362.724416923
55519	27101946 6141 219119 223125 1744.75 1786 166 486.85000610352 486.85000610352 80817.101013184 39345806.121537
55518	27108087 6115 219119 223125 1744.75 1786 166 235.30041503906 807.99687957764 89550.033622742 53201291.236452
55543	27114202 6049 219606 223335 1748.25 1789.5 166 0.973 11.161217848098 479.97991180222 2225.1151656379
55542	27120251 5440 219606 223335 1748.25 1789.5 166 -4.5 2.5 36.813589096069 178.87115921869
55541	27125691 5970 219571 223335 1748 1789.5 167 5.6500000953674 14.969618797302 2314.4255561829 32683.882143308
55540	27131661 6216 219536 223335 1747.75 1789.5 168 486.85000610352 486.85000610352 81790.801025391 39819851.978423
55539	27137877 6194 219536 223335 1747.75 1789.5 168 237.34173583984 810.86971282959 90013.164733887 53113299.222476
vector 55602  IntersectionExampleScenario.node[786].veinsmobility  posx  ETV
vector 55603  IntersectionExampleScenario.node[786].veinsmobility  posy  ETV
vector 55604  IntersectionExampleScenario.node[786].veinsmobility  speed  ETV
vector 55605  IntersectionExampleScenario.node[786].veinsmobility  acceleration  ETV
vector 55606  IntersectionExampleScenario.node[786].veinsmobility  co2emission  ETV
vector 55609  IntersectionExampleScenario.node[787].veinsmobility  posx  ETV
vector 55610  IntersectionExampleScenario.node[787].veinsmobility  posy  ETV
vector 55611  IntersectionExampleScenario.node[787].veinsmobility  speed  ETV
vector 55612  IntersectionExampleScenario.node[787].veinsmobility  acceleration  ETV
vector 55613  IntersectionExampleScenario.node[787].veinsmobility  co2emission  ETV
55438	27144883 9295 215932 223509 1719.5 1792 291 0.973 11.648172402475 668.24020248638 3068.8195136974
55437	27154178 8550 215932 223509 1719.5 1792 291 -6.8966674804688 4 39.699392318726 476.82354258094
55436	27162728 8717 215907 223509 1719.25 1792 292 0 15.821031570435 2179.6341400146 31193.887278345
55435	27171445 10834 215882 223509 1719 1792 293 486.63604736328 785.82187652588 157875.45993805 87192265.067256
55434	27182279 10766 215882 223509 1719 1792 293 236.58758544922 483.14999389648 133522.70333862 61942864.49246
55445	27193045 9261 216011 223528 1720.25 1792.25 289 0.973 11.648172402475 659.35727313783 3044.8978332191
55444	27202306 8411 216011 223528 1720.25 1792.25 289 -7.775092124939 4 38.511121749878 480.02722360891
55443	27210717 8760 215984 223528 1720 1792.25 290 0 15.64999961853 2214.2519137859 31459.955894097
55442	27219477 10740 215957 223528 1719.75 1792.25 291 184.17810058594 733.9766998291 133657.92927551 65574280.837
55441	27230217 10767 215957 223528 1719.75 1792.25 291 486.85000610352 486.85000610352 141673.35177612 68973672.176911
55452	27240984 8940 216793 223604 1728 1793.25 262 0.973 11.648172402475 625.05920779027 2971.6089508055
55451	27249924 9368 216793 223604 1728 1793.25 262 -3.9312415122986 2.5 38.511121749878 343.71509078204
55450	27259292 9351 216766 223604 1727.75 1793.25 263 0 15.64999961853 2214.5054274583 29644.271152645
55449	27268643 9735 216739 223604 1727.5 1793.25 264 237.02667236328 785.82187652588 136564.37323761 74795177.563591
55448	27278378 9768 216739 223604 1727.5 1793.25 264 483.14999389648 483.14999389648 127551.59838867 61626553.982973
vector 55616  IntersectionExampleScenario.node[788].veinsmobility  posx  ETV
vector 55617  IntersectionExampleScenario.node[788].veinsmobility  posy  ETV
55459	27288302 9027 216853 223661 1728.5 1794 263 0.973 11.36141391502 612.94780503841 2801.3917478748
55458	27297329 9421 216853 223661 1728.5 1794 263 -3.7986364364624 2.5000000298023 37.15309715271 330.87724327747
55457	27306750 9457 216822 223661 1728.25 1794 264 0 15.25 2184.1981003638 28362.473085841
55456	27316207 9768 216793 223661 1728 1794 265 184.17810058594 483.14999389648 111555.83874512 48973498.890438
55455	27325975 9798 216793 223661 1728 1794 265 486.85000610352 733.18989562988 137352.78315735 72295595.764581
vector 55618  IntersectionExampleScenario.node[788].veinsmobility  speed  ETV
vector 55619  IntersectionExampleScenario.node[788].veinsmobility  acceleration  ETV
vector 55620  IntersectionExampleScenario.node[788].veinsmobility  co2emission  ETV
55536	27336023 6722 219330 223787 1746.25 1795.5 198 0.973 12.099024792222 575.87635592942 3067.18791689
55535	27342745 6970 219330 223787 1746.25 1795.5 198 -2.1708755493164 2.5 41.396924972534 315.74228343147
55534	27349715 7031 219293 223787 1746 1795.5 199 1.3733003139496 16.27499961853 2193.4150623083 29612.475905327
55533	27356746 7365 219256 223787 1745.75 1795.5 200 184.17810058594 483.14999389648 81450.970275879 34964738.318634
55532	27364111 7395 219256 223787 1745.75 1795.5 200 486.85000610352 734.98271179199 105330.52920532 56463605.473075
55550	27371506 5918 220454 223934 1754.75 1797.25 171 0.973 12.099024792222 573.30219715617 3475.2264230542
55549	27377424 5612 220454 223934 1754.75 1797.25 171 -4.1869354248047 2.5 41.227170944214 354.44256056063
55548	27383036 6044 220421 223934 1754.5 1797.25 172 5.6500000953674 16.27499961853 2212.0651502609 30377.74297166
55547	27389080 6370 220388 223934 1754.25 1797.25 173 184.17810058594 486.85000610352 69070.89831543 29332374.209479
55546	27395450 6391 220388 223934 1754.25 1797.25 173 235.89428710938 486.85000610352 76110.559967041 34458230.90317
55557	27401841 5037 221136 224166 1760.5 1800 159 0.973 11.648172402475 355.59495748427 1610.2921074458
55556	27406878 4574 221136 224166 1760.5 1800 159 -6.9388580322266 4 -1.1000003814697 380.3438017566
55555	27411452 4905 221107 224166 1760.25 1800 160 0 15.64999961853 1172.876349926 16484.455429833
55554	27416357 5955 221078 224166 1760 1800 161 483.14999389648 484.55718994141 77790.355560303 37585962.204933
55553	27422312 5932 221078 224166 1760 1800 161 184.17810058594 476.20910644531 63279.132995605 26469494.648271
55564	27428244 4566 221647 224166 1765.5 1800 139 0.973 10.756497587458 295.92287444908 1248.1142540385
55563	27432810 5060 221647 224166 1765.5 1800 139 -3.7236166000366 2.5 -4.4544162750244 216.88911815585
55562	27437870 5158 221622 224166 1765.25 1800 140 0 14.39999961853 1138.6959851887 13776.551356568
55561	27443028 5215 221597 224166 1765 1800 141 483.14999389648 483.14999389648 68124.149139404 32914182.240906
55560	27448243 5187 221597 224166 1765 1800 141 184.17810058594 467.52786254883 52341.712493896 20742768.654496
55571	27453430 4102 221952 224166 1768.75 1800 126 0.973 11.200708441096 293.79693764434 1352.9528682589
55570	27457532 3905 221952 224166 1768.75 1800 126 -6.7711477279663 2.5 -22.60000038147 295.80732551166
55569	27461437 4163 221929 224166 1768.5 1800 127 0 15.02499961853 1147.4394557476 15754.921279133
55568	27465600 4736 221905 224166 1768.25 1800 128 486.85000610352 486.85000610352 62316.80078125 30338934.840703
55567	27470336 4729 221905 224166 1768.25 1800 128 498.39999389648 785.82187652588 76824.49835968 47435324.760054
55578	27475065 3613 222263 224166 1772.25 1800 112 0.973 10.756497587458 267.59907526937 1241.0787333373
55577	27478678 4028 222263 224166 1772.25 1800 112 -2.3472290039062 2.5 -10.014329910278 180.87661018151
55576	27482706 4162 222240 224166 1772 1800 113 2.0586154460907 14.98277759552 1089.3241698742 12807.182354075
55575	27486868 4217 222217 224166 1771.75 1800 114 483.14999389648 483.14999389648 55079.099304199 26611466.492648
55574	27491085 4196 222217 224166 1771.75 1800 114 184.17810058594 455.83828735352 39402.291503906 14544152.077771
55585	27495281 2786 222858 224166 1781 1800 77 0.973 11.200708441096 246.42202631076 1306.888903291
55584	27498067 2588 222858 224166 1781 1800 77 -2.9933586120605 2.5 22.174062728882 136.69052014331
55583	27500655 2874 222845 224166 1780.75 1800 78 5.6500000953674 15.02499961853 1075.9250030518 15241.977947903
55582	27503529 2893 222832 224166 1780.5 1800 79 184.17810058594 449.4853515625 24311.193786621 8014336.3455328
55581	27506422 2922 222832 224166 1780.5 1800 79 486.85000610352 486.85000610352 38461.150482178 18724811.346996
55592	27509344 2470 222933 224166 1782.5 1800 71 0.97223939240464 11.648172402475 230.48961980166 1372.492303874
55591	27511814 2553 222933 224166 1782.5 1800 71 -2.1208915710449 2.5 11.220682144165 151.1511407034
55590	27514367 2649 222920 224166 1782.25 1800 72 5.6500000953674 15.64999961853 958.50224781036 13311.146643475
55589	27517016 2699 222907 224166 1782 1800 73 486.85000610352 486.85000610352 35540.050445557 17302673.776338
55588	27519715 2699 222907 224166 1782 1800 73 548.93634033203 785.82187652588 49049.819526672 33377632.018952
55599	27522414 2183 223080 224166 1785.25 1800 60 0.973 11.648172402475 225.40339183542 1382.8617865445
55598	27524597 2089 223080 224166 1785.25 1800 60 -4.5 2.5 32.347089767456 124.85809240773
55597	27526686 2242 223065 224166 1785 1800 61 5.6500000953674 15.64999961853 861.35727405548 12615.688569271
55596	27528928 2293 223050 224166 1784.75 1800 62 486.85000610352 486.85000610352 30184.700378418 14695421.563466
55595	27531221 2288 223050 224166 1784.75 1800 62 589.45028686523 800.04531860352 43690.109146118 31057952.224037
55606	27533509 1438 223399 224166 1790.5 1800 39 1.2079002964199 12.099024792222 191.89420556471 1431.2483753701
55605	27534947 1318 223399 224166 1790.5 1800 39 -0.27577209472656 2.5 41.398881912231 106.4238172683
55604	27536265 1467 223382 224166 1790.25 1800 40 5.6500000953674 16.27499961853 550.13386917114 8010.4134888622
55603	27537732 1515 223365 224166 1790 1800 41 483.14999389648 483.14999389648 19809.149749756 9570790.5806891
55602	27539247 1489 223365 224166 1790 1800 41 184.17810058594 316.40277099609 9867.0202026367 2446357.9851252
55613	27540736 1260 223471 224166 1791.5 1800 35 0.973 12.099024792222 178.52751897994 1396.4730549957
55612	27541996 1137 223471 224166 1791.5 1800 35 -0.5 2.5 40.053632736206 107.04937489587
55611	27543133 1316 223452 224166 1791.25 1800 36 5.6500000953674 16.27499961853 481.15007209778 6828.1419396326
55610	27544449 1367 223433 224166 1791 1800 37 483.14999389648 483.14999389648 17876.54977417 8637054.9142804
55609	27545816 1339 223433 224166 1791 1800 37 162.00311279297 277.02716064453 7795.1384887695 1691484.9920514
55620	27547155 845 223703 224166 1794.5 1800 23 1.6778656626784 11.200708441096 138.03603699361 1083.0824149727
55619	27548000 705 223703 224166 1794.5 1800 23 -0.12916564941406 2.5 37.03505897522 93.787742657925
55618	27548705 879 223682 224166 1794.25 1800 24 5.6500000953674 15.02499961853 284.91536998749 3628.1315185751
55617	27549584 905 223661 224166 1794 1800 25 184.17810058594 250.43682861328 5277.6100463867 1125093.9154898
55616	27550489 923 223661 224166 1794 1800 25 486.85000610352 486.85000610352 12171.250152588 5925573.2110748
50096	27551412 642 0 224165 0 1800 31 0 33 648 14670
50097	27552054 659 0 224165 0 1800 31 0 244 3840 641536
