version 2
run nodebug-20-20200606-09:39:45-21192
attr configname nodebug
attr datetime 20200606-09:39:45
attr experiment nodebug
attr inifile omnetpp.ini
attr iterationvars ""
attr iterationvars2 $repetition=20
attr measurement ""
attr network "\"org.car2x.veins.modules.application.ExtTraCIScenarioManagerLaunchd.IntersectionExampleScenario\""
attr processid 21192
attr repetition 20
attr replication #20
attr resultdir results
attr runnumber 20
attr seedset 20
param **.coreDebug false
param **.debug false
param *.**.nic.mac1609_4.bitrate 18Mbps
param *.**.nic.mac1609_4.txPower 20mW
param *.**.nic.mac1609_4.useServiceChannel false
param *.**.nic.phy80211p.analogueModels "xmldoc(\"config.xml\")"
param *.**.nic.phy80211p.decider "xmldoc(\"config.xml\")"
param *.**.nic.phy80211p.sensitivity -89dBm
param *.**.nic.phy80211p.thermalNoise -110dBm
param *.**.nic.phy80211p.usePropagationDelay true
param *.**.nic.phy80211p.useThermalNoise true
param *.annotations.draw false
param *.connectionManager.alpha 2.0
param *.connectionManager.carrierFrequency "5.890e9 Hz"
param *.connectionManager.pMax 20mW
param *.connectionManager.sat -89dBm
param *.connectionManager.sendDirect true
param *.manager.autoShutdown true
param *.manager.host "\"localhost\""
param *.manager.launchConfig "xmldoc(\"paramics.launchd.xml\")"
param *.manager.margin 25
param *.manager.moduleDisplayString "\"\""
param *.manager.moduleName "\"node\""
param *.manager.moduleType "\"org.car2x.veins.nodes.Car\""
param *.manager.port 9999
param *.manager.updateInterval 250ms
param *.node[*0].veinsmobility.accidentCount 0
param *.node[*0].veinsmobility.accidentDuration 30s
param *.node[*0].veinsmobility.accidentStart 75s
param *.node[*].appl.LiderSelectZoneRadio 55.0
param *.node[*].appl.ShareDataZoneRadio 110.0
param *.node[*].appl.TiempoSemaforo 30.0
param *.node[*].appl.beaconInterval 1s
param *.node[*].appl.beaconPriority 3
param *.node[*].appl.dataOnSch false
param *.node[*].appl.dataPriority 2
param *.node[*].appl.debug false
param *.node[*].appl.headerLength "256 bit"
param *.node[*].appl.maxOffset 0.005s
param *.node[*].appl.sendBeacons false
param *.node[*].appl.sendData true
param *.node[*].applType "\"Dummy\""
param *.node[*].mobilityType "\"TraCIMobility\""
param *.node[*].mobilityType.debug true
param *.node[*].veinsmobility.x 0
param *.node[*].veinsmobility.y 0
param *.node[*].veinsmobility.z 1.895
param *.node[*].veinsmobilityType "\"org.car2x.veins.modules.mobility.traci.TraCIMobility\""
param *.node[*].veinsmobilityType.debug true
param *.playgroundSizeX 8500m
param *.playgroundSizeY 8500m
param *.playgroundSizeZ 50m
param *.world.use2D false
param *.world.useTorus false

scalar IntersectionExampleScenario.node[0].appl 	VehicleRemoved 	0
scalar IntersectionExampleScenario.node[0].appl 	ArrivedAtDest 	1
scalar IntersectionExampleScenario.node[0].appl 	IntersectionEnterTime 	2.75
scalar IntersectionExampleScenario.node[0].appl 	IntersectionExitTime 	26.601979684347
scalar IntersectionExampleScenario.node[0].appl 	NumberOfCollisions 	0
scalar IntersectionExampleScenario.node[0].nic.phy80211p 	busyTime 	0
scalar IntersectionExampleScenario.node[0].nic.mac1609_4 	ReceivedUnicastPackets 	0
scalar IntersectionExampleScenario.node[0].nic.mac1609_4 	ReceivedBroadcasts 	0
scalar IntersectionExampleScenario.node[0].nic.mac1609_4 	SentPackets 	0
scalar IntersectionExampleScenario.node[0].nic.mac1609_4 	SNIRLostPackets 	0
scalar IntersectionExampleScenario.node[0].nic.mac1609_4 	RXTXLostPackets 	0
scalar IntersectionExampleScenario.node[0].nic.mac1609_4 	TotalLostPackets 	0
scalar IntersectionExampleScenario.node[0].nic.mac1609_4 	DroppedPacketsInMac 	0
scalar IntersectionExampleScenario.node[0].nic.mac1609_4 	TooLittleTime 	0
scalar IntersectionExampleScenario.node[0].nic.mac1609_4 	TimesIntoBackoff 	0
scalar IntersectionExampleScenario.node[0].nic.mac1609_4 	SlotsBackoff 	0
scalar IntersectionExampleScenario.node[0].nic.mac1609_4 	NumInternalContention 	0
scalar IntersectionExampleScenario.node[0].nic.mac1609_4 	totalBusyTime 	0
scalar IntersectionExampleScenario.node[0].veinsmobility 	startTime 	2.75
scalar IntersectionExampleScenario.node[0].veinsmobility 	totalTime 	40.75
scalar IntersectionExampleScenario.node[0].veinsmobility 	stopTime 	43.75
scalar IntersectionExampleScenario.node[0].veinsmobility 	minSpeed 	5.6500000953674
scalar IntersectionExampleScenario.node[0].veinsmobility 	maxSpeed 	14.875
scalar IntersectionExampleScenario.node[0].veinsmobility 	totalDistance 	553.86080932617
scalar IntersectionExampleScenario.node[0].veinsmobility 	totalCO2Emission 	112.513754615
scalar IntersectionExampleScenario.node[1].appl 	VehicleRemoved 	0
scalar IntersectionExampleScenario.node[1].appl 	ArrivedAtDest 	1
scalar IntersectionExampleScenario.node[1].appl 	IntersectionEnterTime 	5.5
scalar IntersectionExampleScenario.node[1].appl 	IntersectionExitTime 	30.814813868375
scalar IntersectionExampleScenario.node[1].appl 	NumberOfCollisions 	0
scalar IntersectionExampleScenario.node[1].nic.phy80211p 	busyTime 	0
scalar IntersectionExampleScenario.node[1].nic.mac1609_4 	ReceivedUnicastPackets 	0
scalar IntersectionExampleScenario.node[1].nic.mac1609_4 	ReceivedBroadcasts 	0
scalar IntersectionExampleScenario.node[1].nic.mac1609_4 	SentPackets 	0
scalar IntersectionExampleScenario.node[1].nic.mac1609_4 	SNIRLostPackets 	0
scalar IntersectionExampleScenario.node[1].nic.mac1609_4 	RXTXLostPackets 	0
scalar IntersectionExampleScenario.node[1].nic.mac1609_4 	TotalLostPackets 	0
scalar IntersectionExampleScenario.node[1].nic.mac1609_4 	DroppedPacketsInMac 	0
scalar IntersectionExampleScenario.node[1].nic.mac1609_4 	TooLittleTime 	0
scalar IntersectionExampleScenario.node[1].nic.mac1609_4 	TimesIntoBackoff 	0
scalar IntersectionExampleScenario.node[1].nic.mac1609_4 	SlotsBackoff 	0
scalar IntersectionExampleScenario.node[1].nic.mac1609_4 	NumInternalContention 	0
scalar IntersectionExampleScenario.node[1].nic.mac1609_4 	totalBusyTime 	0
scalar IntersectionExampleScenario.node[1].veinsmobility 	startTime 	5.5
scalar IntersectionExampleScenario.node[1].veinsmobility 	totalTime 	42.5
scalar IntersectionExampleScenario.node[1].veinsmobility 	stopTime 	48.25
scalar IntersectionExampleScenario.node[1].veinsmobility 	minSpeed 	5.6500000953674
scalar IntersectionExampleScenario.node[1].veinsmobility 	maxSpeed 	14.625
scalar IntersectionExampleScenario.node[1].veinsmobility 	totalDistance 	558.29363598648
scalar IntersectionExampleScenario.node[1].veinsmobility 	totalCO2Emission 	124.15663991943
scalar IntersectionExampleScenario.node[3].appl 	VehicleRemoved 	0
scalar IntersectionExampleScenario.node[3].appl 	ArrivedAtDest 	1
scalar IntersectionExampleScenario.node[3].appl 	IntersectionEnterTime 	10
scalar IntersectionExampleScenario.node[3].appl 	IntersectionExitTime 	33.254583038361
scalar IntersectionExampleScenario.node[3].appl 	NumberOfCollisions 	0
scalar IntersectionExampleScenario.node[3].nic.phy80211p 	busyTime 	0
scalar IntersectionExampleScenario.node[3].nic.mac1609_4 	ReceivedUnicastPackets 	0
scalar IntersectionExampleScenario.node[3].nic.mac1609_4 	ReceivedBroadcasts 	0
scalar IntersectionExampleScenario.node[3].nic.mac1609_4 	SentPackets 	0
scalar IntersectionExampleScenario.node[3].nic.mac1609_4 	SNIRLostPackets 	0
scalar IntersectionExampleScenario.node[3].nic.mac1609_4 	RXTXLostPackets 	0
scalar IntersectionExampleScenario.node[3].nic.mac1609_4 	TotalLostPackets 	0
scalar IntersectionExampleScenario.node[3].nic.mac1609_4 	DroppedPacketsInMac 	0
scalar IntersectionExampleScenario.node[3].nic.mac1609_4 	TooLittleTime 	0
scalar IntersectionExampleScenario.node[3].nic.mac1609_4 	TimesIntoBackoff 	0
scalar IntersectionExampleScenario.node[3].nic.mac1609_4 	SlotsBackoff 	0
scalar IntersectionExampleScenario.node[3].nic.mac1609_4 	NumInternalContention 	0
scalar IntersectionExampleScenario.node[3].nic.mac1609_4 	totalBusyTime 	0
scalar IntersectionExampleScenario.node[3].veinsmobility 	startTime 	10
scalar IntersectionExampleScenario.node[3].veinsmobility 	totalTime 	40
scalar IntersectionExampleScenario.node[3].veinsmobility 	stopTime 	50.25
scalar IntersectionExampleScenario.node[3].veinsmobility 	minSpeed 	5.6500000953674
scalar IntersectionExampleScenario.node[3].veinsmobility 	maxSpeed 	15.875
scalar IntersectionExampleScenario.node[3].veinsmobility 	totalDistance 	545.62878780216
scalar IntersectionExampleScenario.node[3].veinsmobility 	totalCO2Emission 	127.12384671915
scalar IntersectionExampleScenario.node[2].appl 	VehicleRemoved 	0
scalar IntersectionExampleScenario.node[2].appl 	ArrivedAtDest 	1
scalar IntersectionExampleScenario.node[2].appl 	IntersectionEnterTime 	6.25
scalar IntersectionExampleScenario.node[2].appl 	IntersectionExitTime 	39.58982574119
scalar IntersectionExampleScenario.node[2].appl 	NumberOfCollisions 	0
scalar IntersectionExampleScenario.node[2].nic.phy80211p 	busyTime 	0
scalar IntersectionExampleScenario.node[2].nic.mac1609_4 	ReceivedUnicastPackets 	0
scalar IntersectionExampleScenario.node[2].nic.mac1609_4 	ReceivedBroadcasts 	0
scalar IntersectionExampleScenario.node[2].nic.mac1609_4 	SentPackets 	0
scalar IntersectionExampleScenario.node[2].nic.mac1609_4 	SNIRLostPackets 	0
scalar IntersectionExampleScenario.node[2].nic.mac1609_4 	RXTXLostPackets 	0
scalar IntersectionExampleScenario.node[2].nic.mac1609_4 	TotalLostPackets 	0
scalar IntersectionExampleScenario.node[2].nic.mac1609_4 	DroppedPacketsInMac 	0
scalar IntersectionExampleScenario.node[2].nic.mac1609_4 	TooLittleTime 	0
scalar IntersectionExampleScenario.node[2].nic.mac1609_4 	TimesIntoBackoff 	0
scalar IntersectionExampleScenario.node[2].nic.mac1609_4 	SlotsBackoff 	0
scalar IntersectionExampleScenario.node[2].nic.mac1609_4 	NumInternalContention 	0
scalar IntersectionExampleScenario.node[2].nic.mac1609_4 	totalBusyTime 	0
scalar IntersectionExampleScenario.node[2].veinsmobility 	startTime 	6.25
scalar IntersectionExampleScenario.node[2].veinsmobility 	totalTime 	50.25
scalar IntersectionExampleScenario.node[2].veinsmobility 	stopTime 	56.75
scalar IntersectionExampleScenario.node[2].veinsmobility 	minSpeed 	0
scalar IntersectionExampleScenario.node[2].veinsmobility 	maxSpeed 	15.25
scalar IntersectionExampleScenario.node[2].veinsmobility 	totalDistance 	545.0027074948
scalar IntersectionExampleScenario.node[2].veinsmobility 	totalCO2Emission 	140.12919151024
scalar IntersectionExampleScenario.node[4].appl 	VehicleRemoved 	0
scalar IntersectionExampleScenario.node[4].appl 	ArrivedAtDest 	1
scalar IntersectionExampleScenario.node[4].appl 	IntersectionEnterTime 	20.5
scalar IntersectionExampleScenario.node[4].appl 	IntersectionExitTime 	44.031850751577
scalar IntersectionExampleScenario.node[4].appl 	NumberOfCollisions 	0
scalar IntersectionExampleScenario.node[4].nic.phy80211p 	busyTime 	0
scalar IntersectionExampleScenario.node[4].nic.mac1609_4 	ReceivedUnicastPackets 	0
scalar IntersectionExampleScenario.node[4].nic.mac1609_4 	ReceivedBroadcasts 	0
scalar IntersectionExampleScenario.node[4].nic.mac1609_4 	SentPackets 	0
scalar IntersectionExampleScenario.node[4].nic.mac1609_4 	SNIRLostPackets 	0
scalar IntersectionExampleScenario.node[4].nic.mac1609_4 	RXTXLostPackets 	0
scalar IntersectionExampleScenario.node[4].nic.mac1609_4 	TotalLostPackets 	0
scalar IntersectionExampleScenario.node[4].nic.mac1609_4 	DroppedPacketsInMac 	0
scalar IntersectionExampleScenario.node[4].nic.mac1609_4 	TooLittleTime 	0
scalar IntersectionExampleScenario.node[4].nic.mac1609_4 	TimesIntoBackoff 	0
scalar IntersectionExampleScenario.node[4].nic.mac1609_4 	SlotsBackoff 	0
scalar IntersectionExampleScenario.node[4].nic.mac1609_4 	NumInternalContention 	0
scalar IntersectionExampleScenario.node[4].nic.mac1609_4 	totalBusyTime 	0
scalar IntersectionExampleScenario.node[4].veinsmobility 	startTime 	20.5
scalar IntersectionExampleScenario.node[4].veinsmobility 	totalTime 	40
scalar IntersectionExampleScenario.node[4].veinsmobility 	stopTime 	60.75
scalar IntersectionExampleScenario.node[4].veinsmobility 	minSpeed 	5.6500000953674
scalar IntersectionExampleScenario.node[4].veinsmobility 	maxSpeed 	15.02499961853
scalar IntersectionExampleScenario.node[4].veinsmobility 	totalDistance 	553.01731109619
scalar IntersectionExampleScenario.node[4].veinsmobility 	totalCO2Emission 	114.18256448094
scalar IntersectionExampleScenario.node[6].appl 	VehicleRemoved 	0
scalar IntersectionExampleScenario.node[6].appl 	ArrivedAtDest 	1
scalar IntersectionExampleScenario.node[6].appl 	IntersectionEnterTime 	22.5
scalar IntersectionExampleScenario.node[6].appl 	IntersectionExitTime 	47.354937240394
scalar IntersectionExampleScenario.node[6].appl 	NumberOfCollisions 	0
scalar IntersectionExampleScenario.node[6].nic.phy80211p 	busyTime 	0
scalar IntersectionExampleScenario.node[6].nic.mac1609_4 	ReceivedUnicastPackets 	0
scalar IntersectionExampleScenario.node[6].nic.mac1609_4 	ReceivedBroadcasts 	0
scalar IntersectionExampleScenario.node[6].nic.mac1609_4 	SentPackets 	0
scalar IntersectionExampleScenario.node[6].nic.mac1609_4 	SNIRLostPackets 	0
scalar IntersectionExampleScenario.node[6].nic.mac1609_4 	RXTXLostPackets 	0
scalar IntersectionExampleScenario.node[6].nic.mac1609_4 	TotalLostPackets 	0
scalar IntersectionExampleScenario.node[6].nic.mac1609_4 	DroppedPacketsInMac 	0
scalar IntersectionExampleScenario.node[6].nic.mac1609_4 	TooLittleTime 	0
scalar IntersectionExampleScenario.node[6].nic.mac1609_4 	TimesIntoBackoff 	0
scalar IntersectionExampleScenario.node[6].nic.mac1609_4 	SlotsBackoff 	0
scalar IntersectionExampleScenario.node[6].nic.mac1609_4 	NumInternalContention 	0
scalar IntersectionExampleScenario.node[6].nic.mac1609_4 	totalBusyTime 	0
scalar IntersectionExampleScenario.node[6].veinsmobility 	startTime 	22.5
scalar IntersectionExampleScenario.node[6].veinsmobility 	totalTime 	41.25
scalar IntersectionExampleScenario.node[6].veinsmobility 	stopTime 	64
scalar IntersectionExampleScenario.node[6].veinsmobility 	minSpeed 	5.6500000953674
scalar IntersectionExampleScenario.node[6].veinsmobility 	maxSpeed 	15.875
scalar IntersectionExampleScenario.node[6].veinsmobility 	totalDistance 	561.98336107823
scalar IntersectionExampleScenario.node[6].veinsmobility 	totalCO2Emission 	132.21799615264
scalar IntersectionExampleScenario.node[10].appl 	VehicleRemoved 	0
scalar IntersectionExampleScenario.node[10].appl 	ArrivedAtDest 	1
scalar IntersectionExampleScenario.node[10].appl 	IntersectionEnterTime 	32
scalar IntersectionExampleScenario.node[10].appl 	IntersectionExitTime 	55.334255207737
scalar IntersectionExampleScenario.node[10].appl 	NumberOfCollisions 	0
scalar IntersectionExampleScenario.node[10].nic.phy80211p 	busyTime 	0
scalar IntersectionExampleScenario.node[10].nic.mac1609_4 	ReceivedUnicastPackets 	0
scalar IntersectionExampleScenario.node[10].nic.mac1609_4 	ReceivedBroadcasts 	0
scalar IntersectionExampleScenario.node[10].nic.mac1609_4 	SentPackets 	0
scalar IntersectionExampleScenario.node[10].nic.mac1609_4 	SNIRLostPackets 	0
scalar IntersectionExampleScenario.node[10].nic.mac1609_4 	RXTXLostPackets 	0
scalar IntersectionExampleScenario.node[10].nic.mac1609_4 	TotalLostPackets 	0
scalar IntersectionExampleScenario.node[10].nic.mac1609_4 	DroppedPacketsInMac 	0
scalar IntersectionExampleScenario.node[10].nic.mac1609_4 	TooLittleTime 	0
scalar IntersectionExampleScenario.node[10].nic.mac1609_4 	TimesIntoBackoff 	0
scalar IntersectionExampleScenario.node[10].nic.mac1609_4 	SlotsBackoff 	0
scalar IntersectionExampleScenario.node[10].nic.mac1609_4 	NumInternalContention 	0
scalar IntersectionExampleScenario.node[10].nic.mac1609_4 	totalBusyTime 	0
scalar IntersectionExampleScenario.node[10].veinsmobility 	startTime 	32
scalar IntersectionExampleScenario.node[10].veinsmobility 	totalTime 	39.75
scalar IntersectionExampleScenario.node[10].veinsmobility 	stopTime 	72
scalar IntersectionExampleScenario.node[10].veinsmobility 	minSpeed 	5.6500000953674
scalar IntersectionExampleScenario.node[10].veinsmobility 	maxSpeed 	15.875
scalar IntersectionExampleScenario.node[10].veinsmobility 	totalDistance 	545.50572653795
scalar IntersectionExampleScenario.node[10].veinsmobility 	totalCO2Emission 	128.26904674273
scalar IntersectionExampleScenario.node[11].appl 	VehicleRemoved 	0
scalar IntersectionExampleScenario.node[11].appl 	ArrivedAtDest 	1
scalar IntersectionExampleScenario.node[11].appl 	IntersectionEnterTime 	41.75
scalar IntersectionExampleScenario.node[11].appl 	IntersectionExitTime 	65.536916876736
scalar IntersectionExampleScenario.node[11].appl 	NumberOfCollisions 	0
scalar IntersectionExampleScenario.node[11].nic.phy80211p 	busyTime 	0
scalar IntersectionExampleScenario.node[11].nic.mac1609_4 	ReceivedUnicastPackets 	0
scalar IntersectionExampleScenario.node[11].nic.mac1609_4 	ReceivedBroadcasts 	0
scalar IntersectionExampleScenario.node[11].nic.mac1609_4 	SentPackets 	0
scalar IntersectionExampleScenario.node[11].nic.mac1609_4 	SNIRLostPackets 	0
scalar IntersectionExampleScenario.node[11].nic.mac1609_4 	RXTXLostPackets 	0
scalar IntersectionExampleScenario.node[11].nic.mac1609_4 	TotalLostPackets 	0
scalar IntersectionExampleScenario.node[11].nic.mac1609_4 	DroppedPacketsInMac 	0
scalar IntersectionExampleScenario.node[11].nic.mac1609_4 	TooLittleTime 	0
scalar IntersectionExampleScenario.node[11].nic.mac1609_4 	TimesIntoBackoff 	0
scalar IntersectionExampleScenario.node[11].nic.mac1609_4 	SlotsBackoff 	0
scalar IntersectionExampleScenario.node[11].nic.mac1609_4 	NumInternalContention 	0
scalar IntersectionExampleScenario.node[11].nic.mac1609_4 	totalBusyTime 	0
scalar IntersectionExampleScenario.node[11].veinsmobility 	startTime 	41.75
scalar IntersectionExampleScenario.node[11].veinsmobility 	totalTime 	40.25
scalar IntersectionExampleScenario.node[11].veinsmobility 	stopTime 	82.25
scalar IntersectionExampleScenario.node[11].veinsmobility 	minSpeed 	5.6500000953674
scalar IntersectionExampleScenario.node[11].veinsmobility 	maxSpeed 	15.875
scalar IntersectionExampleScenario.node[11].veinsmobility 	totalDistance 	545.9694733634
scalar IntersectionExampleScenario.node[11].veinsmobility 	totalCO2Emission 	130.39774120515
scalar IntersectionExampleScenario.node[5].appl 	VehicleRemoved 	0
scalar IntersectionExampleScenario.node[5].appl 	ArrivedAtDest 	1
scalar IntersectionExampleScenario.node[5].appl 	IntersectionEnterTime 	22
scalar IntersectionExampleScenario.node[5].appl 	IntersectionExitTime 	66.272347565216
scalar IntersectionExampleScenario.node[5].appl 	NumberOfCollisions 	0
scalar IntersectionExampleScenario.node[5].nic.phy80211p 	busyTime 	0
scalar IntersectionExampleScenario.node[5].nic.mac1609_4 	ReceivedUnicastPackets 	0
scalar IntersectionExampleScenario.node[5].nic.mac1609_4 	ReceivedBroadcasts 	0
scalar IntersectionExampleScenario.node[5].nic.mac1609_4 	SentPackets 	0
scalar IntersectionExampleScenario.node[5].nic.mac1609_4 	SNIRLostPackets 	0
scalar IntersectionExampleScenario.node[5].nic.mac1609_4 	RXTXLostPackets 	0
scalar IntersectionExampleScenario.node[5].nic.mac1609_4 	TotalLostPackets 	0
scalar IntersectionExampleScenario.node[5].nic.mac1609_4 	DroppedPacketsInMac 	0
scalar IntersectionExampleScenario.node[5].nic.mac1609_4 	TooLittleTime 	0
scalar IntersectionExampleScenario.node[5].nic.mac1609_4 	TimesIntoBackoff 	0
scalar IntersectionExampleScenario.node[5].nic.mac1609_4 	SlotsBackoff 	0
scalar IntersectionExampleScenario.node[5].nic.mac1609_4 	NumInternalContention 	0
scalar IntersectionExampleScenario.node[5].nic.mac1609_4 	totalBusyTime 	0
scalar IntersectionExampleScenario.node[5].veinsmobility 	startTime 	22
scalar IntersectionExampleScenario.node[5].veinsmobility 	totalTime 	60.5
scalar IntersectionExampleScenario.node[5].veinsmobility 	stopTime 	82.75
scalar IntersectionExampleScenario.node[5].veinsmobility 	minSpeed 	0
scalar IntersectionExampleScenario.node[5].veinsmobility 	maxSpeed 	15.375
scalar IntersectionExampleScenario.node[5].veinsmobility 	totalDistance 	552.79929351807
scalar IntersectionExampleScenario.node[5].veinsmobility 	totalCO2Emission 	150.52391206543
scalar IntersectionExampleScenario.node[12].appl 	VehicleRemoved 	0
scalar IntersectionExampleScenario.node[12].appl 	ArrivedAtDest 	1
scalar IntersectionExampleScenario.node[12].appl 	IntersectionEnterTime 	43
scalar IntersectionExampleScenario.node[12].appl 	IntersectionExitTime 	67.546494372684
scalar IntersectionExampleScenario.node[12].appl 	NumberOfCollisions 	0
scalar IntersectionExampleScenario.node[12].nic.phy80211p 	busyTime 	0
scalar IntersectionExampleScenario.node[12].nic.mac1609_4 	ReceivedUnicastPackets 	0
scalar IntersectionExampleScenario.node[12].nic.mac1609_4 	ReceivedBroadcasts 	0
scalar IntersectionExampleScenario.node[12].nic.mac1609_4 	SentPackets 	0
scalar IntersectionExampleScenario.node[12].nic.mac1609_4 	SNIRLostPackets 	0
scalar IntersectionExampleScenario.node[12].nic.mac1609_4 	RXTXLostPackets 	0
scalar IntersectionExampleScenario.node[12].nic.mac1609_4 	TotalLostPackets 	0
scalar IntersectionExampleScenario.node[12].nic.mac1609_4 	DroppedPacketsInMac 	0
scalar IntersectionExampleScenario.node[12].nic.mac1609_4 	TooLittleTime 	0
scalar IntersectionExampleScenario.node[12].nic.mac1609_4 	TimesIntoBackoff 	0
scalar IntersectionExampleScenario.node[12].nic.mac1609_4 	SlotsBackoff 	0
scalar IntersectionExampleScenario.node[12].nic.mac1609_4 	NumInternalContention 	0
scalar IntersectionExampleScenario.node[12].nic.mac1609_4 	totalBusyTime 	0
scalar IntersectionExampleScenario.node[12].veinsmobility 	startTime 	43
scalar IntersectionExampleScenario.node[12].veinsmobility 	totalTime 	40
scalar IntersectionExampleScenario.node[12].veinsmobility 	stopTime 	83.25
scalar IntersectionExampleScenario.node[12].veinsmobility 	minSpeed 	5.6500000953674
scalar IntersectionExampleScenario.node[12].veinsmobility 	maxSpeed 	16.125
scalar IntersectionExampleScenario.node[12].veinsmobility 	totalDistance 	574.12107849121
scalar IntersectionExampleScenario.node[12].veinsmobility 	totalCO2Emission 	131.99864345653
scalar IntersectionExampleScenario.node[9].appl 	VehicleRemoved 	0
scalar IntersectionExampleScenario.node[9].appl 	ArrivedAtDest 	1
scalar IntersectionExampleScenario.node[9].appl 	IntersectionEnterTime 	28.25
scalar IntersectionExampleScenario.node[9].appl 	IntersectionExitTime 	67.788813943916
scalar IntersectionExampleScenario.node[9].appl 	NumberOfCollisions 	0
scalar IntersectionExampleScenario.node[9].nic.phy80211p 	busyTime 	0
scalar IntersectionExampleScenario.node[9].nic.mac1609_4 	ReceivedUnicastPackets 	0
scalar IntersectionExampleScenario.node[9].nic.mac1609_4 	ReceivedBroadcasts 	0
scalar IntersectionExampleScenario.node[9].nic.mac1609_4 	SentPackets 	0
scalar IntersectionExampleScenario.node[9].nic.mac1609_4 	SNIRLostPackets 	0
scalar IntersectionExampleScenario.node[9].nic.mac1609_4 	RXTXLostPackets 	0
scalar IntersectionExampleScenario.node[9].nic.mac1609_4 	TotalLostPackets 	0
scalar IntersectionExampleScenario.node[9].nic.mac1609_4 	DroppedPacketsInMac 	0
scalar IntersectionExampleScenario.node[9].nic.mac1609_4 	TooLittleTime 	0
scalar IntersectionExampleScenario.node[9].nic.mac1609_4 	TimesIntoBackoff 	0
scalar IntersectionExampleScenario.node[9].nic.mac1609_4 	SlotsBackoff 	0
scalar IntersectionExampleScenario.node[9].nic.mac1609_4 	NumInternalContention 	0
scalar IntersectionExampleScenario.node[9].nic.mac1609_4 	totalBusyTime 	0
scalar IntersectionExampleScenario.node[9].veinsmobility 	startTime 	28.25
scalar IntersectionExampleScenario.node[9].veinsmobility 	totalTime 	55.5
scalar IntersectionExampleScenario.node[9].veinsmobility 	stopTime 	84
scalar IntersectionExampleScenario.node[9].veinsmobility 	minSpeed 	0
scalar IntersectionExampleScenario.node[9].veinsmobility 	maxSpeed 	15.598289489746
scalar IntersectionExampleScenario.node[9].veinsmobility 	totalDistance 	517.10905849804
scalar IntersectionExampleScenario.node[9].veinsmobility 	totalCO2Emission 	147.9647020518
scalar IntersectionExampleScenario.node[7].appl 	VehicleRemoved 	0
scalar IntersectionExampleScenario.node[7].appl 	ArrivedAtDest 	1
scalar IntersectionExampleScenario.node[7].appl 	IntersectionEnterTime 	25
scalar IntersectionExampleScenario.node[7].appl 	IntersectionExitTime 	69.58134823927
scalar IntersectionExampleScenario.node[7].appl 	NumberOfCollisions 	0
scalar IntersectionExampleScenario.node[7].nic.phy80211p 	busyTime 	0
scalar IntersectionExampleScenario.node[7].nic.mac1609_4 	ReceivedUnicastPackets 	0
scalar IntersectionExampleScenario.node[7].nic.mac1609_4 	ReceivedBroadcasts 	0
scalar IntersectionExampleScenario.node[7].nic.mac1609_4 	SentPackets 	0
scalar IntersectionExampleScenario.node[7].nic.mac1609_4 	SNIRLostPackets 	0
scalar IntersectionExampleScenario.node[7].nic.mac1609_4 	RXTXLostPackets 	0
scalar IntersectionExampleScenario.node[7].nic.mac1609_4 	TotalLostPackets 	0
scalar IntersectionExampleScenario.node[7].nic.mac1609_4 	DroppedPacketsInMac 	0
scalar IntersectionExampleScenario.node[7].nic.mac1609_4 	TooLittleTime 	0
scalar IntersectionExampleScenario.node[7].nic.mac1609_4 	TimesIntoBackoff 	0
scalar IntersectionExampleScenario.node[7].nic.mac1609_4 	SlotsBackoff 	0
scalar IntersectionExampleScenario.node[7].nic.mac1609_4 	NumInternalContention 	0
scalar IntersectionExampleScenario.node[7].nic.mac1609_4 	totalBusyTime 	0
scalar IntersectionExampleScenario.node[7].veinsmobility 	startTime 	25
scalar IntersectionExampleScenario.node[7].veinsmobility 	totalTime 	60.75
scalar IntersectionExampleScenario.node[7].veinsmobility 	stopTime 	86
scalar IntersectionExampleScenario.node[7].veinsmobility 	minSpeed 	0
scalar IntersectionExampleScenario.node[7].veinsmobility 	maxSpeed 	15.875
scalar IntersectionExampleScenario.node[7].veinsmobility 	totalDistance 	556.65493956436
scalar IntersectionExampleScenario.node[7].veinsmobility 	totalCO2Emission 	172.62938714255
scalar IntersectionExampleScenario.node[8].appl 	VehicleRemoved 	0
scalar IntersectionExampleScenario.node[8].appl 	ArrivedAtDest 	1
scalar IntersectionExampleScenario.node[8].appl 	IntersectionEnterTime 	27
scalar IntersectionExampleScenario.node[8].appl 	IntersectionExitTime 	71.810123017029
scalar IntersectionExampleScenario.node[8].appl 	NumberOfCollisions 	0
scalar IntersectionExampleScenario.node[8].nic.phy80211p 	busyTime 	0
scalar IntersectionExampleScenario.node[8].nic.mac1609_4 	ReceivedUnicastPackets 	0
scalar IntersectionExampleScenario.node[8].nic.mac1609_4 	ReceivedBroadcasts 	0
scalar IntersectionExampleScenario.node[8].nic.mac1609_4 	SentPackets 	0
scalar IntersectionExampleScenario.node[8].nic.mac1609_4 	SNIRLostPackets 	0
scalar IntersectionExampleScenario.node[8].nic.mac1609_4 	RXTXLostPackets 	0
scalar IntersectionExampleScenario.node[8].nic.mac1609_4 	TotalLostPackets 	0
scalar IntersectionExampleScenario.node[8].nic.mac1609_4 	DroppedPacketsInMac 	0
scalar IntersectionExampleScenario.node[8].nic.mac1609_4 	TooLittleTime 	0
scalar IntersectionExampleScenario.node[8].nic.mac1609_4 	TimesIntoBackoff 	0
scalar IntersectionExampleScenario.node[8].nic.mac1609_4 	SlotsBackoff 	0
scalar IntersectionExampleScenario.node[8].nic.mac1609_4 	NumInternalContention 	0
scalar IntersectionExampleScenario.node[8].nic.mac1609_4 	totalBusyTime 	0
scalar IntersectionExampleScenario.node[8].veinsmobility 	startTime 	27
scalar IntersectionExampleScenario.node[8].veinsmobility 	totalTime 	60.25
scalar IntersectionExampleScenario.node[8].veinsmobility 	stopTime 	87.5
scalar IntersectionExampleScenario.node[8].veinsmobility 	minSpeed 	0
scalar IntersectionExampleScenario.node[8].veinsmobility 	maxSpeed 	15.64370059967
scalar IntersectionExampleScenario.node[8].veinsmobility 	totalDistance 	575.68438720703
scalar IntersectionExampleScenario.node[8].veinsmobility 	totalCO2Emission 	157.88157801914
scalar IntersectionExampleScenario.node[14].appl 	VehicleRemoved 	0
scalar IntersectionExampleScenario.node[14].appl 	ArrivedAtDest 	1
scalar IntersectionExampleScenario.node[14].appl 	IntersectionEnterTime 	51.5
scalar IntersectionExampleScenario.node[14].appl 	IntersectionExitTime 	74.020059339615
scalar IntersectionExampleScenario.node[14].appl 	NumberOfCollisions 	0
scalar IntersectionExampleScenario.node[14].nic.phy80211p 	busyTime 	0
scalar IntersectionExampleScenario.node[14].nic.mac1609_4 	ReceivedUnicastPackets 	0
scalar IntersectionExampleScenario.node[14].nic.mac1609_4 	ReceivedBroadcasts 	0
scalar IntersectionExampleScenario.node[14].nic.mac1609_4 	SentPackets 	0
scalar IntersectionExampleScenario.node[14].nic.mac1609_4 	SNIRLostPackets 	0
scalar IntersectionExampleScenario.node[14].nic.mac1609_4 	RXTXLostPackets 	0
scalar IntersectionExampleScenario.node[14].nic.mac1609_4 	TotalLostPackets 	0
scalar IntersectionExampleScenario.node[14].nic.mac1609_4 	DroppedPacketsInMac 	0
scalar IntersectionExampleScenario.node[14].nic.mac1609_4 	TooLittleTime 	0
scalar IntersectionExampleScenario.node[14].nic.mac1609_4 	TimesIntoBackoff 	0
scalar IntersectionExampleScenario.node[14].nic.mac1609_4 	SlotsBackoff 	0
scalar IntersectionExampleScenario.node[14].nic.mac1609_4 	NumInternalContention 	0
scalar IntersectionExampleScenario.node[14].nic.mac1609_4 	totalBusyTime 	0
scalar IntersectionExampleScenario.node[14].veinsmobility 	startTime 	51.5
scalar IntersectionExampleScenario.node[14].veinsmobility 	totalTime 	38
scalar IntersectionExampleScenario.node[14].veinsmobility 	stopTime 	89.75
scalar IntersectionExampleScenario.node[14].veinsmobility 	minSpeed 	5.6500000953674
scalar IntersectionExampleScenario.node[14].veinsmobility 	maxSpeed 	16.878078460693
scalar IntersectionExampleScenario.node[14].veinsmobility 	totalDistance 	543.00643043837
scalar IntersectionExampleScenario.node[14].veinsmobility 	totalCO2Emission 	140.46885820575
scalar IntersectionExampleScenario.node[20].appl 	VehicleRemoved 	0
scalar IntersectionExampleScenario.node[20].appl 	ArrivedAtDest 	1
scalar IntersectionExampleScenario.node[20].appl 	IntersectionEnterTime 	64.75
scalar IntersectionExampleScenario.node[20].appl 	IntersectionExitTime 	87.287408985081
scalar IntersectionExampleScenario.node[20].appl 	NumberOfCollisions 	0
scalar IntersectionExampleScenario.node[20].nic.phy80211p 	busyTime 	0
scalar IntersectionExampleScenario.node[20].nic.mac1609_4 	ReceivedUnicastPackets 	0
scalar IntersectionExampleScenario.node[20].nic.mac1609_4 	ReceivedBroadcasts 	0
scalar IntersectionExampleScenario.node[20].nic.mac1609_4 	SentPackets 	0
scalar IntersectionExampleScenario.node[20].nic.mac1609_4 	SNIRLostPackets 	0
scalar IntersectionExampleScenario.node[20].nic.mac1609_4 	RXTXLostPackets 	0
scalar IntersectionExampleScenario.node[20].nic.mac1609_4 	TotalLostPackets 	0
scalar IntersectionExampleScenario.node[20].nic.mac1609_4 	DroppedPacketsInMac 	0
scalar IntersectionExampleScenario.node[20].nic.mac1609_4 	TooLittleTime 	0
scalar IntersectionExampleScenario.node[20].nic.mac1609_4 	TimesIntoBackoff 	0
scalar IntersectionExampleScenario.node[20].nic.mac1609_4 	SlotsBackoff 	0
scalar IntersectionExampleScenario.node[20].nic.mac1609_4 	NumInternalContention 	0
scalar IntersectionExampleScenario.node[20].nic.mac1609_4 	totalBusyTime 	0
scalar IntersectionExampleScenario.node[20].veinsmobility 	startTime 	64.75
scalar IntersectionExampleScenario.node[20].veinsmobility 	totalTime 	38.25
scalar IntersectionExampleScenario.node[20].veinsmobility 	stopTime 	103.25
scalar IntersectionExampleScenario.node[20].veinsmobility 	minSpeed 	5.6500000953674
scalar IntersectionExampleScenario.node[20].veinsmobility 	maxSpeed 	16.125
scalar IntersectionExampleScenario.node[20].veinsmobility 	totalDistance 	554.53818511963
scalar IntersectionExampleScenario.node[20].veinsmobility 	totalCO2Emission 	120.14146876042
scalar IntersectionExampleScenario.node[25].appl 	VehicleRemoved 	0
scalar IntersectionExampleScenario.node[25].appl 	ArrivedAtDest 	1
scalar IntersectionExampleScenario.node[25].appl 	IntersectionEnterTime 	69
scalar IntersectionExampleScenario.node[25].appl 	IntersectionExitTime 	91.044293244748
scalar IntersectionExampleScenario.node[25].appl 	NumberOfCollisions 	0
scalar IntersectionExampleScenario.node[25].nic.phy80211p 	busyTime 	0
scalar IntersectionExampleScenario.node[25].nic.mac1609_4 	ReceivedUnicastPackets 	0
scalar IntersectionExampleScenario.node[25].nic.mac1609_4 	ReceivedBroadcasts 	0
scalar IntersectionExampleScenario.node[25].nic.mac1609_4 	SentPackets 	0
scalar IntersectionExampleScenario.node[25].nic.mac1609_4 	SNIRLostPackets 	0
scalar IntersectionExampleScenario.node[25].nic.mac1609_4 	RXTXLostPackets 	0
scalar IntersectionExampleScenario.node[25].nic.mac1609_4 	TotalLostPackets 	0
scalar IntersectionExampleScenario.node[25].nic.mac1609_4 	DroppedPacketsInMac 	0
scalar IntersectionExampleScenario.node[25].nic.mac1609_4 	TooLittleTime 	0
scalar IntersectionExampleScenario.node[25].nic.mac1609_4 	TimesIntoBackoff 	0
scalar IntersectionExampleScenario.node[25].nic.mac1609_4 	SlotsBackoff 	0
scalar IntersectionExampleScenario.node[25].nic.mac1609_4 	NumInternalContention 	0
scalar IntersectionExampleScenario.node[25].nic.mac1609_4 	totalBusyTime 	0
scalar IntersectionExampleScenario.node[25].veinsmobility 	startTime 	69
scalar IntersectionExampleScenario.node[25].veinsmobility 	totalTime 	38.75
scalar IntersectionExampleScenario.node[25].veinsmobility 	stopTime 	108
scalar IntersectionExampleScenario.node[25].veinsmobility 	minSpeed 	5.6500000953674
scalar IntersectionExampleScenario.node[25].veinsmobility 	maxSpeed 	15.64999961853
scalar IntersectionExampleScenario.node[25].veinsmobility 	totalDistance 	522.08388495159
scalar IntersectionExampleScenario.node[25].veinsmobility 	totalCO2Emission 	127.64338011851
scalar IntersectionExampleScenario.node[26].appl 	VehicleRemoved 	0
scalar IntersectionExampleScenario.node[26].appl 	ArrivedAtDest 	1
scalar IntersectionExampleScenario.node[26].appl 	IntersectionEnterTime 	71
scalar IntersectionExampleScenario.node[26].appl 	IntersectionExitTime 	92.796727976151
scalar IntersectionExampleScenario.node[26].appl 	NumberOfCollisions 	0
scalar IntersectionExampleScenario.node[26].nic.phy80211p 	busyTime 	0
scalar IntersectionExampleScenario.node[26].nic.mac1609_4 	ReceivedUnicastPackets 	0
scalar IntersectionExampleScenario.node[26].nic.mac1609_4 	ReceivedBroadcasts 	0
scalar IntersectionExampleScenario.node[26].nic.mac1609_4 	SentPackets 	0
scalar IntersectionExampleScenario.node[26].nic.mac1609_4 	SNIRLostPackets 	0
scalar IntersectionExampleScenario.node[26].nic.mac1609_4 	RXTXLostPackets 	0
scalar IntersectionExampleScenario.node[26].nic.mac1609_4 	TotalLostPackets 	0
scalar IntersectionExampleScenario.node[26].nic.mac1609_4 	DroppedPacketsInMac 	0
scalar IntersectionExampleScenario.node[26].nic.mac1609_4 	TooLittleTime 	0
scalar IntersectionExampleScenario.node[26].nic.mac1609_4 	TimesIntoBackoff 	0
scalar IntersectionExampleScenario.node[26].nic.mac1609_4 	SlotsBackoff 	0
scalar IntersectionExampleScenario.node[26].nic.mac1609_4 	NumInternalContention 	0
scalar IntersectionExampleScenario.node[26].nic.mac1609_4 	totalBusyTime 	0
scalar IntersectionExampleScenario.node[26].veinsmobility 	startTime 	71
scalar IntersectionExampleScenario.node[26].veinsmobility 	totalTime 	36.75
scalar IntersectionExampleScenario.node[26].veinsmobility 	stopTime 	108
scalar IntersectionExampleScenario.node[26].veinsmobility 	minSpeed 	5.6500000953674
scalar IntersectionExampleScenario.node[26].veinsmobility 	maxSpeed 	16.89999961853
scalar IntersectionExampleScenario.node[26].veinsmobility 	totalDistance 	552.31167602539
scalar IntersectionExampleScenario.node[26].veinsmobility 	totalCO2Emission 	125.3698764742
scalar IntersectionExampleScenario.node[21].appl 	VehicleRemoved 	0
scalar IntersectionExampleScenario.node[21].appl 	ArrivedAtDest 	1
scalar IntersectionExampleScenario.node[21].appl 	IntersectionEnterTime 	66
scalar IntersectionExampleScenario.node[21].appl 	IntersectionExitTime 	93.364329747652
scalar IntersectionExampleScenario.node[21].appl 	NumberOfCollisions 	0
scalar IntersectionExampleScenario.node[21].nic.phy80211p 	busyTime 	0
scalar IntersectionExampleScenario.node[21].nic.mac1609_4 	ReceivedUnicastPackets 	0
scalar IntersectionExampleScenario.node[21].nic.mac1609_4 	ReceivedBroadcasts 	0
scalar IntersectionExampleScenario.node[21].nic.mac1609_4 	SentPackets 	0
scalar IntersectionExampleScenario.node[21].nic.mac1609_4 	SNIRLostPackets 	0
scalar IntersectionExampleScenario.node[21].nic.mac1609_4 	RXTXLostPackets 	0
scalar IntersectionExampleScenario.node[21].nic.mac1609_4 	TotalLostPackets 	0
scalar IntersectionExampleScenario.node[21].nic.mac1609_4 	DroppedPacketsInMac 	0
scalar IntersectionExampleScenario.node[21].nic.mac1609_4 	TooLittleTime 	0
scalar IntersectionExampleScenario.node[21].nic.mac1609_4 	TimesIntoBackoff 	0
scalar IntersectionExampleScenario.node[21].nic.mac1609_4 	SlotsBackoff 	0
scalar IntersectionExampleScenario.node[21].nic.mac1609_4 	NumInternalContention 	0
scalar IntersectionExampleScenario.node[21].nic.mac1609_4 	totalBusyTime 	0
scalar IntersectionExampleScenario.node[21].veinsmobility 	startTime 	66
scalar IntersectionExampleScenario.node[21].veinsmobility 	totalTime 	44.25
scalar IntersectionExampleScenario.node[21].veinsmobility 	stopTime 	110.5
scalar IntersectionExampleScenario.node[21].veinsmobility 	minSpeed 	5.6500000953674
scalar IntersectionExampleScenario.node[21].veinsmobility 	maxSpeed 	14.875
scalar IntersectionExampleScenario.node[21].veinsmobility 	totalDistance 	574.01438140869
scalar IntersectionExampleScenario.node[21].veinsmobility 	totalCO2Emission 	136.19470850724
scalar IntersectionExampleScenario.node[28].appl 	VehicleRemoved 	0
scalar IntersectionExampleScenario.node[28].appl 	ArrivedAtDest 	1
scalar IntersectionExampleScenario.node[28].appl 	IntersectionEnterTime 	71.75
scalar IntersectionExampleScenario.node[28].appl 	IntersectionExitTime 	96.370334267471
scalar IntersectionExampleScenario.node[28].appl 	NumberOfCollisions 	0
scalar IntersectionExampleScenario.node[28].nic.phy80211p 	busyTime 	0
scalar IntersectionExampleScenario.node[28].nic.mac1609_4 	ReceivedUnicastPackets 	0
scalar IntersectionExampleScenario.node[28].nic.mac1609_4 	ReceivedBroadcasts 	0
scalar IntersectionExampleScenario.node[28].nic.mac1609_4 	SentPackets 	0
scalar IntersectionExampleScenario.node[28].nic.mac1609_4 	SNIRLostPackets 	0
scalar IntersectionExampleScenario.node[28].nic.mac1609_4 	RXTXLostPackets 	0
scalar IntersectionExampleScenario.node[28].nic.mac1609_4 	TotalLostPackets 	0
scalar IntersectionExampleScenario.node[28].nic.mac1609_4 	DroppedPacketsInMac 	0
scalar IntersectionExampleScenario.node[28].nic.mac1609_4 	TooLittleTime 	0
scalar IntersectionExampleScenario.node[28].nic.mac1609_4 	TimesIntoBackoff 	0
scalar IntersectionExampleScenario.node[28].nic.mac1609_4 	SlotsBackoff 	0
scalar IntersectionExampleScenario.node[28].nic.mac1609_4 	NumInternalContention 	0
scalar IntersectionExampleScenario.node[28].nic.mac1609_4 	totalBusyTime 	0
scalar IntersectionExampleScenario.node[28].veinsmobility 	startTime 	71.75
scalar IntersectionExampleScenario.node[28].veinsmobility 	totalTime 	41
scalar IntersectionExampleScenario.node[28].veinsmobility 	stopTime 	113
scalar IntersectionExampleScenario.node[28].veinsmobility 	minSpeed 	5.6500000953674
scalar IntersectionExampleScenario.node[28].veinsmobility 	maxSpeed 	16.241527557373
scalar IntersectionExampleScenario.node[28].veinsmobility 	totalDistance 	568.99498331118
scalar IntersectionExampleScenario.node[28].veinsmobility 	totalCO2Emission 	137.5331752303
scalar IntersectionExampleScenario.node[23].appl 	VehicleRemoved 	0
scalar IntersectionExampleScenario.node[23].appl 	ArrivedAtDest 	1
scalar IntersectionExampleScenario.node[23].appl 	IntersectionEnterTime 	68
scalar IntersectionExampleScenario.node[23].appl 	IntersectionExitTime 	96.11137600668
scalar IntersectionExampleScenario.node[23].appl 	NumberOfCollisions 	0
scalar IntersectionExampleScenario.node[23].nic.phy80211p 	busyTime 	0
scalar IntersectionExampleScenario.node[23].nic.mac1609_4 	ReceivedUnicastPackets 	0
scalar IntersectionExampleScenario.node[23].nic.mac1609_4 	ReceivedBroadcasts 	0
scalar IntersectionExampleScenario.node[23].nic.mac1609_4 	SentPackets 	0
scalar IntersectionExampleScenario.node[23].nic.mac1609_4 	SNIRLostPackets 	0
scalar IntersectionExampleScenario.node[23].nic.mac1609_4 	RXTXLostPackets 	0
scalar IntersectionExampleScenario.node[23].nic.mac1609_4 	TotalLostPackets 	0
scalar IntersectionExampleScenario.node[23].nic.mac1609_4 	DroppedPacketsInMac 	0
scalar IntersectionExampleScenario.node[23].nic.mac1609_4 	TooLittleTime 	0
scalar IntersectionExampleScenario.node[23].nic.mac1609_4 	TimesIntoBackoff 	0
scalar IntersectionExampleScenario.node[23].nic.mac1609_4 	SlotsBackoff 	0
scalar IntersectionExampleScenario.node[23].nic.mac1609_4 	NumInternalContention 	0
scalar IntersectionExampleScenario.node[23].nic.mac1609_4 	totalBusyTime 	0
scalar IntersectionExampleScenario.node[23].veinsmobility 	startTime 	68
scalar IntersectionExampleScenario.node[23].veinsmobility 	totalTime 	45.5
scalar IntersectionExampleScenario.node[23].veinsmobility 	stopTime 	113.75
scalar IntersectionExampleScenario.node[23].veinsmobility 	minSpeed 	5.6500000953674
scalar IntersectionExampleScenario.node[23].veinsmobility 	maxSpeed 	14.665387153625
scalar IntersectionExampleScenario.node[23].veinsmobility 	totalDistance 	575.52422801706
scalar IntersectionExampleScenario.node[23].veinsmobility 	totalCO2Emission 	136.56146156588
scalar IntersectionExampleScenario.node[27].appl 	VehicleRemoved 	0
scalar IntersectionExampleScenario.node[27].appl 	ArrivedAtDest 	1
scalar IntersectionExampleScenario.node[27].appl 	IntersectionEnterTime 	71.5
scalar IntersectionExampleScenario.node[27].appl 	IntersectionExitTime 	98.582850605599
scalar IntersectionExampleScenario.node[27].appl 	NumberOfCollisions 	0
scalar IntersectionExampleScenario.node[27].nic.phy80211p 	busyTime 	0
scalar IntersectionExampleScenario.node[27].nic.mac1609_4 	ReceivedUnicastPackets 	0
scalar IntersectionExampleScenario.node[27].nic.mac1609_4 	ReceivedBroadcasts 	0
scalar IntersectionExampleScenario.node[27].nic.mac1609_4 	SentPackets 	0
scalar IntersectionExampleScenario.node[27].nic.mac1609_4 	SNIRLostPackets 	0
scalar IntersectionExampleScenario.node[27].nic.mac1609_4 	RXTXLostPackets 	0
scalar IntersectionExampleScenario.node[27].nic.mac1609_4 	TotalLostPackets 	0
scalar IntersectionExampleScenario.node[27].nic.mac1609_4 	DroppedPacketsInMac 	0
scalar IntersectionExampleScenario.node[27].nic.mac1609_4 	TooLittleTime 	0
scalar IntersectionExampleScenario.node[27].nic.mac1609_4 	TimesIntoBackoff 	0
scalar IntersectionExampleScenario.node[27].nic.mac1609_4 	SlotsBackoff 	0
scalar IntersectionExampleScenario.node[27].nic.mac1609_4 	NumInternalContention 	0
scalar IntersectionExampleScenario.node[27].nic.mac1609_4 	totalBusyTime 	0
scalar IntersectionExampleScenario.node[27].veinsmobility 	startTime 	71.5
scalar IntersectionExampleScenario.node[27].veinsmobility 	totalTime 	44
scalar IntersectionExampleScenario.node[27].veinsmobility 	stopTime 	115.75
scalar IntersectionExampleScenario.node[27].veinsmobility 	minSpeed 	5.6500000953674
scalar IntersectionExampleScenario.node[27].veinsmobility 	maxSpeed 	15.042222976685
scalar IntersectionExampleScenario.node[27].veinsmobility 	totalDistance 	571.79262777685
scalar IntersectionExampleScenario.node[27].veinsmobility 	totalCO2Emission 	128.79909421286
scalar IntersectionExampleScenario.node[13].appl 	VehicleRemoved 	0
scalar IntersectionExampleScenario.node[13].appl 	ArrivedAtDest 	1
scalar IntersectionExampleScenario.node[13].appl 	IntersectionEnterTime 	51
scalar IntersectionExampleScenario.node[13].appl 	IntersectionExitTime 	102.27448177797
scalar IntersectionExampleScenario.node[13].appl 	NumberOfCollisions 	0
scalar IntersectionExampleScenario.node[13].nic.phy80211p 	busyTime 	0
scalar IntersectionExampleScenario.node[13].nic.mac1609_4 	ReceivedUnicastPackets 	0
scalar IntersectionExampleScenario.node[13].nic.mac1609_4 	ReceivedBroadcasts 	0
scalar IntersectionExampleScenario.node[13].nic.mac1609_4 	SentPackets 	0
scalar IntersectionExampleScenario.node[13].nic.mac1609_4 	SNIRLostPackets 	0
scalar IntersectionExampleScenario.node[13].nic.mac1609_4 	RXTXLostPackets 	0
scalar IntersectionExampleScenario.node[13].nic.mac1609_4 	TotalLostPackets 	0
scalar IntersectionExampleScenario.node[13].nic.mac1609_4 	DroppedPacketsInMac 	0
scalar IntersectionExampleScenario.node[13].nic.mac1609_4 	TooLittleTime 	0
scalar IntersectionExampleScenario.node[13].nic.mac1609_4 	TimesIntoBackoff 	0
scalar IntersectionExampleScenario.node[13].nic.mac1609_4 	SlotsBackoff 	0
scalar IntersectionExampleScenario.node[13].nic.mac1609_4 	NumInternalContention 	0
scalar IntersectionExampleScenario.node[13].nic.mac1609_4 	totalBusyTime 	0
scalar IntersectionExampleScenario.node[13].veinsmobility 	startTime 	51
scalar IntersectionExampleScenario.node[13].veinsmobility 	totalTime 	66.25
scalar IntersectionExampleScenario.node[13].veinsmobility 	stopTime 	117.5
scalar IntersectionExampleScenario.node[13].veinsmobility 	minSpeed 	0
scalar IntersectionExampleScenario.node[13].veinsmobility 	maxSpeed 	16.89999961853
scalar IntersectionExampleScenario.node[13].veinsmobility 	totalDistance 	550.70023454776
scalar IntersectionExampleScenario.node[13].veinsmobility 	totalCO2Emission 	169.44127621985
scalar IntersectionExampleScenario.node[15].appl 	VehicleRemoved 	0
scalar IntersectionExampleScenario.node[15].appl 	ArrivedAtDest 	1
scalar IntersectionExampleScenario.node[15].appl 	IntersectionEnterTime 	52.5
scalar IntersectionExampleScenario.node[15].appl 	IntersectionExitTime 	102.30693681978
scalar IntersectionExampleScenario.node[15].appl 	NumberOfCollisions 	0
scalar IntersectionExampleScenario.node[15].nic.phy80211p 	busyTime 	0
scalar IntersectionExampleScenario.node[15].nic.mac1609_4 	ReceivedUnicastPackets 	0
scalar IntersectionExampleScenario.node[15].nic.mac1609_4 	ReceivedBroadcasts 	0
scalar IntersectionExampleScenario.node[15].nic.mac1609_4 	SentPackets 	0
scalar IntersectionExampleScenario.node[15].nic.mac1609_4 	SNIRLostPackets 	0
scalar IntersectionExampleScenario.node[15].nic.mac1609_4 	RXTXLostPackets 	0
scalar IntersectionExampleScenario.node[15].nic.mac1609_4 	TotalLostPackets 	0
scalar IntersectionExampleScenario.node[15].nic.mac1609_4 	DroppedPacketsInMac 	0
scalar IntersectionExampleScenario.node[15].nic.mac1609_4 	TooLittleTime 	0
scalar IntersectionExampleScenario.node[15].nic.mac1609_4 	TimesIntoBackoff 	0
scalar IntersectionExampleScenario.node[15].nic.mac1609_4 	SlotsBackoff 	0
scalar IntersectionExampleScenario.node[15].nic.mac1609_4 	NumInternalContention 	0
scalar IntersectionExampleScenario.node[15].nic.mac1609_4 	totalBusyTime 	0
scalar IntersectionExampleScenario.node[15].veinsmobility 	startTime 	52.5
scalar IntersectionExampleScenario.node[15].veinsmobility 	totalTime 	65.75
scalar IntersectionExampleScenario.node[15].veinsmobility 	stopTime 	118.5
scalar IntersectionExampleScenario.node[15].veinsmobility 	minSpeed 	0
scalar IntersectionExampleScenario.node[15].veinsmobility 	maxSpeed 	15.64999961853
scalar IntersectionExampleScenario.node[15].veinsmobility 	totalDistance 	553.61808013916
scalar IntersectionExampleScenario.node[15].veinsmobility 	totalCO2Emission 	158.38507107434
scalar IntersectionExampleScenario.node[17].appl 	VehicleRemoved 	0
scalar IntersectionExampleScenario.node[17].appl 	ArrivedAtDest 	1
scalar IntersectionExampleScenario.node[17].appl 	IntersectionEnterTime 	56.25
scalar IntersectionExampleScenario.node[17].appl 	IntersectionExitTime 	103.29507019397
scalar IntersectionExampleScenario.node[17].appl 	NumberOfCollisions 	0
scalar IntersectionExampleScenario.node[17].nic.phy80211p 	busyTime 	0
scalar IntersectionExampleScenario.node[17].nic.mac1609_4 	ReceivedUnicastPackets 	0
scalar IntersectionExampleScenario.node[17].nic.mac1609_4 	ReceivedBroadcasts 	0
scalar IntersectionExampleScenario.node[17].nic.mac1609_4 	SentPackets 	0
scalar IntersectionExampleScenario.node[17].nic.mac1609_4 	SNIRLostPackets 	0
scalar IntersectionExampleScenario.node[17].nic.mac1609_4 	RXTXLostPackets 	0
scalar IntersectionExampleScenario.node[17].nic.mac1609_4 	TotalLostPackets 	0
scalar IntersectionExampleScenario.node[17].nic.mac1609_4 	DroppedPacketsInMac 	0
scalar IntersectionExampleScenario.node[17].nic.mac1609_4 	TooLittleTime 	0
scalar IntersectionExampleScenario.node[17].nic.mac1609_4 	TimesIntoBackoff 	0
scalar IntersectionExampleScenario.node[17].nic.mac1609_4 	SlotsBackoff 	0
scalar IntersectionExampleScenario.node[17].nic.mac1609_4 	NumInternalContention 	0
scalar IntersectionExampleScenario.node[17].nic.mac1609_4 	totalBusyTime 	0
scalar IntersectionExampleScenario.node[17].veinsmobility 	startTime 	56.25
scalar IntersectionExampleScenario.node[17].veinsmobility 	totalTime 	63.25
scalar IntersectionExampleScenario.node[17].veinsmobility 	stopTime 	119.75
scalar IntersectionExampleScenario.node[17].veinsmobility 	minSpeed 	0
scalar IntersectionExampleScenario.node[17].veinsmobility 	maxSpeed 	15.5
scalar IntersectionExampleScenario.node[17].veinsmobility 	totalDistance 	551.36061096191
scalar IntersectionExampleScenario.node[17].veinsmobility 	totalCO2Emission 	151.09012266058
scalar IntersectionExampleScenario.node[16].appl 	VehicleRemoved 	0
scalar IntersectionExampleScenario.node[16].appl 	ArrivedAtDest 	1
scalar IntersectionExampleScenario.node[16].appl 	IntersectionEnterTime 	54.25
scalar IntersectionExampleScenario.node[16].appl 	IntersectionExitTime 	104.57924417246
scalar IntersectionExampleScenario.node[16].appl 	NumberOfCollisions 	0
scalar IntersectionExampleScenario.node[16].nic.phy80211p 	busyTime 	0
scalar IntersectionExampleScenario.node[16].nic.mac1609_4 	ReceivedUnicastPackets 	0
scalar IntersectionExampleScenario.node[16].nic.mac1609_4 	ReceivedBroadcasts 	0
scalar IntersectionExampleScenario.node[16].nic.mac1609_4 	SentPackets 	0
scalar IntersectionExampleScenario.node[16].nic.mac1609_4 	SNIRLostPackets 	0
scalar IntersectionExampleScenario.node[16].nic.mac1609_4 	RXTXLostPackets 	0
scalar IntersectionExampleScenario.node[16].nic.mac1609_4 	TotalLostPackets 	0
scalar IntersectionExampleScenario.node[16].nic.mac1609_4 	DroppedPacketsInMac 	0
scalar IntersectionExampleScenario.node[16].nic.mac1609_4 	TooLittleTime 	0
scalar IntersectionExampleScenario.node[16].nic.mac1609_4 	TimesIntoBackoff 	0
scalar IntersectionExampleScenario.node[16].nic.mac1609_4 	SlotsBackoff 	0
scalar IntersectionExampleScenario.node[16].nic.mac1609_4 	NumInternalContention 	0
scalar IntersectionExampleScenario.node[16].nic.mac1609_4 	totalBusyTime 	0
scalar IntersectionExampleScenario.node[16].veinsmobility 	startTime 	54.25
scalar IntersectionExampleScenario.node[16].veinsmobility 	totalTime 	66
scalar IntersectionExampleScenario.node[16].veinsmobility 	stopTime 	120.5
scalar IntersectionExampleScenario.node[16].veinsmobility 	minSpeed 	0
scalar IntersectionExampleScenario.node[16].veinsmobility 	maxSpeed 	15.64999961853
scalar IntersectionExampleScenario.node[16].veinsmobility 	totalDistance 	573.76552581787
scalar IntersectionExampleScenario.node[16].veinsmobility 	totalCO2Emission 	163.10812283944
scalar IntersectionExampleScenario.node[19].appl 	VehicleRemoved 	0
scalar IntersectionExampleScenario.node[19].appl 	ArrivedAtDest 	1
scalar IntersectionExampleScenario.node[19].appl 	IntersectionEnterTime 	63.5
scalar IntersectionExampleScenario.node[19].appl 	IntersectionExitTime 	106.53694407843
scalar IntersectionExampleScenario.node[19].appl 	NumberOfCollisions 	0
scalar IntersectionExampleScenario.node[19].nic.phy80211p 	busyTime 	0
scalar IntersectionExampleScenario.node[19].nic.mac1609_4 	ReceivedUnicastPackets 	0
scalar IntersectionExampleScenario.node[19].nic.mac1609_4 	ReceivedBroadcasts 	0
scalar IntersectionExampleScenario.node[19].nic.mac1609_4 	SentPackets 	0
scalar IntersectionExampleScenario.node[19].nic.mac1609_4 	SNIRLostPackets 	0
scalar IntersectionExampleScenario.node[19].nic.mac1609_4 	RXTXLostPackets 	0
scalar IntersectionExampleScenario.node[19].nic.mac1609_4 	TotalLostPackets 	0
scalar IntersectionExampleScenario.node[19].nic.mac1609_4 	DroppedPacketsInMac 	0
scalar IntersectionExampleScenario.node[19].nic.mac1609_4 	TooLittleTime 	0
scalar IntersectionExampleScenario.node[19].nic.mac1609_4 	TimesIntoBackoff 	0
scalar IntersectionExampleScenario.node[19].nic.mac1609_4 	SlotsBackoff 	0
scalar IntersectionExampleScenario.node[19].nic.mac1609_4 	NumInternalContention 	0
scalar IntersectionExampleScenario.node[19].nic.mac1609_4 	totalBusyTime 	0
scalar IntersectionExampleScenario.node[19].veinsmobility 	startTime 	63.5
scalar IntersectionExampleScenario.node[19].veinsmobility 	totalTime 	58.5
scalar IntersectionExampleScenario.node[19].veinsmobility 	stopTime 	122.25
scalar IntersectionExampleScenario.node[19].veinsmobility 	minSpeed 	0
scalar IntersectionExampleScenario.node[19].veinsmobility 	maxSpeed 	16.27499961853
scalar IntersectionExampleScenario.node[19].veinsmobility 	totalDistance 	554.39347076416
scalar IntersectionExampleScenario.node[19].veinsmobility 	totalCO2Emission 	153.93126931277
scalar IntersectionExampleScenario.node[18].appl 	VehicleRemoved 	0
scalar IntersectionExampleScenario.node[18].appl 	ArrivedAtDest 	1
scalar IntersectionExampleScenario.node[18].appl 	IntersectionEnterTime 	63.25
scalar IntersectionExampleScenario.node[18].appl 	IntersectionExitTime 	105.76264779788
scalar IntersectionExampleScenario.node[18].appl 	NumberOfCollisions 	0
scalar IntersectionExampleScenario.node[18].nic.phy80211p 	busyTime 	0
scalar IntersectionExampleScenario.node[18].nic.mac1609_4 	ReceivedUnicastPackets 	0
scalar IntersectionExampleScenario.node[18].nic.mac1609_4 	ReceivedBroadcasts 	0
scalar IntersectionExampleScenario.node[18].nic.mac1609_4 	SentPackets 	0
scalar IntersectionExampleScenario.node[18].nic.mac1609_4 	SNIRLostPackets 	0
scalar IntersectionExampleScenario.node[18].nic.mac1609_4 	RXTXLostPackets 	0
scalar IntersectionExampleScenario.node[18].nic.mac1609_4 	TotalLostPackets 	0
scalar IntersectionExampleScenario.node[18].nic.mac1609_4 	DroppedPacketsInMac 	0
scalar IntersectionExampleScenario.node[18].nic.mac1609_4 	TooLittleTime 	0
scalar IntersectionExampleScenario.node[18].nic.mac1609_4 	TimesIntoBackoff 	0
scalar IntersectionExampleScenario.node[18].nic.mac1609_4 	SlotsBackoff 	0
scalar IntersectionExampleScenario.node[18].nic.mac1609_4 	NumInternalContention 	0
scalar IntersectionExampleScenario.node[18].nic.mac1609_4 	totalBusyTime 	0
scalar IntersectionExampleScenario.node[18].veinsmobility 	startTime 	63.25
scalar IntersectionExampleScenario.node[18].veinsmobility 	totalTime 	60.5
scalar IntersectionExampleScenario.node[18].veinsmobility 	stopTime 	124
scalar IntersectionExampleScenario.node[18].veinsmobility 	minSpeed 	0
scalar IntersectionExampleScenario.node[18].veinsmobility 	maxSpeed 	14.39999961853
scalar IntersectionExampleScenario.node[18].veinsmobility 	totalDistance 	544.85329143447
scalar IntersectionExampleScenario.node[18].veinsmobility 	totalCO2Emission 	140.56693133728
scalar IntersectionExampleScenario.node[22].appl 	VehicleRemoved 	0
scalar IntersectionExampleScenario.node[22].appl 	ArrivedAtDest 	1
scalar IntersectionExampleScenario.node[22].appl 	IntersectionEnterTime 	66.25
scalar IntersectionExampleScenario.node[22].appl 	IntersectionExitTime 	108.09444044935
scalar IntersectionExampleScenario.node[22].appl 	NumberOfCollisions 	0
scalar IntersectionExampleScenario.node[22].nic.phy80211p 	busyTime 	0
scalar IntersectionExampleScenario.node[22].nic.mac1609_4 	ReceivedUnicastPackets 	0
scalar IntersectionExampleScenario.node[22].nic.mac1609_4 	ReceivedBroadcasts 	0
scalar IntersectionExampleScenario.node[22].nic.mac1609_4 	SentPackets 	0
scalar IntersectionExampleScenario.node[22].nic.mac1609_4 	SNIRLostPackets 	0
scalar IntersectionExampleScenario.node[22].nic.mac1609_4 	RXTXLostPackets 	0
scalar IntersectionExampleScenario.node[22].nic.mac1609_4 	TotalLostPackets 	0
scalar IntersectionExampleScenario.node[22].nic.mac1609_4 	DroppedPacketsInMac 	0
scalar IntersectionExampleScenario.node[22].nic.mac1609_4 	TooLittleTime 	0
scalar IntersectionExampleScenario.node[22].nic.mac1609_4 	TimesIntoBackoff 	0
scalar IntersectionExampleScenario.node[22].nic.mac1609_4 	SlotsBackoff 	0
scalar IntersectionExampleScenario.node[22].nic.mac1609_4 	NumInternalContention 	0
scalar IntersectionExampleScenario.node[22].nic.mac1609_4 	totalBusyTime 	0
scalar IntersectionExampleScenario.node[22].veinsmobility 	startTime 	66.25
scalar IntersectionExampleScenario.node[22].veinsmobility 	totalTime 	59
scalar IntersectionExampleScenario.node[22].veinsmobility 	stopTime 	125.5
scalar IntersectionExampleScenario.node[22].veinsmobility 	minSpeed 	0
scalar IntersectionExampleScenario.node[22].veinsmobility 	maxSpeed 	15.331880569458
scalar IntersectionExampleScenario.node[22].veinsmobility 	totalDistance 	559.0664283093
scalar IntersectionExampleScenario.node[22].veinsmobility 	totalCO2Emission 	149.81976495432
scalar IntersectionExampleScenario.node[24].appl 	VehicleRemoved 	0
scalar IntersectionExampleScenario.node[24].appl 	ArrivedAtDest 	1
scalar IntersectionExampleScenario.node[24].appl 	IntersectionEnterTime 	68.25
scalar IntersectionExampleScenario.node[24].appl 	IntersectionExitTime 	110.34665704824
scalar IntersectionExampleScenario.node[24].appl 	NumberOfCollisions 	0
scalar IntersectionExampleScenario.node[24].nic.phy80211p 	busyTime 	0
scalar IntersectionExampleScenario.node[24].nic.mac1609_4 	ReceivedUnicastPackets 	0
scalar IntersectionExampleScenario.node[24].nic.mac1609_4 	ReceivedBroadcasts 	0
scalar IntersectionExampleScenario.node[24].nic.mac1609_4 	SentPackets 	0
scalar IntersectionExampleScenario.node[24].nic.mac1609_4 	SNIRLostPackets 	0
scalar IntersectionExampleScenario.node[24].nic.mac1609_4 	RXTXLostPackets 	0
scalar IntersectionExampleScenario.node[24].nic.mac1609_4 	TotalLostPackets 	0
scalar IntersectionExampleScenario.node[24].nic.mac1609_4 	DroppedPacketsInMac 	0
scalar IntersectionExampleScenario.node[24].nic.mac1609_4 	TooLittleTime 	0
scalar IntersectionExampleScenario.node[24].nic.mac1609_4 	TimesIntoBackoff 	0
scalar IntersectionExampleScenario.node[24].nic.mac1609_4 	SlotsBackoff 	0
scalar IntersectionExampleScenario.node[24].nic.mac1609_4 	NumInternalContention 	0
scalar IntersectionExampleScenario.node[24].nic.mac1609_4 	totalBusyTime 	0
scalar IntersectionExampleScenario.node[24].veinsmobility 	startTime 	68.25
scalar IntersectionExampleScenario.node[24].veinsmobility 	totalTime 	58.5
scalar IntersectionExampleScenario.node[24].veinsmobility 	stopTime 	127
scalar IntersectionExampleScenario.node[24].veinsmobility 	minSpeed 	0
scalar IntersectionExampleScenario.node[24].veinsmobility 	maxSpeed 	16.195100784302
scalar IntersectionExampleScenario.node[24].veinsmobility 	totalDistance 	571.44029851631
scalar IntersectionExampleScenario.node[24].veinsmobility 	totalCO2Emission 	157.00760173487
scalar IntersectionExampleScenario.node[31].appl 	VehicleRemoved 	0
scalar IntersectionExampleScenario.node[31].appl 	ArrivedAtDest 	1
scalar IntersectionExampleScenario.node[31].appl 	IntersectionEnterTime 	79
scalar IntersectionExampleScenario.node[31].appl 	IntersectionExitTime 	112.2900772334
scalar IntersectionExampleScenario.node[31].appl 	NumberOfCollisions 	0
scalar IntersectionExampleScenario.node[31].nic.phy80211p 	busyTime 	0
scalar IntersectionExampleScenario.node[31].nic.mac1609_4 	ReceivedUnicastPackets 	0
scalar IntersectionExampleScenario.node[31].nic.mac1609_4 	ReceivedBroadcasts 	0
scalar IntersectionExampleScenario.node[31].nic.mac1609_4 	SentPackets 	0
scalar IntersectionExampleScenario.node[31].nic.mac1609_4 	SNIRLostPackets 	0
scalar IntersectionExampleScenario.node[31].nic.mac1609_4 	RXTXLostPackets 	0
scalar IntersectionExampleScenario.node[31].nic.mac1609_4 	TotalLostPackets 	0
scalar IntersectionExampleScenario.node[31].nic.mac1609_4 	DroppedPacketsInMac 	0
scalar IntersectionExampleScenario.node[31].nic.mac1609_4 	TooLittleTime 	0
scalar IntersectionExampleScenario.node[31].nic.mac1609_4 	TimesIntoBackoff 	0
scalar IntersectionExampleScenario.node[31].nic.mac1609_4 	SlotsBackoff 	0
scalar IntersectionExampleScenario.node[31].nic.mac1609_4 	NumInternalContention 	0
scalar IntersectionExampleScenario.node[31].nic.mac1609_4 	totalBusyTime 	0
scalar IntersectionExampleScenario.node[31].veinsmobility 	startTime 	79
scalar IntersectionExampleScenario.node[31].veinsmobility 	totalTime 	49.5
scalar IntersectionExampleScenario.node[31].veinsmobility 	stopTime 	128.75
scalar IntersectionExampleScenario.node[31].veinsmobility 	minSpeed 	1.8673106431961
scalar IntersectionExampleScenario.node[31].veinsmobility 	maxSpeed 	15.64999961853
scalar IntersectionExampleScenario.node[31].veinsmobility 	totalDistance 	549.69055696994
scalar IntersectionExampleScenario.node[31].veinsmobility 	totalCO2Emission 	139.17348196524
scalar IntersectionExampleScenario.node[32].appl 	VehicleRemoved 	0
scalar IntersectionExampleScenario.node[32].appl 	ArrivedAtDest 	1
scalar IntersectionExampleScenario.node[32].appl 	IntersectionEnterTime 	86
scalar IntersectionExampleScenario.node[32].appl 	IntersectionExitTime 	114.07018494999
scalar IntersectionExampleScenario.node[32].appl 	NumberOfCollisions 	0
scalar IntersectionExampleScenario.node[32].nic.phy80211p 	busyTime 	0
scalar IntersectionExampleScenario.node[32].nic.mac1609_4 	ReceivedUnicastPackets 	0
scalar IntersectionExampleScenario.node[32].nic.mac1609_4 	ReceivedBroadcasts 	0
scalar IntersectionExampleScenario.node[32].nic.mac1609_4 	SentPackets 	0
scalar IntersectionExampleScenario.node[32].nic.mac1609_4 	SNIRLostPackets 	0
scalar IntersectionExampleScenario.node[32].nic.mac1609_4 	RXTXLostPackets 	0
scalar IntersectionExampleScenario.node[32].nic.mac1609_4 	TotalLostPackets 	0
scalar IntersectionExampleScenario.node[32].nic.mac1609_4 	DroppedPacketsInMac 	0
scalar IntersectionExampleScenario.node[32].nic.mac1609_4 	TooLittleTime 	0
scalar IntersectionExampleScenario.node[32].nic.mac1609_4 	TimesIntoBackoff 	0
scalar IntersectionExampleScenario.node[32].nic.mac1609_4 	SlotsBackoff 	0
scalar IntersectionExampleScenario.node[32].nic.mac1609_4 	NumInternalContention 	0
scalar IntersectionExampleScenario.node[32].nic.mac1609_4 	totalBusyTime 	0
scalar IntersectionExampleScenario.node[32].veinsmobility 	startTime 	86
scalar IntersectionExampleScenario.node[32].veinsmobility 	totalTime 	44
scalar IntersectionExampleScenario.node[32].veinsmobility 	stopTime 	130.25
scalar IntersectionExampleScenario.node[32].veinsmobility 	minSpeed 	5.4979419708252
scalar IntersectionExampleScenario.node[32].veinsmobility 	maxSpeed 	15.5
scalar IntersectionExampleScenario.node[32].veinsmobility 	totalDistance 	554.56079101562
scalar IntersectionExampleScenario.node[32].veinsmobility 	totalCO2Emission 	133.73971142405
scalar IntersectionExampleScenario.node[34].appl 	VehicleRemoved 	0
scalar IntersectionExampleScenario.node[34].appl 	ArrivedAtDest 	1
scalar IntersectionExampleScenario.node[34].appl 	IntersectionEnterTime 	92.25
scalar IntersectionExampleScenario.node[34].appl 	IntersectionExitTime 	116.53177264173
scalar IntersectionExampleScenario.node[34].appl 	NumberOfCollisions 	0
scalar IntersectionExampleScenario.node[34].nic.phy80211p 	busyTime 	0
scalar IntersectionExampleScenario.node[34].nic.mac1609_4 	ReceivedUnicastPackets 	0
scalar IntersectionExampleScenario.node[34].nic.mac1609_4 	ReceivedBroadcasts 	0
scalar IntersectionExampleScenario.node[34].nic.mac1609_4 	SentPackets 	0
scalar IntersectionExampleScenario.node[34].nic.mac1609_4 	SNIRLostPackets 	0
scalar IntersectionExampleScenario.node[34].nic.mac1609_4 	RXTXLostPackets 	0
scalar IntersectionExampleScenario.node[34].nic.mac1609_4 	TotalLostPackets 	0
scalar IntersectionExampleScenario.node[34].nic.mac1609_4 	DroppedPacketsInMac 	0
scalar IntersectionExampleScenario.node[34].nic.mac1609_4 	TooLittleTime 	0
scalar IntersectionExampleScenario.node[34].nic.mac1609_4 	TimesIntoBackoff 	0
scalar IntersectionExampleScenario.node[34].nic.mac1609_4 	SlotsBackoff 	0
scalar IntersectionExampleScenario.node[34].nic.mac1609_4 	NumInternalContention 	0
scalar IntersectionExampleScenario.node[34].nic.mac1609_4 	totalBusyTime 	0
scalar IntersectionExampleScenario.node[34].veinsmobility 	startTime 	92.25
scalar IntersectionExampleScenario.node[34].veinsmobility 	totalTime 	40.25
scalar IntersectionExampleScenario.node[34].veinsmobility 	stopTime 	132.75
scalar IntersectionExampleScenario.node[34].veinsmobility 	minSpeed 	5.6500000953674
scalar IntersectionExampleScenario.node[34].veinsmobility 	maxSpeed 	15.64999961853
scalar IntersectionExampleScenario.node[34].veinsmobility 	totalDistance 	552.99740600586
scalar IntersectionExampleScenario.node[34].veinsmobility 	totalCO2Emission 	120.80831376282
scalar IntersectionExampleScenario.node[37].appl 	VehicleRemoved 	0
scalar IntersectionExampleScenario.node[37].appl 	ArrivedAtDest 	1
scalar IntersectionExampleScenario.node[37].appl 	IntersectionEnterTime 	98.75
scalar IntersectionExampleScenario.node[37].appl 	IntersectionExitTime 	122.311321905
scalar IntersectionExampleScenario.node[37].appl 	NumberOfCollisions 	0
scalar IntersectionExampleScenario.node[37].nic.phy80211p 	busyTime 	0
scalar IntersectionExampleScenario.node[37].nic.mac1609_4 	ReceivedUnicastPackets 	0
scalar IntersectionExampleScenario.node[37].nic.mac1609_4 	ReceivedBroadcasts 	0
scalar IntersectionExampleScenario.node[37].nic.mac1609_4 	SentPackets 	0
scalar IntersectionExampleScenario.node[37].nic.mac1609_4 	SNIRLostPackets 	0
scalar IntersectionExampleScenario.node[37].nic.mac1609_4 	RXTXLostPackets 	0
scalar IntersectionExampleScenario.node[37].nic.mac1609_4 	TotalLostPackets 	0
scalar IntersectionExampleScenario.node[37].nic.mac1609_4 	DroppedPacketsInMac 	0
scalar IntersectionExampleScenario.node[37].nic.mac1609_4 	TooLittleTime 	0
scalar IntersectionExampleScenario.node[37].nic.mac1609_4 	TimesIntoBackoff 	0
scalar IntersectionExampleScenario.node[37].nic.mac1609_4 	SlotsBackoff 	0
scalar IntersectionExampleScenario.node[37].nic.mac1609_4 	NumInternalContention 	0
scalar IntersectionExampleScenario.node[37].nic.mac1609_4 	totalBusyTime 	0
scalar IntersectionExampleScenario.node[37].veinsmobility 	startTime 	98.75
scalar IntersectionExampleScenario.node[37].veinsmobility 	totalTime 	40
scalar IntersectionExampleScenario.node[37].veinsmobility 	stopTime 	139
scalar IntersectionExampleScenario.node[37].veinsmobility 	minSpeed 	5.6500000953674
scalar IntersectionExampleScenario.node[37].veinsmobility 	maxSpeed 	15.375
scalar IntersectionExampleScenario.node[37].veinsmobility 	totalDistance 	549.31682929075
scalar IntersectionExampleScenario.node[37].veinsmobility 	totalCO2Emission 	120.7194466891
scalar IntersectionExampleScenario.node[30].appl 	VehicleRemoved 	0
scalar IntersectionExampleScenario.node[30].appl 	ArrivedAtDest 	1
scalar IntersectionExampleScenario.node[30].appl 	IntersectionEnterTime 	78.25
scalar IntersectionExampleScenario.node[30].appl 	IntersectionExitTime 	127.61247157698
scalar IntersectionExampleScenario.node[30].appl 	NumberOfCollisions 	0
scalar IntersectionExampleScenario.node[30].nic.phy80211p 	busyTime 	0
scalar IntersectionExampleScenario.node[30].nic.mac1609_4 	ReceivedUnicastPackets 	0
scalar IntersectionExampleScenario.node[30].nic.mac1609_4 	ReceivedBroadcasts 	0
scalar IntersectionExampleScenario.node[30].nic.mac1609_4 	SentPackets 	0
scalar IntersectionExampleScenario.node[30].nic.mac1609_4 	SNIRLostPackets 	0
scalar IntersectionExampleScenario.node[30].nic.mac1609_4 	RXTXLostPackets 	0
scalar IntersectionExampleScenario.node[30].nic.mac1609_4 	TotalLostPackets 	0
scalar IntersectionExampleScenario.node[30].nic.mac1609_4 	DroppedPacketsInMac 	0
scalar IntersectionExampleScenario.node[30].nic.mac1609_4 	TooLittleTime 	0
scalar IntersectionExampleScenario.node[30].nic.mac1609_4 	TimesIntoBackoff 	0
scalar IntersectionExampleScenario.node[30].nic.mac1609_4 	SlotsBackoff 	0
scalar IntersectionExampleScenario.node[30].nic.mac1609_4 	NumInternalContention 	0
scalar IntersectionExampleScenario.node[30].nic.mac1609_4 	totalBusyTime 	0
scalar IntersectionExampleScenario.node[30].veinsmobility 	startTime 	78.25
scalar IntersectionExampleScenario.node[30].veinsmobility 	totalTime 	67
scalar IntersectionExampleScenario.node[30].veinsmobility 	stopTime 	145.5
scalar IntersectionExampleScenario.node[30].veinsmobility 	minSpeed 	0
scalar IntersectionExampleScenario.node[30].veinsmobility 	maxSpeed 	14.625
scalar IntersectionExampleScenario.node[30].veinsmobility 	totalDistance 	546.3644552365
scalar IntersectionExampleScenario.node[30].veinsmobility 	totalCO2Emission 	151.90753763175
scalar IntersectionExampleScenario.node[29].appl 	VehicleRemoved 	0
scalar IntersectionExampleScenario.node[29].appl 	ArrivedAtDest 	1
scalar IntersectionExampleScenario.node[29].appl 	IntersectionEnterTime 	76.75
scalar IntersectionExampleScenario.node[29].appl 	IntersectionExitTime 	128.26057978725
scalar IntersectionExampleScenario.node[29].appl 	NumberOfCollisions 	0
scalar IntersectionExampleScenario.node[29].nic.phy80211p 	busyTime 	0
scalar IntersectionExampleScenario.node[29].nic.mac1609_4 	ReceivedUnicastPackets 	0
scalar IntersectionExampleScenario.node[29].nic.mac1609_4 	ReceivedBroadcasts 	0
scalar IntersectionExampleScenario.node[29].nic.mac1609_4 	SentPackets 	0
scalar IntersectionExampleScenario.node[29].nic.mac1609_4 	SNIRLostPackets 	0
scalar IntersectionExampleScenario.node[29].nic.mac1609_4 	RXTXLostPackets 	0
scalar IntersectionExampleScenario.node[29].nic.mac1609_4 	TotalLostPackets 	0
scalar IntersectionExampleScenario.node[29].nic.mac1609_4 	DroppedPacketsInMac 	0
scalar IntersectionExampleScenario.node[29].nic.mac1609_4 	TooLittleTime 	0
scalar IntersectionExampleScenario.node[29].nic.mac1609_4 	TimesIntoBackoff 	0
scalar IntersectionExampleScenario.node[29].nic.mac1609_4 	SlotsBackoff 	0
scalar IntersectionExampleScenario.node[29].nic.mac1609_4 	NumInternalContention 	0
scalar IntersectionExampleScenario.node[29].nic.mac1609_4 	totalBusyTime 	0
scalar IntersectionExampleScenario.node[29].veinsmobility 	startTime 	76.75
scalar IntersectionExampleScenario.node[29].veinsmobility 	totalTime 	68.75
scalar IntersectionExampleScenario.node[29].veinsmobility 	stopTime 	145.75
scalar IntersectionExampleScenario.node[29].veinsmobility 	minSpeed 	0
scalar IntersectionExampleScenario.node[29].veinsmobility 	maxSpeed 	14.39999961853
scalar IntersectionExampleScenario.node[29].veinsmobility 	totalDistance 	561.92025756836
scalar IntersectionExampleScenario.node[29].veinsmobility 	totalCO2Emission 	153.13357545595
scalar IntersectionExampleScenario.node[35].appl 	VehicleRemoved 	0
scalar IntersectionExampleScenario.node[35].appl 	ArrivedAtDest 	1
scalar IntersectionExampleScenario.node[35].appl 	IntersectionEnterTime 	93
scalar IntersectionExampleScenario.node[35].appl 	IntersectionExitTime 	130.02248966423
scalar IntersectionExampleScenario.node[35].appl 	NumberOfCollisions 	0
scalar IntersectionExampleScenario.node[35].nic.phy80211p 	busyTime 	0
scalar IntersectionExampleScenario.node[35].nic.mac1609_4 	ReceivedUnicastPackets 	0
scalar IntersectionExampleScenario.node[35].nic.mac1609_4 	ReceivedBroadcasts 	0
scalar IntersectionExampleScenario.node[35].nic.mac1609_4 	SentPackets 	0
scalar IntersectionExampleScenario.node[35].nic.mac1609_4 	SNIRLostPackets 	0
scalar IntersectionExampleScenario.node[35].nic.mac1609_4 	RXTXLostPackets 	0
scalar IntersectionExampleScenario.node[35].nic.mac1609_4 	TotalLostPackets 	0
scalar IntersectionExampleScenario.node[35].nic.mac1609_4 	DroppedPacketsInMac 	0
scalar IntersectionExampleScenario.node[35].nic.mac1609_4 	TooLittleTime 	0
scalar IntersectionExampleScenario.node[35].nic.mac1609_4 	TimesIntoBackoff 	0
scalar IntersectionExampleScenario.node[35].nic.mac1609_4 	SlotsBackoff 	0
scalar IntersectionExampleScenario.node[35].nic.mac1609_4 	NumInternalContention 	0
scalar IntersectionExampleScenario.node[35].nic.mac1609_4 	totalBusyTime 	0
scalar IntersectionExampleScenario.node[35].veinsmobility 	startTime 	93
scalar IntersectionExampleScenario.node[35].veinsmobility 	totalTime 	53.5
scalar IntersectionExampleScenario.node[35].veinsmobility 	stopTime 	146.75
scalar IntersectionExampleScenario.node[35].veinsmobility 	minSpeed 	0
scalar IntersectionExampleScenario.node[35].veinsmobility 	maxSpeed 	15.816254615784
scalar IntersectionExampleScenario.node[35].veinsmobility 	totalDistance 	544.525015432
scalar IntersectionExampleScenario.node[35].veinsmobility 	totalCO2Emission 	145.2029779785
scalar IntersectionExampleScenario.node[33].appl 	VehicleRemoved 	0
scalar IntersectionExampleScenario.node[33].appl 	ArrivedAtDest 	1
scalar IntersectionExampleScenario.node[33].appl 	IntersectionEnterTime 	89.5
scalar IntersectionExampleScenario.node[33].appl 	IntersectionExitTime 	130.56723550762
scalar IntersectionExampleScenario.node[33].appl 	NumberOfCollisions 	0
scalar IntersectionExampleScenario.node[33].nic.phy80211p 	busyTime 	0
scalar IntersectionExampleScenario.node[33].nic.mac1609_4 	ReceivedUnicastPackets 	0
scalar IntersectionExampleScenario.node[33].nic.mac1609_4 	ReceivedBroadcasts 	0
scalar IntersectionExampleScenario.node[33].nic.mac1609_4 	SentPackets 	0
scalar IntersectionExampleScenario.node[33].nic.mac1609_4 	SNIRLostPackets 	0
scalar IntersectionExampleScenario.node[33].nic.mac1609_4 	RXTXLostPackets 	0
scalar IntersectionExampleScenario.node[33].nic.mac1609_4 	TotalLostPackets 	0
scalar IntersectionExampleScenario.node[33].nic.mac1609_4 	DroppedPacketsInMac 	0
scalar IntersectionExampleScenario.node[33].nic.mac1609_4 	TooLittleTime 	0
scalar IntersectionExampleScenario.node[33].nic.mac1609_4 	TimesIntoBackoff 	0
scalar IntersectionExampleScenario.node[33].nic.mac1609_4 	SlotsBackoff 	0
scalar IntersectionExampleScenario.node[33].nic.mac1609_4 	NumInternalContention 	0
scalar IntersectionExampleScenario.node[33].nic.mac1609_4 	totalBusyTime 	0
scalar IntersectionExampleScenario.node[33].veinsmobility 	startTime 	89.5
scalar IntersectionExampleScenario.node[33].veinsmobility 	totalTime 	57.5
scalar IntersectionExampleScenario.node[33].veinsmobility 	stopTime 	147.25
scalar IntersectionExampleScenario.node[33].veinsmobility 	minSpeed 	0
scalar IntersectionExampleScenario.node[33].veinsmobility 	maxSpeed 	15.369421958923
scalar IntersectionExampleScenario.node[33].veinsmobility 	totalDistance 	552.37573242188
scalar IntersectionExampleScenario.node[33].veinsmobility 	totalCO2Emission 	146.38259620136
scalar IntersectionExampleScenario.node[38].appl 	VehicleRemoved 	0
scalar IntersectionExampleScenario.node[38].appl 	ArrivedAtDest 	1
scalar IntersectionExampleScenario.node[38].appl 	IntersectionEnterTime 	99.5
scalar IntersectionExampleScenario.node[38].appl 	IntersectionExitTime 	132.29735232363
scalar IntersectionExampleScenario.node[38].appl 	NumberOfCollisions 	0
scalar IntersectionExampleScenario.node[38].nic.phy80211p 	busyTime 	0
scalar IntersectionExampleScenario.node[38].nic.mac1609_4 	ReceivedUnicastPackets 	0
scalar IntersectionExampleScenario.node[38].nic.mac1609_4 	ReceivedBroadcasts 	0
scalar IntersectionExampleScenario.node[38].nic.mac1609_4 	SentPackets 	0
scalar IntersectionExampleScenario.node[38].nic.mac1609_4 	SNIRLostPackets 	0
scalar IntersectionExampleScenario.node[38].nic.mac1609_4 	RXTXLostPackets 	0
scalar IntersectionExampleScenario.node[38].nic.mac1609_4 	TotalLostPackets 	0
scalar IntersectionExampleScenario.node[38].nic.mac1609_4 	DroppedPacketsInMac 	0
scalar IntersectionExampleScenario.node[38].nic.mac1609_4 	TooLittleTime 	0
scalar IntersectionExampleScenario.node[38].nic.mac1609_4 	TimesIntoBackoff 	0
scalar IntersectionExampleScenario.node[38].nic.mac1609_4 	SlotsBackoff 	0
scalar IntersectionExampleScenario.node[38].nic.mac1609_4 	NumInternalContention 	0
scalar IntersectionExampleScenario.node[38].nic.mac1609_4 	totalBusyTime 	0
scalar IntersectionExampleScenario.node[38].veinsmobility 	startTime 	99.5
scalar IntersectionExampleScenario.node[38].veinsmobility 	totalTime 	49
scalar IntersectionExampleScenario.node[38].veinsmobility 	stopTime 	148.75
scalar IntersectionExampleScenario.node[38].veinsmobility 	minSpeed 	2.7861428260803
scalar IntersectionExampleScenario.node[38].veinsmobility 	maxSpeed 	15.02499961853
scalar IntersectionExampleScenario.node[38].veinsmobility 	totalDistance 	552.13028717041
scalar IntersectionExampleScenario.node[38].veinsmobility 	totalCO2Emission 	136.6744360287
scalar IntersectionExampleScenario.node[36].appl 	VehicleRemoved 	0
scalar IntersectionExampleScenario.node[36].appl 	ArrivedAtDest 	1
scalar IntersectionExampleScenario.node[36].appl 	IntersectionEnterTime 	96.5
scalar IntersectionExampleScenario.node[36].appl 	IntersectionExitTime 	133.25352271047
scalar IntersectionExampleScenario.node[36].appl 	NumberOfCollisions 	0
scalar IntersectionExampleScenario.node[36].nic.phy80211p 	busyTime 	0
scalar IntersectionExampleScenario.node[36].nic.mac1609_4 	ReceivedUnicastPackets 	0
scalar IntersectionExampleScenario.node[36].nic.mac1609_4 	ReceivedBroadcasts 	0
scalar IntersectionExampleScenario.node[36].nic.mac1609_4 	SentPackets 	0
scalar IntersectionExampleScenario.node[36].nic.mac1609_4 	SNIRLostPackets 	0
scalar IntersectionExampleScenario.node[36].nic.mac1609_4 	RXTXLostPackets 	0
scalar IntersectionExampleScenario.node[36].nic.mac1609_4 	TotalLostPackets 	0
scalar IntersectionExampleScenario.node[36].nic.mac1609_4 	DroppedPacketsInMac 	0
scalar IntersectionExampleScenario.node[36].nic.mac1609_4 	TooLittleTime 	0
scalar IntersectionExampleScenario.node[36].nic.mac1609_4 	TimesIntoBackoff 	0
scalar IntersectionExampleScenario.node[36].nic.mac1609_4 	SlotsBackoff 	0
scalar IntersectionExampleScenario.node[36].nic.mac1609_4 	NumInternalContention 	0
scalar IntersectionExampleScenario.node[36].nic.mac1609_4 	totalBusyTime 	0
scalar IntersectionExampleScenario.node[36].veinsmobility 	startTime 	96.5
scalar IntersectionExampleScenario.node[36].veinsmobility 	totalTime 	53
scalar IntersectionExampleScenario.node[36].veinsmobility 	stopTime 	149.75
scalar IntersectionExampleScenario.node[36].veinsmobility 	minSpeed 	0
scalar IntersectionExampleScenario.node[36].veinsmobility 	maxSpeed 	15.375
scalar IntersectionExampleScenario.node[36].veinsmobility 	totalDistance 	549.98139276809
scalar IntersectionExampleScenario.node[36].veinsmobility 	totalCO2Emission 	141.18143973216
scalar IntersectionExampleScenario.node[42].appl 	VehicleRemoved 	0
scalar IntersectionExampleScenario.node[42].appl 	ArrivedAtDest 	1
scalar IntersectionExampleScenario.node[42].appl 	IntersectionEnterTime 	107
scalar IntersectionExampleScenario.node[42].appl 	IntersectionExitTime 	135.09784109783
scalar IntersectionExampleScenario.node[42].appl 	NumberOfCollisions 	0
scalar IntersectionExampleScenario.node[42].nic.phy80211p 	busyTime 	0
scalar IntersectionExampleScenario.node[42].nic.mac1609_4 	ReceivedUnicastPackets 	0
scalar IntersectionExampleScenario.node[42].nic.mac1609_4 	ReceivedBroadcasts 	0
scalar IntersectionExampleScenario.node[42].nic.mac1609_4 	SentPackets 	0
scalar IntersectionExampleScenario.node[42].nic.mac1609_4 	SNIRLostPackets 	0
scalar IntersectionExampleScenario.node[42].nic.mac1609_4 	RXTXLostPackets 	0
scalar IntersectionExampleScenario.node[42].nic.mac1609_4 	TotalLostPackets 	0
scalar IntersectionExampleScenario.node[42].nic.mac1609_4 	DroppedPacketsInMac 	0
scalar IntersectionExampleScenario.node[42].nic.mac1609_4 	TooLittleTime 	0
scalar IntersectionExampleScenario.node[42].nic.mac1609_4 	TimesIntoBackoff 	0
scalar IntersectionExampleScenario.node[42].nic.mac1609_4 	SlotsBackoff 	0
[...]
scalar IntersectionExampleScenario.node[760].veinsmobility 	totalCO2Emission 	56.440960973255
scalar IntersectionExampleScenario.node[761].appl 	VehicleRemoved 	0
scalar IntersectionExampleScenario.node[761].appl 	ArrivedAtDest 	0
scalar IntersectionExampleScenario.node[761].appl 	IntersectionEnterTime 	1784.25
scalar IntersectionExampleScenario.node[761].appl 	IntersectionExitTime 	-1
scalar IntersectionExampleScenario.node[761].appl 	NumberOfCollisions 	0
scalar IntersectionExampleScenario.node[761].nic.phy80211p 	busyTime 	0
scalar IntersectionExampleScenario.node[761].nic.mac1609_4 	ReceivedUnicastPackets 	0
scalar IntersectionExampleScenario.node[761].nic.mac1609_4 	ReceivedBroadcasts 	0
scalar IntersectionExampleScenario.node[761].nic.mac1609_4 	SentPackets 	0
scalar IntersectionExampleScenario.node[761].nic.mac1609_4 	SNIRLostPackets 	0
scalar IntersectionExampleScenario.node[761].nic.mac1609_4 	RXTXLostPackets 	0
scalar IntersectionExampleScenario.node[761].nic.mac1609_4 	TotalLostPackets 	0
scalar IntersectionExampleScenario.node[761].nic.mac1609_4 	DroppedPacketsInMac 	0
scalar IntersectionExampleScenario.node[761].nic.mac1609_4 	TooLittleTime 	0
scalar IntersectionExampleScenario.node[761].nic.mac1609_4 	TimesIntoBackoff 	0
scalar IntersectionExampleScenario.node[761].nic.mac1609_4 	SlotsBackoff 	0
scalar IntersectionExampleScenario.node[761].nic.mac1609_4 	NumInternalContention 	0
scalar IntersectionExampleScenario.node[761].nic.mac1609_4 	totalBusyTime 	0
scalar IntersectionExampleScenario.node[761].veinsmobility 	startTime 	1784.25
scalar IntersectionExampleScenario.node[761].veinsmobility 	totalTime 	15.75
scalar IntersectionExampleScenario.node[761].veinsmobility 	stopTime 	1800
scalar IntersectionExampleScenario.node[761].veinsmobility 	minSpeed 	5.6500000953674
scalar IntersectionExampleScenario.node[761].veinsmobility 	maxSpeed 	15.326259613037
scalar IntersectionExampleScenario.node[761].veinsmobility 	totalDistance 	199.8773727417
scalar IntersectionExampleScenario.node[761].veinsmobility 	totalCO2Emission 	54.082044980676
scalar IntersectionExampleScenario.node[762].appl 	VehicleRemoved 	0
scalar IntersectionExampleScenario.node[762].appl 	ArrivedAtDest 	0
scalar IntersectionExampleScenario.node[762].appl 	IntersectionEnterTime 	1784.75
scalar IntersectionExampleScenario.node[762].appl 	IntersectionExitTime 	-1
scalar IntersectionExampleScenario.node[762].appl 	NumberOfCollisions 	0
scalar IntersectionExampleScenario.node[762].nic.phy80211p 	busyTime 	0
scalar IntersectionExampleScenario.node[762].nic.mac1609_4 	ReceivedUnicastPackets 	0
scalar IntersectionExampleScenario.node[762].nic.mac1609_4 	ReceivedBroadcasts 	0
scalar IntersectionExampleScenario.node[762].nic.mac1609_4 	SentPackets 	0
scalar IntersectionExampleScenario.node[762].nic.mac1609_4 	SNIRLostPackets 	0
scalar IntersectionExampleScenario.node[762].nic.mac1609_4 	RXTXLostPackets 	0
scalar IntersectionExampleScenario.node[762].nic.mac1609_4 	TotalLostPackets 	0
scalar IntersectionExampleScenario.node[762].nic.mac1609_4 	DroppedPacketsInMac 	0
scalar IntersectionExampleScenario.node[762].nic.mac1609_4 	TooLittleTime 	0
scalar IntersectionExampleScenario.node[762].nic.mac1609_4 	TimesIntoBackoff 	0
scalar IntersectionExampleScenario.node[762].nic.mac1609_4 	SlotsBackoff 	0
scalar IntersectionExampleScenario.node[762].nic.mac1609_4 	NumInternalContention 	0
scalar IntersectionExampleScenario.node[762].nic.mac1609_4 	totalBusyTime 	0
scalar IntersectionExampleScenario.node[762].veinsmobility 	startTime 	1784.75
scalar IntersectionExampleScenario.node[762].veinsmobility 	totalTime 	15.25
scalar IntersectionExampleScenario.node[762].veinsmobility 	stopTime 	1800
scalar IntersectionExampleScenario.node[762].veinsmobility 	minSpeed 	5.6500000953674
scalar IntersectionExampleScenario.node[762].veinsmobility 	maxSpeed 	15.64999961853
scalar IntersectionExampleScenario.node[762].veinsmobility 	totalDistance 	199.36865234375
scalar IntersectionExampleScenario.node[762].veinsmobility 	totalCO2Emission 	52.752527205348
scalar IntersectionExampleScenario.node[763].appl 	VehicleRemoved 	0
scalar IntersectionExampleScenario.node[763].appl 	ArrivedAtDest 	0
scalar IntersectionExampleScenario.node[763].appl 	IntersectionEnterTime 	1787
scalar IntersectionExampleScenario.node[763].appl 	IntersectionExitTime 	-1
scalar IntersectionExampleScenario.node[763].appl 	NumberOfCollisions 	0
scalar IntersectionExampleScenario.node[763].nic.phy80211p 	busyTime 	0
scalar IntersectionExampleScenario.node[763].nic.mac1609_4 	ReceivedUnicastPackets 	0
scalar IntersectionExampleScenario.node[763].nic.mac1609_4 	ReceivedBroadcasts 	0
scalar IntersectionExampleScenario.node[763].nic.mac1609_4 	SentPackets 	0
scalar IntersectionExampleScenario.node[763].nic.mac1609_4 	SNIRLostPackets 	0
scalar IntersectionExampleScenario.node[763].nic.mac1609_4 	RXTXLostPackets 	0
scalar IntersectionExampleScenario.node[763].nic.mac1609_4 	TotalLostPackets 	0
scalar IntersectionExampleScenario.node[763].nic.mac1609_4 	DroppedPacketsInMac 	0
scalar IntersectionExampleScenario.node[763].nic.mac1609_4 	TooLittleTime 	0
scalar IntersectionExampleScenario.node[763].nic.mac1609_4 	TimesIntoBackoff 	0
scalar IntersectionExampleScenario.node[763].nic.mac1609_4 	SlotsBackoff 	0
scalar IntersectionExampleScenario.node[763].nic.mac1609_4 	NumInternalContention 	0
scalar IntersectionExampleScenario.node[763].nic.mac1609_4 	totalBusyTime 	0
scalar IntersectionExampleScenario.node[763].veinsmobility 	startTime 	1787
scalar IntersectionExampleScenario.node[763].veinsmobility 	totalTime 	13
scalar IntersectionExampleScenario.node[763].veinsmobility 	stopTime 	1800
scalar IntersectionExampleScenario.node[763].veinsmobility 	minSpeed 	5.6500000953674
scalar IntersectionExampleScenario.node[763].veinsmobility 	maxSpeed 	15.64999961853
scalar IntersectionExampleScenario.node[763].veinsmobility 	totalDistance 	177.57641601562
scalar IntersectionExampleScenario.node[763].veinsmobility 	totalCO2Emission 	51.139382589321
scalar IntersectionExampleScenario.node[764].appl 	VehicleRemoved 	0
scalar IntersectionExampleScenario.node[764].appl 	ArrivedAtDest 	0
scalar IntersectionExampleScenario.node[764].appl 	IntersectionEnterTime 	1790
scalar IntersectionExampleScenario.node[764].appl 	IntersectionExitTime 	-1
scalar IntersectionExampleScenario.node[764].appl 	NumberOfCollisions 	0
scalar IntersectionExampleScenario.node[764].nic.phy80211p 	busyTime 	0
scalar IntersectionExampleScenario.node[764].nic.mac1609_4 	ReceivedUnicastPackets 	0
scalar IntersectionExampleScenario.node[764].nic.mac1609_4 	ReceivedBroadcasts 	0
scalar IntersectionExampleScenario.node[764].nic.mac1609_4 	SentPackets 	0
scalar IntersectionExampleScenario.node[764].nic.mac1609_4 	SNIRLostPackets 	0
scalar IntersectionExampleScenario.node[764].nic.mac1609_4 	RXTXLostPackets 	0
scalar IntersectionExampleScenario.node[764].nic.mac1609_4 	TotalLostPackets 	0
scalar IntersectionExampleScenario.node[764].nic.mac1609_4 	DroppedPacketsInMac 	0
scalar IntersectionExampleScenario.node[764].nic.mac1609_4 	TooLittleTime 	0
scalar IntersectionExampleScenario.node[764].nic.mac1609_4 	TimesIntoBackoff 	0
scalar IntersectionExampleScenario.node[764].nic.mac1609_4 	SlotsBackoff 	0
scalar IntersectionExampleScenario.node[764].nic.mac1609_4 	NumInternalContention 	0
scalar IntersectionExampleScenario.node[764].nic.mac1609_4 	totalBusyTime 	0
scalar IntersectionExampleScenario.node[764].veinsmobility 	startTime 	1790
scalar IntersectionExampleScenario.node[764].veinsmobility 	totalTime 	10
scalar IntersectionExampleScenario.node[764].veinsmobility 	stopTime 	1800
scalar IntersectionExampleScenario.node[764].veinsmobility 	minSpeed 	5.6500000953674
scalar IntersectionExampleScenario.node[764].veinsmobility 	maxSpeed 	16.105337142944
scalar IntersectionExampleScenario.node[764].veinsmobility 	totalDistance 	111.14164733887
scalar IntersectionExampleScenario.node[764].veinsmobility 	totalCO2Emission 	50.839998097987
scalar IntersectionExampleScenario.node[765].appl 	VehicleRemoved 	0
scalar IntersectionExampleScenario.node[765].appl 	ArrivedAtDest 	0
scalar IntersectionExampleScenario.node[765].appl 	IntersectionEnterTime 	1792.25
scalar IntersectionExampleScenario.node[765].appl 	IntersectionExitTime 	-1
scalar IntersectionExampleScenario.node[765].appl 	NumberOfCollisions 	0
scalar IntersectionExampleScenario.node[765].nic.phy80211p 	busyTime 	0
scalar IntersectionExampleScenario.node[765].nic.mac1609_4 	ReceivedUnicastPackets 	0
scalar IntersectionExampleScenario.node[765].nic.mac1609_4 	ReceivedBroadcasts 	0
scalar IntersectionExampleScenario.node[765].nic.mac1609_4 	SentPackets 	0
scalar IntersectionExampleScenario.node[765].nic.mac1609_4 	SNIRLostPackets 	0
scalar IntersectionExampleScenario.node[765].nic.mac1609_4 	RXTXLostPackets 	0
scalar IntersectionExampleScenario.node[765].nic.mac1609_4 	TotalLostPackets 	0
scalar IntersectionExampleScenario.node[765].nic.mac1609_4 	DroppedPacketsInMac 	0
scalar IntersectionExampleScenario.node[765].nic.mac1609_4 	TooLittleTime 	0
scalar IntersectionExampleScenario.node[765].nic.mac1609_4 	TimesIntoBackoff 	0
scalar IntersectionExampleScenario.node[765].nic.mac1609_4 	SlotsBackoff 	0
scalar IntersectionExampleScenario.node[765].nic.mac1609_4 	NumInternalContention 	0
scalar IntersectionExampleScenario.node[765].nic.mac1609_4 	totalBusyTime 	0
scalar IntersectionExampleScenario.node[765].veinsmobility 	startTime 	1792.25
scalar IntersectionExampleScenario.node[765].veinsmobility 	totalTime 	7.75
scalar IntersectionExampleScenario.node[765].veinsmobility 	stopTime 	1800
scalar IntersectionExampleScenario.node[765].veinsmobility 	minSpeed 	5.6500000953674
scalar IntersectionExampleScenario.node[765].veinsmobility 	maxSpeed 	14.71620464325
scalar IntersectionExampleScenario.node[765].veinsmobility 	totalDistance 	82.42658996582
scalar IntersectionExampleScenario.node[765].veinsmobility 	totalCO2Emission 	35.03057306436
scalar IntersectionExampleScenario.node[766].appl 	VehicleRemoved 	0
scalar IntersectionExampleScenario.node[766].appl 	ArrivedAtDest 	0
scalar IntersectionExampleScenario.node[766].appl 	IntersectionEnterTime 	1792.5
scalar IntersectionExampleScenario.node[766].appl 	IntersectionExitTime 	-1
scalar IntersectionExampleScenario.node[766].appl 	NumberOfCollisions 	0
scalar IntersectionExampleScenario.node[766].nic.phy80211p 	busyTime 	0
scalar IntersectionExampleScenario.node[766].nic.mac1609_4 	ReceivedUnicastPackets 	0
scalar IntersectionExampleScenario.node[766].nic.mac1609_4 	ReceivedBroadcasts 	0
scalar IntersectionExampleScenario.node[766].nic.mac1609_4 	SentPackets 	0
scalar IntersectionExampleScenario.node[766].nic.mac1609_4 	SNIRLostPackets 	0
scalar IntersectionExampleScenario.node[766].nic.mac1609_4 	RXTXLostPackets 	0
scalar IntersectionExampleScenario.node[766].nic.mac1609_4 	TotalLostPackets 	0
scalar IntersectionExampleScenario.node[766].nic.mac1609_4 	DroppedPacketsInMac 	0
scalar IntersectionExampleScenario.node[766].nic.mac1609_4 	TooLittleTime 	0
scalar IntersectionExampleScenario.node[766].nic.mac1609_4 	TimesIntoBackoff 	0
scalar IntersectionExampleScenario.node[766].nic.mac1609_4 	SlotsBackoff 	0
scalar IntersectionExampleScenario.node[766].nic.mac1609_4 	NumInternalContention 	0
scalar IntersectionExampleScenario.node[766].nic.mac1609_4 	totalBusyTime 	0
scalar IntersectionExampleScenario.node[766].veinsmobility 	startTime 	1792.5
scalar IntersectionExampleScenario.node[766].veinsmobility 	totalTime 	7.5
scalar IntersectionExampleScenario.node[766].veinsmobility 	stopTime 	1800
scalar IntersectionExampleScenario.node[766].veinsmobility 	minSpeed 	5.6500000953674
scalar IntersectionExampleScenario.node[766].veinsmobility 	maxSpeed 	15.792311668396
scalar IntersectionExampleScenario.node[766].veinsmobility 	totalDistance 	95.412719726562
scalar IntersectionExampleScenario.node[766].veinsmobility 	totalCO2Emission 	41.002290810568
scalar IntersectionExampleScenario.node[767].appl 	VehicleRemoved 	0
scalar IntersectionExampleScenario.node[767].appl 	ArrivedAtDest 	0
scalar IntersectionExampleScenario.node[767].appl 	IntersectionEnterTime 	1794.25
scalar IntersectionExampleScenario.node[767].appl 	IntersectionExitTime 	-1
scalar IntersectionExampleScenario.node[767].appl 	NumberOfCollisions 	0
scalar IntersectionExampleScenario.node[767].nic.phy80211p 	busyTime 	0
scalar IntersectionExampleScenario.node[767].nic.mac1609_4 	ReceivedUnicastPackets 	0
scalar IntersectionExampleScenario.node[767].nic.mac1609_4 	ReceivedBroadcasts 	0
scalar IntersectionExampleScenario.node[767].nic.mac1609_4 	SentPackets 	0
scalar IntersectionExampleScenario.node[767].nic.mac1609_4 	SNIRLostPackets 	0
scalar IntersectionExampleScenario.node[767].nic.mac1609_4 	RXTXLostPackets 	0
scalar IntersectionExampleScenario.node[767].nic.mac1609_4 	TotalLostPackets 	0
scalar IntersectionExampleScenario.node[767].nic.mac1609_4 	DroppedPacketsInMac 	0
scalar IntersectionExampleScenario.node[767].nic.mac1609_4 	TooLittleTime 	0
scalar IntersectionExampleScenario.node[767].nic.mac1609_4 	TimesIntoBackoff 	0
scalar IntersectionExampleScenario.node[767].nic.mac1609_4 	SlotsBackoff 	0
scalar IntersectionExampleScenario.node[767].nic.mac1609_4 	NumInternalContention 	0
scalar IntersectionExampleScenario.node[767].nic.mac1609_4 	totalBusyTime 	0
scalar IntersectionExampleScenario.node[767].veinsmobility 	startTime 	1794.25
scalar IntersectionExampleScenario.node[767].veinsmobility 	totalTime 	5.75
scalar IntersectionExampleScenario.node[767].veinsmobility 	stopTime 	1800
scalar IntersectionExampleScenario.node[767].veinsmobility 	minSpeed 	5.6500000953674
scalar IntersectionExampleScenario.node[767].veinsmobility 	maxSpeed 	16.014070510864
scalar IntersectionExampleScenario.node[767].veinsmobility 	totalDistance 	67.75537109375
scalar IntersectionExampleScenario.node[767].veinsmobility 	totalCO2Emission 	38.311891549832
scalar IntersectionExampleScenario.node[768].appl 	VehicleRemoved 	0
scalar IntersectionExampleScenario.node[768].appl 	ArrivedAtDest 	0
scalar IntersectionExampleScenario.node[768].appl 	IntersectionEnterTime 	1795.5
scalar IntersectionExampleScenario.node[768].appl 	IntersectionExitTime 	-1
scalar IntersectionExampleScenario.node[768].appl 	NumberOfCollisions 	0
scalar IntersectionExampleScenario.node[768].nic.phy80211p 	busyTime 	0
scalar IntersectionExampleScenario.node[768].nic.mac1609_4 	ReceivedUnicastPackets 	0
scalar IntersectionExampleScenario.node[768].nic.mac1609_4 	ReceivedBroadcasts 	0
scalar IntersectionExampleScenario.node[768].nic.mac1609_4 	SentPackets 	0
scalar IntersectionExampleScenario.node[768].nic.mac1609_4 	SNIRLostPackets 	0
scalar IntersectionExampleScenario.node[768].nic.mac1609_4 	RXTXLostPackets 	0
scalar IntersectionExampleScenario.node[768].nic.mac1609_4 	TotalLostPackets 	0
scalar IntersectionExampleScenario.node[768].nic.mac1609_4 	DroppedPacketsInMac 	0
scalar IntersectionExampleScenario.node[768].nic.mac1609_4 	TooLittleTime 	0
scalar IntersectionExampleScenario.node[768].nic.mac1609_4 	TimesIntoBackoff 	0
scalar IntersectionExampleScenario.node[768].nic.mac1609_4 	SlotsBackoff 	0
scalar IntersectionExampleScenario.node[768].nic.mac1609_4 	NumInternalContention 	0
scalar IntersectionExampleScenario.node[768].nic.mac1609_4 	totalBusyTime 	0
scalar IntersectionExampleScenario.node[768].veinsmobility 	startTime 	1795.5
scalar IntersectionExampleScenario.node[768].veinsmobility 	totalTime 	4.5
scalar IntersectionExampleScenario.node[768].veinsmobility 	stopTime 	1800
scalar IntersectionExampleScenario.node[768].veinsmobility 	minSpeed 	5.6500000953674
scalar IntersectionExampleScenario.node[768].veinsmobility 	maxSpeed 	15.64999961853
scalar IntersectionExampleScenario.node[768].veinsmobility 	totalDistance 	47.820945739746
scalar IntersectionExampleScenario.node[768].veinsmobility 	totalCO2Emission 	33.805884268961
scalar IntersectionExampleScenario.node[769].appl 	VehicleRemoved 	0
scalar IntersectionExampleScenario.node[769].appl 	ArrivedAtDest 	0
scalar IntersectionExampleScenario.node[769].appl 	IntersectionEnterTime 	1796.25
scalar IntersectionExampleScenario.node[769].appl 	IntersectionExitTime 	-1
scalar IntersectionExampleScenario.node[769].appl 	NumberOfCollisions 	0
scalar IntersectionExampleScenario.node[769].nic.phy80211p 	busyTime 	0
scalar IntersectionExampleScenario.node[769].nic.mac1609_4 	ReceivedUnicastPackets 	0
scalar IntersectionExampleScenario.node[769].nic.mac1609_4 	ReceivedBroadcasts 	0
scalar IntersectionExampleScenario.node[769].nic.mac1609_4 	SentPackets 	0
scalar IntersectionExampleScenario.node[769].nic.mac1609_4 	SNIRLostPackets 	0
scalar IntersectionExampleScenario.node[769].nic.mac1609_4 	RXTXLostPackets 	0
scalar IntersectionExampleScenario.node[769].nic.mac1609_4 	TotalLostPackets 	0
scalar IntersectionExampleScenario.node[769].nic.mac1609_4 	DroppedPacketsInMac 	0
scalar IntersectionExampleScenario.node[769].nic.mac1609_4 	TooLittleTime 	0
scalar IntersectionExampleScenario.node[769].nic.mac1609_4 	TimesIntoBackoff 	0
scalar IntersectionExampleScenario.node[769].nic.mac1609_4 	SlotsBackoff 	0
scalar IntersectionExampleScenario.node[769].nic.mac1609_4 	NumInternalContention 	0
scalar IntersectionExampleScenario.node[769].nic.mac1609_4 	totalBusyTime 	0
scalar IntersectionExampleScenario.node[769].veinsmobility 	startTime 	1796.25
scalar IntersectionExampleScenario.node[769].veinsmobility 	totalTime 	3.75
scalar IntersectionExampleScenario.node[769].veinsmobility 	stopTime 	1800
scalar IntersectionExampleScenario.node[769].veinsmobility 	minSpeed 	5.6500000953674
scalar IntersectionExampleScenario.node[769].veinsmobility 	maxSpeed 	14.39999961853
scalar IntersectionExampleScenario.node[769].veinsmobility 	totalDistance 	36.421875
scalar IntersectionExampleScenario.node[769].veinsmobility 	totalCO2Emission 	27.850414058068
scalar IntersectionExampleScenario.node[770].appl 	VehicleRemoved 	0
scalar IntersectionExampleScenario.node[770].appl 	ArrivedAtDest 	0
scalar IntersectionExampleScenario.node[770].appl 	IntersectionEnterTime 	1796.75
scalar IntersectionExampleScenario.node[770].appl 	IntersectionExitTime 	-1
scalar IntersectionExampleScenario.node[770].appl 	NumberOfCollisions 	0
scalar IntersectionExampleScenario.node[770].nic.phy80211p 	busyTime 	0
scalar IntersectionExampleScenario.node[770].nic.mac1609_4 	ReceivedUnicastPackets 	0
scalar IntersectionExampleScenario.node[770].nic.mac1609_4 	ReceivedBroadcasts 	0
scalar IntersectionExampleScenario.node[770].nic.mac1609_4 	SentPackets 	0
scalar IntersectionExampleScenario.node[770].nic.mac1609_4 	SNIRLostPackets 	0
scalar IntersectionExampleScenario.node[770].nic.mac1609_4 	RXTXLostPackets 	0
scalar IntersectionExampleScenario.node[770].nic.mac1609_4 	TotalLostPackets 	0
scalar IntersectionExampleScenario.node[770].nic.mac1609_4 	DroppedPacketsInMac 	0
scalar IntersectionExampleScenario.node[770].nic.mac1609_4 	TooLittleTime 	0
scalar IntersectionExampleScenario.node[770].nic.mac1609_4 	TimesIntoBackoff 	0
scalar IntersectionExampleScenario.node[770].nic.mac1609_4 	SlotsBackoff 	0
scalar IntersectionExampleScenario.node[770].nic.mac1609_4 	NumInternalContention 	0
scalar IntersectionExampleScenario.node[770].nic.mac1609_4 	totalBusyTime 	0
scalar IntersectionExampleScenario.node[770].veinsmobility 	startTime 	1796.75
scalar IntersectionExampleScenario.node[770].veinsmobility 	totalTime 	3.25
scalar IntersectionExampleScenario.node[770].veinsmobility 	stopTime 	1800
scalar IntersectionExampleScenario.node[770].veinsmobility 	minSpeed 	5.6500000953674
scalar IntersectionExampleScenario.node[770].veinsmobility 	maxSpeed 	13.14999961853
scalar IntersectionExampleScenario.node[770].veinsmobility 	totalDistance 	29.534355163574
scalar IntersectionExampleScenario.node[770].veinsmobility 	totalCO2Emission 	22.582438530969
