file 27164710 1591453237                                        
version 2
run nodebug-43-20200606-10:16:44-21192
attr configname nodebug
attr datetime 20200606-10:16:44
attr experiment nodebug
attr inifile omnetpp.ini
attr iterationvars ""
attr iterationvars2 $repetition=43
attr measurement ""
attr network "\"org.car2x.veins.modules.application.ExtTraCIScenarioManagerLaunchd.IntersectionExampleScenario\""
attr processid 21192
attr repetition 43
attr replication #43
attr resultdir results
attr runnumber 43
attr seedset 43
param **.coreDebug false
param **.debug false
param *.**.nic.mac1609_4.bitrate 18Mbps
param *.**.nic.mac1609_4.txPower 20mW
param *.**.nic.mac1609_4.useServiceChannel false
param *.**.nic.phy80211p.analogueModels "xmldoc(\"config.xml\")"
param *.**.nic.phy80211p.decider "xmldoc(\"config.xml\")"
param *.**.nic.phy80211p.sensitivity -89dBm
param *.**.nic.phy80211p.thermalNoise -110dBm
param *.**.nic.phy80211p.usePropagationDelay true
param *.**.nic.phy80211p.useThermalNoise true
param *.annotations.draw false
param *.connectionManager.alpha 2.0
param *.connectionManager.carrierFrequency "5.890e9 Hz"
param *.connectionManager.pMax 20mW
param *.connectionManager.sat -89dBm
param *.connectionManager.sendDirect true
param *.manager.autoShutdown true
param *.manager.host "\"localhost\""
param *.manager.launchConfig "xmldoc(\"paramics.launchd.xml\")"
param *.manager.margin 25
param *.manager.moduleDisplayString "\"\""
param *.manager.moduleName "\"node\""
param *.manager.moduleType "\"org.car2x.veins.nodes.Car\""
param *.manager.port 9999
param *.manager.updateInterval 250ms
param *.node[*0].veinsmobility.accidentCount 0
param *.node[*0].veinsmobility.accidentDuration 30s
param *.node[*0].veinsmobility.accidentStart 75s
param *.node[*].appl.LiderSelectZoneRadio 55.0
param *.node[*].appl.ShareDataZoneRadio 110.0
param *.node[*].appl.TiempoSemaforo 30.0
param *.node[*].appl.beaconInterval 1s
param *.node[*].appl.beaconPriority 3
param *.node[*].appl.dataOnSch false
param *.node[*].appl.dataPriority 2
param *.node[*].appl.debug false
param *.node[*].appl.headerLength "256 bit"
param *.node[*].appl.maxOffset 0.005s
param *.node[*].appl.sendBeacons false
param *.node[*].appl.sendData true
param *.node[*].applType "\"Dummy\""
param *.node[*].mobilityType "\"TraCIMobility\""
param *.node[*].mobilityType.debug true
param *.node[*].veinsmobility.x 0
param *.node[*].veinsmobility.y 0
param *.node[*].veinsmobility.z 1.895
param *.node[*].veinsmobilityType "\"org.car2x.veins.modules.mobility.traci.TraCIMobility\""
param *.node[*].veinsmobilityType.debug true
param *.playgroundSizeX 8500m
param *.playgroundSizeY 8500m
param *.playgroundSizeZ 50m
param *.world.use2D false
param *.world.useTorus false

vector 61189  IntersectionExampleScenario.manager  vehiclesinsim  ETV
attr type  int
vector 61190  IntersectionExampleScenario.manager  realtime  ETV
attr type  int
attr unit  s
vector 61193  IntersectionExampleScenario.node[0].veinsmobility  posx  ETV
vector 61194  IntersectionExampleScenario.node[0].veinsmobility  posy  ETV
vector 61195  IntersectionExampleScenario.node[0].veinsmobility  speed  ETV
vector 61196  IntersectionExampleScenario.node[0].veinsmobility  acceleration  ETV
vector 61197  IntersectionExampleScenario.node[0].veinsmobility  co2emission  ETV
vector 61200  IntersectionExampleScenario.node[1].veinsmobility  posx  ETV
vector 61201  IntersectionExampleScenario.node[1].veinsmobility  posy  ETV
vector 61202  IntersectionExampleScenario.node[1].veinsmobility  speed  ETV
vector 61203  IntersectionExampleScenario.node[1].veinsmobility  acceleration  ETV
vector 61204  IntersectionExampleScenario.node[1].veinsmobility  co2emission  ETV
vector 61207  IntersectionExampleScenario.node[2].veinsmobility  posx  ETV
vector 61208  IntersectionExampleScenario.node[2].veinsmobility  posy  ETV
vector 61209  IntersectionExampleScenario.node[2].veinsmobility  speed  ETV
vector 61210  IntersectionExampleScenario.node[2].veinsmobility  acceleration  ETV
vector 61211  IntersectionExampleScenario.node[2].veinsmobility  co2emission  ETV
vector 61214  IntersectionExampleScenario.node[3].veinsmobility  posx  ETV
vector 61215  IntersectionExampleScenario.node[3].veinsmobility  posy  ETV
vector 61216  IntersectionExampleScenario.node[3].veinsmobility  speed  ETV
vector 61217  IntersectionExampleScenario.node[3].veinsmobility  acceleration  ETV
vector 61218  IntersectionExampleScenario.node[3].veinsmobility  co2emission  ETV
vector 61221  IntersectionExampleScenario.node[4].veinsmobility  posx  ETV
vector 61222  IntersectionExampleScenario.node[4].veinsmobility  posy  ETV
vector 61223  IntersectionExampleScenario.node[4].veinsmobility  speed  ETV
vector 61224  IntersectionExampleScenario.node[4].veinsmobility  acceleration  ETV
vector 61225  IntersectionExampleScenario.node[4].veinsmobility  co2emission  ETV
vector 61228  IntersectionExampleScenario.node[5].veinsmobility  posx  ETV
vector 61229  IntersectionExampleScenario.node[5].veinsmobility  posy  ETV
vector 61230  IntersectionExampleScenario.node[5].veinsmobility  speed  ETV
vector 61235  IntersectionExampleScenario.node[6].veinsmobility  posx  ETV
vector 61236  IntersectionExampleScenario.node[6].veinsmobility  posy  ETV
vector 61231  IntersectionExampleScenario.node[5].veinsmobility  acceleration  ETV
vector 61232  IntersectionExampleScenario.node[5].veinsmobility  co2emission  ETV
vector 61237  IntersectionExampleScenario.node[6].veinsmobility  speed  ETV
vector 61238  IntersectionExampleScenario.node[6].veinsmobility  acceleration  ETV
vector 61239  IntersectionExampleScenario.node[6].veinsmobility  co2emission  ETV
vector 61242  IntersectionExampleScenario.node[7].veinsmobility  posx  ETV
vector 61243  IntersectionExampleScenario.node[7].veinsmobility  posy  ETV
vector 61244  IntersectionExampleScenario.node[7].veinsmobility  speed  ETV
vector 61245  IntersectionExampleScenario.node[7].veinsmobility  acceleration  ETV
vector 61246  IntersectionExampleScenario.node[7].veinsmobility  co2emission  ETV
vector 61249  IntersectionExampleScenario.node[8].veinsmobility  posx  ETV
vector 61250  IntersectionExampleScenario.node[8].veinsmobility  posy  ETV
vector 61251  IntersectionExampleScenario.node[8].veinsmobility  speed  ETV
vector 61252  IntersectionExampleScenario.node[8].veinsmobility  acceleration  ETV
vector 61253  IntersectionExampleScenario.node[8].veinsmobility  co2emission  ETV
vector 61256  IntersectionExampleScenario.node[9].veinsmobility  posx  ETV
vector 61257  IntersectionExampleScenario.node[9].veinsmobility  posy  ETV
vector 61258  IntersectionExampleScenario.node[9].veinsmobility  speed  ETV
vector 61259  IntersectionExampleScenario.node[9].veinsmobility  acceleration  ETV
vector 61260  IntersectionExampleScenario.node[9].veinsmobility  co2emission  ETV
vector 61263  IntersectionExampleScenario.node[10].veinsmobility  posx  ETV
vector 61264  IntersectionExampleScenario.node[10].veinsmobility  posy  ETV
vector 61265  IntersectionExampleScenario.node[10].veinsmobility  speed  ETV
vector 61266  IntersectionExampleScenario.node[10].veinsmobility  acceleration  ETV
vector 61267  IntersectionExampleScenario.node[10].veinsmobility  co2emission  ETV
vector 61270  IntersectionExampleScenario.node[11].veinsmobility  posx  ETV
vector 61271  IntersectionExampleScenario.node[11].veinsmobility  posy  ETV
vector 61272  IntersectionExampleScenario.node[11].veinsmobility  speed  ETV
vector 61273  IntersectionExampleScenario.node[11].veinsmobility  acceleration  ETV
vector 61274  IntersectionExampleScenario.node[11].veinsmobility  co2emission  ETV
vector 61277  IntersectionExampleScenario.node[12].veinsmobility  posx  ETV
vector 61278  IntersectionExampleScenario.node[12].veinsmobility  posy  ETV
vector 61284  IntersectionExampleScenario.node[13].veinsmobility  posx  ETV
vector 61285  IntersectionExampleScenario.node[13].veinsmobility  posy  ETV
vector 61279  IntersectionExampleScenario.node[12].veinsmobility  speed  ETV
vector 61280  IntersectionExampleScenario.node[12].veinsmobility  acceleration  ETV
vector 61281  IntersectionExampleScenario.node[12].veinsmobility  co2emission  ETV
vector 61286  IntersectionExampleScenario.node[13].veinsmobility  speed  ETV
vector 61287  IntersectionExampleScenario.node[13].veinsmobility  acceleration  ETV
vector 61288  IntersectionExampleScenario.node[13].veinsmobility  co2emission  ETV
vector 61291  IntersectionExampleScenario.node[14].veinsmobility  posx  ETV
vector 61292  IntersectionExampleScenario.node[14].veinsmobility  posy  ETV
vector 61298  IntersectionExampleScenario.node[15].veinsmobility  posx  ETV
vector 61299  IntersectionExampleScenario.node[15].veinsmobility  posy  ETV
vector 61293  IntersectionExampleScenario.node[14].veinsmobility  speed  ETV
vector 61294  IntersectionExampleScenario.node[14].veinsmobility  acceleration  ETV
vector 61295  IntersectionExampleScenario.node[14].veinsmobility  co2emission  ETV
vector 61300  IntersectionExampleScenario.node[15].veinsmobility  speed  ETV
vector 61301  IntersectionExampleScenario.node[15].veinsmobility  acceleration  ETV
vector 61302  IntersectionExampleScenario.node[15].veinsmobility  co2emission  ETV
vector 61305  IntersectionExampleScenario.node[16].veinsmobility  posx  ETV
vector 61306  IntersectionExampleScenario.node[16].veinsmobility  posy  ETV
vector 61307  IntersectionExampleScenario.node[16].veinsmobility  speed  ETV
vector 61308  IntersectionExampleScenario.node[16].veinsmobility  acceleration  ETV
vector 61309  IntersectionExampleScenario.node[16].veinsmobility  co2emission  ETV
vector 61312  IntersectionExampleScenario.node[17].veinsmobility  posx  ETV
vector 61313  IntersectionExampleScenario.node[17].veinsmobility  posy  ETV
vector 61314  IntersectionExampleScenario.node[17].veinsmobility  speed  ETV
vector 61315  IntersectionExampleScenario.node[17].veinsmobility  acceleration  ETV
vector 61316  IntersectionExampleScenario.node[17].veinsmobility  co2emission  ETV
vector 61319  IntersectionExampleScenario.node[18].veinsmobility  posx  ETV
vector 61320  IntersectionExampleScenario.node[18].veinsmobility  posy  ETV
vector 61321  IntersectionExampleScenario.node[18].veinsmobility  speed  ETV
vector 61326  IntersectionExampleScenario.node[19].veinsmobility  posx  ETV
vector 61327  IntersectionExampleScenario.node[19].veinsmobility  posy  ETV
vector 61322  IntersectionExampleScenario.node[18].veinsmobility  acceleration  ETV
vector 61323  IntersectionExampleScenario.node[18].veinsmobility  co2emission  ETV
vector 61328  IntersectionExampleScenario.node[19].veinsmobility  speed  ETV
vector 61329  IntersectionExampleScenario.node[19].veinsmobility  acceleration  ETV
vector 61330  IntersectionExampleScenario.node[19].veinsmobility  co2emission  ETV
vector 61333  IntersectionExampleScenario.node[20].veinsmobility  posx  ETV
vector 61334  IntersectionExampleScenario.node[20].veinsmobility  posy  ETV
vector 61335  IntersectionExampleScenario.node[20].veinsmobility  speed  ETV
vector 61336  IntersectionExampleScenario.node[20].veinsmobility  acceleration  ETV
vector 61337  IntersectionExampleScenario.node[20].veinsmobility  co2emission  ETV
vector 61340  IntersectionExampleScenario.node[21].veinsmobility  posx  ETV
vector 61341  IntersectionExampleScenario.node[21].veinsmobility  posy  ETV
61197	11461 4904 12 2915 1.75 40.75 157 0.973 11.648172402475 491.52726649725 2636.9338880946
61196	16365 4433 12 2915 1.75 40.75 157 -3.3749542236328 2.5 38.511121749878 234.68497122889
61195	20798 4787 9 2915 1.5 40.75 158 5.6500000953674 15.64999961853 2208.4046268463 31807.746694608
61194	25585 5096 6 2915 1.25 40.75 159 483.14999389648 733.16246032715 85210.921936035 46620197.334619
61193	30681 5084 6 2915 1.25 40.75 159 184.17810058594 486.85000610352 63312.023651123 26984298.110733
vector 61342  IntersectionExampleScenario.node[21].veinsmobility  speed  ETV
vector 61343  IntersectionExampleScenario.node[21].veinsmobility  acceleration  ETV
vector 61344  IntersectionExampleScenario.node[21].veinsmobility  co2emission  ETV
vector 61347  IntersectionExampleScenario.node[22].veinsmobility  posx  ETV
vector 61348  IntersectionExampleScenario.node[22].veinsmobility  posy  ETV
vector 61349  IntersectionExampleScenario.node[22].veinsmobility  speed  ETV
vector 61350  IntersectionExampleScenario.node[22].veinsmobility  acceleration  ETV
vector 61351  IntersectionExampleScenario.node[22].veinsmobility  co2emission  ETV
vector 61354  IntersectionExampleScenario.node[23].veinsmobility  posx  ETV
vector 61355  IntersectionExampleScenario.node[23].veinsmobility  posy  ETV
vector 61356  IntersectionExampleScenario.node[23].veinsmobility  speed  ETV
vector 61357  IntersectionExampleScenario.node[23].veinsmobility  acceleration  ETV
vector 61358  IntersectionExampleScenario.node[23].veinsmobility  co2emission  ETV
vector 61361  IntersectionExampleScenario.node[24].veinsmobility  posx  ETV
vector 61362  IntersectionExampleScenario.node[24].veinsmobility  posy  ETV
vector 61363  IntersectionExampleScenario.node[24].veinsmobility  speed  ETV
vector 61364  IntersectionExampleScenario.node[24].veinsmobility  acceleration  ETV
vector 61365  IntersectionExampleScenario.node[24].veinsmobility  co2emission  ETV
vector 61368  IntersectionExampleScenario.node[25].veinsmobility  posx  ETV
vector 61369  IntersectionExampleScenario.node[25].veinsmobility  posy  ETV
61218	37369 4723 200 3743 9.75 46.5 148 0.973 12.099024792222 492.73805845507 2778.1720897358
61217	42092 4115 200 3743 9.75 46.5 148 -3.3589134216309 2.5 41.736440658569 215.48407617904
61216	46207 4580 191 3743 9.5 46.5 149 5.6500000953674 16.27499961853 2216.4741792679 33802.226328458
61215	50787 4893 182 3743 9.25 46.5 150 486.85000610352 486.85000610352 73027.500915527 35553439.266449
61214	55680 4876 182 3743 9.25 46.5 150 237.10101318359 785.82187652588 78421.334602356 44978832.873792
vector 61370  IntersectionExampleScenario.node[25].veinsmobility  speed  ETV
vector 61371  IntersectionExampleScenario.node[25].veinsmobility  acceleration  ETV
vector 61372  IntersectionExampleScenario.node[25].veinsmobility  co2emission  ETV
vector 61375  IntersectionExampleScenario.node[26].veinsmobility  posx  ETV
vector 61376  IntersectionExampleScenario.node[26].veinsmobility  posy  ETV
vector 61377  IntersectionExampleScenario.node[26].veinsmobility  speed  ETV
vector 61378  IntersectionExampleScenario.node[26].veinsmobility  acceleration  ETV
vector 61379  IntersectionExampleScenario.node[26].veinsmobility  co2emission  ETV
vector 61382  IntersectionExampleScenario.node[27].veinsmobility  posx  ETV
vector 61383  IntersectionExampleScenario.node[27].veinsmobility  posy  ETV
vector 61384  IntersectionExampleScenario.node[27].veinsmobility  speed  ETV
vector 61389  IntersectionExampleScenario.node[28].veinsmobility  posx  ETV
vector 61390  IntersectionExampleScenario.node[28].veinsmobility  posy  ETV
vector 61385  IntersectionExampleScenario.node[27].veinsmobility  acceleration  ETV
vector 61386  IntersectionExampleScenario.node[27].veinsmobility  co2emission  ETV
vector 61391  IntersectionExampleScenario.node[28].veinsmobility  speed  ETV
61225	61837 5095 267 4439 11.5 51 159 0.973 11.648172402475 479.74391609159 2479.483999741
61224	66932 4649 267 4439 11.5 51 159 -3.1632423400879 2.5 38.341367721558 188.88554013652
61223	71581 5003 256 4439 11.25 51 160 5.6500000953674 15.64999961853 2293.2461690903 33507.888628453
61222	76584 5263 245 4439 11 51 161 486.85000610352 486.85000610352 78382.850982666 38160691.479322
61221	81847 5253 245 4439 11 51 161 236.92572021484 805.05782318115 85474.601066589 49948365.865858
vector 61392  IntersectionExampleScenario.node[28].veinsmobility  acceleration  ETV
vector 61393  IntersectionExampleScenario.node[28].veinsmobility  co2emission  ETV
61232	87269 5007 315 4611 12.5 52 159 0.973 11.810082123732 508.49538687659 2854.0891032743
61231	92276 4718 315 4611 12.5 52 159 -3.5987892150879 2.5 38.511121749878 289.97413352837
61230	96994 4908 302 4611 12.25 52 160 5.6500000953674 15.875 2187.4261054993 31251.807394893
61229	101902 5248 289 4611 12 52 161 236.08911132812 483.14999389648 69584.892822266 31005020.324714
61228	107150 5246 289 4611 12 52 161 184.17810058594 483.33880615234 63994.011108398 27176069.18173
vector 61396  IntersectionExampleScenario.node[29].veinsmobility  posx  ETV
vector 61397  IntersectionExampleScenario.node[29].veinsmobility  posy  ETV
vector 61398  IntersectionExampleScenario.node[29].veinsmobility  speed  ETV
vector 61399  IntersectionExampleScenario.node[29].veinsmobility  acceleration  ETV
vector 61400  IntersectionExampleScenario.node[29].veinsmobility  co2emission  ETV
61204	112797 6259 37 5389 3.5 56.5 213 0.973 11.450879080643 574.85164826173 2834.2148646787
61203	119056 5675 37 5389 3.5 56.5 213 -8.4870567321777 4 37.15309715271 481.82449572734
61202	124731 6067 32 5389 3.25 56.5 214 0 15.375 2210.4979660511 30840.215052249
61201	130798 6956 27 5389 3 56.5 215 236.75714111328 785.82187652588 110782.1163559 61304250.21263
61200	137754 6972 27 5389 3 56.5 215 483.14999389648 483.14999389648 103877.24868774 50188292.069467
61211	144726 6559 91 5734 6 58.5 211 0.973 11.200708441096 586.57821135547 2844.5205652291
61210	151285 6246 91 5734 6 58.5 211 -4.5 2.5 38.341367721558 424.77901497045
61209	157531 6767 84 5734 5.75 58.5 212 0 15.440425872803 2277.3271061331 31871.739617193
61208	164298 6919 77 5734 5.5 58.5 213 236.83551025391 801.41563415527 111535.3300705 62920187.374805
61207	171217 6937 77 5734 5.5 58.5 213 483.14999389648 483.14999389648 102910.94869995 49721424.236263
61239	178154 5759 345 6165 13 61 193 0.973 11.648172402475 556.72652040567 2949.8940926233
61238	183913 5632 345 6165 13 61 193 -4.2907371520996 2.5000009536743 38.341367721558 347.8566758978
61237	189545 6036 330 6165 12.75 61 194 2.5889446735382 15.64999961853 2185.7641870975 28440.689761422
61236	195581 6369 315 6165 12.5 61 195 486.85000610352 785.82187652588 110316.62123871 64210762.66167
61235	201950 6383 315 6165 12.5 61 195 236.44775390625 483.14999389648 85996.59274292 38925561.942929
vector 61403  IntersectionExampleScenario.node[30].veinsmobility  posx  ETV
vector 61404  IntersectionExampleScenario.node[30].veinsmobility  posy  ETV
vector 61405  IntersectionExampleScenario.node[30].veinsmobility  speed  ETV
vector 61406  IntersectionExampleScenario.node[30].veinsmobility  acceleration  ETV
vector 61407  IntersectionExampleScenario.node[30].veinsmobility  co2emission  ETV
61260	208734 5140 961 6340 22.5 62 159 0.973 11.200708441096 456.73025792377 2199.7707180944
61259	213874 4595 961 6340 22.5 62 159 -3.609977722168 2.5 35.964826583862 173.546437922
61258	218469 5045 940 6340 22.25 62 160 5.6500000953674 15.02499961853 2217.4476184845 31251.739127246
61257	223514 5252 919 6340 22 62 161 184.17810058594 733.53187561035 72390.111404419 36815025.135914
61256	228766 5307 919 6340 22 62 161 486.85000610352 486.85000610352 78382.850982666 38160691.479322
vector 61410  IntersectionExampleScenario.node[31].veinsmobility  posx  ETV
vector 61411  IntersectionExampleScenario.node[31].veinsmobility  posy  ETV
vector 61412  IntersectionExampleScenario.node[31].veinsmobility  speed  ETV
vector 61413  IntersectionExampleScenario.node[31].veinsmobility  acceleration  ETV
vector 61414  IntersectionExampleScenario.node[31].veinsmobility  co2emission  ETV
vector 61417  IntersectionExampleScenario.node[32].veinsmobility  posx  ETV
vector 61418  IntersectionExampleScenario.node[32].veinsmobility  posy  ETV
vector 61419  IntersectionExampleScenario.node[32].veinsmobility  speed  ETV
vector 61424  IntersectionExampleScenario.node[33].veinsmobility  posx  ETV
vector 61425  IntersectionExampleScenario.node[33].veinsmobility  posy  ETV
vector 61420  IntersectionExampleScenario.node[32].veinsmobility  acceleration  ETV
vector 61421  IntersectionExampleScenario.node[32].veinsmobility  co2emission  ETV
vector 61426  IntersectionExampleScenario.node[33].veinsmobility  speed  ETV
vector 61427  IntersectionExampleScenario.node[33].veinsmobility  acceleration  ETV
vector 61428  IntersectionExampleScenario.node[33].veinsmobility  co2emission  ETV
vector 61431  IntersectionExampleScenario.node[34].veinsmobility  posx  ETV
vector 61432  IntersectionExampleScenario.node[34].veinsmobility  posy  ETV
vector 61433  IntersectionExampleScenario.node[34].veinsmobility  speed  ETV
vector 61434  IntersectionExampleScenario.node[34].veinsmobility  acceleration  ETV
vector 61435  IntersectionExampleScenario.node[34].veinsmobility  co2emission  ETV
vector 61438  IntersectionExampleScenario.node[35].veinsmobility  posx  ETV
vector 61439  IntersectionExampleScenario.node[35].veinsmobility  posy  ETV
vector 61440  IntersectionExampleScenario.node[35].veinsmobility  speed  ETV
vector 61441  IntersectionExampleScenario.node[35].veinsmobility  acceleration  ETV
vector 61442  IntersectionExampleScenario.node[35].veinsmobility  co2emission  ETV
vector 61445  IntersectionExampleScenario.node[36].veinsmobility  posx  ETV
vector 61446  IntersectionExampleScenario.node[36].veinsmobility  posy  ETV
61316	236232 4978 2094 8081 34.25 72.5 154 0.973 11.648172402475 470.76336111104 2462.8829942015
61315	241210 4554 2094 8081 34.25 72.5 154 -3.1964340209961 2.5 38.341367721558 191.50698189953
61314	245764 4884 2061 8081 34 72.5 155 5.6500000953674 15.64999961853 2217.1332035065 32350.133301773
61313	250648 5129 2028 8081 33.75 72.5 156 236.734375 785.82187652588 81337.366569519 46547903.090508
61312	255777 5148 2028 8081 33.75 72.5 156 483.14999389648 483.14999389648 75371.399047852 36415690.989939
vector 61447  IntersectionExampleScenario.node[36].veinsmobility  speed  ETV
vector 61448  IntersectionExampleScenario.node[36].veinsmobility  acceleration  ETV
vector 61449  IntersectionExampleScenario.node[36].veinsmobility  co2emission  ETV
vector 61452  IntersectionExampleScenario.node[37].veinsmobility  posx  ETV
vector 61453  IntersectionExampleScenario.node[37].veinsmobility  posy  ETV
vector 61454  IntersectionExampleScenario.node[37].veinsmobility  speed  ETV
vector 61455  IntersectionExampleScenario.node[37].veinsmobility  acceleration  ETV
vector 61456  IntersectionExampleScenario.node[37].veinsmobility  co2emission  ETV
vector 61459  IntersectionExampleScenario.node[38].veinsmobility  posx  ETV
vector 61460  IntersectionExampleScenario.node[38].veinsmobility  posy  ETV
vector 61466  IntersectionExampleScenario.node[39].veinsmobility  posx  ETV
vector 61467  IntersectionExampleScenario.node[39].veinsmobility  posy  ETV
vector 61461  IntersectionExampleScenario.node[38].veinsmobility  speed  ETV
vector 61462  IntersectionExampleScenario.node[38].veinsmobility  acceleration  ETV
vector 61463  IntersectionExampleScenario.node[38].veinsmobility  co2emission  ETV
vector 61468  IntersectionExampleScenario.node[39].veinsmobility  speed  ETV
vector 61469  IntersectionExampleScenario.node[39].veinsmobility  acceleration  ETV
vector 61470  IntersectionExampleScenario.node[39].veinsmobility  co2emission  ETV
61323	262375 5191 2578 9002 38.25 78.5 162 0.973 11.36141391502 498.04660962162 2605.702682659
61322	267566 4691 2578 9002 38.25 78.5 162 -3.4963760375977 2.5 37.15309715271 266.39964838222
61321	272257 5062 2547 9002 38 78.5 163 5.6500000953674 15.25 2185.2570457458 30545.530708214
61320	277319 5391 2516 9002 37.75 78.5 164 184.17810058594 483.14999389648 65225.143005371 27703567.703411
61319	282710 5405 2516 9002 37.75 78.5 164 486.85000610352 733.75947570801 88224.136245728 48407867.951492
61337	288115 5274 2813 9394 40 81.25 166 0.973 11.36141391502 513.91435439401 2665.2046372422
61336	293389 4788 2813 9394 40 81.25 166 -4.5 2.5 38.511121749878 266.5676534308
61335	298177 5211 2778 9394 39.75 81.25 167 5.6500000953674 15.320804595947 2264.0671195984 32067.935852486
61334	303388 5521 2743 9394 39.5 81.25 168 164.94219970703 483.14999389648 65591.441772461 27655812.254303
61333	308909 5541 2743 9394 39.5 81.25 168 486.85000610352 733.60140991211 89984.549316406 49141803.264727
61246	314450 7067 754 9429 19.75 81.5 248 0.973 12.26218747632 640.3045607183 3279.1438855443
61245	321517 6448 754 9429 19.75 81.5 248 -6.9348082542419 4 41.396924972534 488.69721002576
61244	327965 6650 737 9429 19.5 81.5 249 0 16.5 2172.25251019 31739.490541928
61243	334615 8162 720 9429 19.25 81.5 250 486.85000610352 731.48248291016 129423.47206116 68015849.925063
61242	342777 8232 720 9429 19.25 81.5 250 486.63604736328 785.82187652588 136295.0228653 76332981.117906
61267	351009 6658 1153 9463 24.75 81.75 229 0.973 12.099024792222 625.27637850149 3337.0818111637
61266	357667 6224 1153 9463 24.75 81.75 229 -8.1103639602661 4 40.548154830933 517.03868589017
61265	363891 6331 1131 9463 24.5 81.75 230 0 16.27499961853 2174.5802247524 31446.058978273
61264	370222 7555 1108 9463 24.25 81.75 231 237.59149169922 483.14999389648 103734.78549194 47598748.416521
61263	377777 7600 1108 9463 24.25 81.75 231 184.17810058594 483.36395263672 97196.577941895 42881713.503038
61288	385377 6582 1710 9745 31 84 213 0.97223939240464 11.648172402475 569.40640613963 2854.1380039073
61287	391959 6915 1710 9745 31 84 213 -3.9117889404297 2.5 38.680875778198 366.91087457459
61286	398874 7017 1683 9745 30.75 84 214 0 15.64999961853 2085.3900729045 28486.325205711
61285	405891 7085 1656 9745 30.5 84 215 483.14999389648 733.51455688477 112270.52738953 59697540.563522
61284	412976 7084 1656 9745 30.5 84 215 214.19219970703 486.94567871094 91499.586975098 40424018.367999
61274	420060 6920 1493 9886 28.75 85.25 227 0.973 11.54047740176 618.67564990687 3032.1227605254
61273	426980 7068 1493 9886 28.75 85.25 227 -4.5 2.5 38.680875778198 471.74094322782
61272	434048 7331 1470 9886 28.5 85.25 228 0 15.5 2232.7601111345 29174.924334669
61271	441379 7558 1447 9886 28.25 85.25 229 483.14999389648 483.14999389648 110641.34860229 53456366.901897
61270	448937 7525 1447 9886 28.25 85.25 229 177.97814941406 731.84730529785 100569.73724365 48763570.046632
61253	456462 8036 843 10020 21 86.5 263 0.973 11.810082123732 657.89521456273 3172.8801865952
61252	464498 8037 843 10020 21 86.5 263 -19.34440612793 4 38.850629806519 872.31796273654
61251	472535 8059 824 10020 20.75 86.5 264 0 15.875 2267.9567234898 31640.605075765
61250	480594 8731 805 10020 20.5 86.5 265 486.85000610352 733.97639465332 137181.83651733 72104766.821962
61249	489325 8719 805 10020 20.5 86.5 265 486.77749633789 807.09531402588 146474.19844818 83383197.295825
61309	498044 6616 1997 10258 33.5 89 223 0.973 11.810082123732 574.8818952576 2966.3496798155
61308	504660 7064 1997 10258 33.5 89 223 -3.9906644821167 2.5 38.511121749878 359.53751595403
61307	511724 7105 1966 10258 33.25 89 224 0 15.875 2058.8336246349 26511.860461883
61306	518829 7411 1935 10258 33 89 225 486.85000610352 731.63833618164 117607.09185791 62495597.29973
61305	526240 7408 1935 10258 33 89 225 486.76028442383 756.11563110352 123297.95121002 68999173.362216
61281	533648 7322 1683 10300 30.75 89.5 236 0.973 10.916047529558 591.63802418549 2547.5845978611
61280	540970 7183 1683 10300 30.75 89.5 236 -4.5 2.5 34.437047958374 448.37596545954
61279	548153 7487 1656 10300 30.5 89.5 237 0 14.625 2262.5154252537 27809.020055921
61278	555640 7858 1631 10300 30.25 89.5 238 238.22149658203 483.14999389648 106369.53445435 48632935.739401
61277	563498 7840 1631 10300 30.25 89.5 238 162.97808837891 483.17636108398 95157.850097656 40484471.521681
vector 61473  IntersectionExampleScenario.node[40].veinsmobility  posx  ETV
vector 61474  IntersectionExampleScenario.node[40].veinsmobility  posy  ETV
vector 61475  IntersectionExampleScenario.node[40].veinsmobility  speed  ETV
vector 61476  IntersectionExampleScenario.node[40].veinsmobility  acceleration  ETV
vector 61477  IntersectionExampleScenario.node[40].veinsmobility  co2emission  ETV
61295	571739 7126 1819 10421 32 91 237 0.973 11.810082123732 622.76571469586 3046.6500812843
61294	578865 7409 1819 10421 32 91 237 -4.5 2.5000001192093 39.869146347046 480.08758218589
61293	586274 7564 1790 10421 31.75 91 238 0 15.875 2188.5114366412 27771.74765646
61292	593838 7902 1763 10421 31.5 91 239 486.85000610352 734.24171447754 124420.7784729 65825353.218768
61291	601740 7881 1763 10421 31.5 91 239 486.85000610352 785.82187652588 134693.34229279 77960898.834257
61351	609621 5954 3129 10441 42.25 91.25 197 0.973 11.648172402475 558.11485012472 2872.4495036384
61350	615575 6076 3129 10441 42.25 91.25 197 -2.8242988586426 2.5 38.341367721558 339.74509279526
61349	621651 6239 3092 10441 42 91.25 198 1.3756074905396 15.64999961853 2184.4219226837 28327.527191218
61348	627890 6583 3055 10441 41.75 91.25 199 237.04669189453 483.14999389648 87958.972381592 39878872.369073
61347	634473 6555 3055 10441 41.75 91.25 199 184.17810058594 483.14999389648 80432.919647217 34306786.804333
61372	641028 5660 3817 10516 47 92.25 182 0.973 11.648172402475 558.42413253282 3071.7221142549
61371	646688 5492 3817 10516 47 92.25 182 -5.0774574279785 2.5 38.341367721558 423.42423228372
61370	652180 5828 3780 10516 46.75 92.25 183 1.544225692749 15.64999961853 2217.2599890232 30012.020610981
61369	658008 6096 3743 10516 46.5 92.25 184 483.14999389648 483.14999389648 88899.598876953 42951840.6548
61368	664104 6064 3743 10516 46.5 92.25 184 184.17810058594 732.95462036133 82035.563583374 40721474.452933
vector 61480  IntersectionExampleScenario.node[41].veinsmobility  posx  ETV
vector 61481  IntersectionExampleScenario.node[41].veinsmobility  posy  ETV
vector 61482  IntersectionExampleScenario.node[41].veinsmobility  speed  ETV
vector 61483  IntersectionExampleScenario.node[41].veinsmobility  acceleration  ETV
vector 61484  IntersectionExampleScenario.node[41].veinsmobility  co2emission  ETV
61302	670569 7718 1848 10680 32.25 94.5 250 0.973 11.36141391502 614.56481381468 2722.553914036
61301	678287 7741 1848 10680 32.25 94.5 250 -4.5 2.5 36.643835067749 490.74433227547
61300	686028 7925 1819 10680 32 94.5 251 0 15.25 2288.0605607722 28120.862930412
61299	693953 8344 1790 10680 31.75 94.5 252 486.85000610352 734.90173339844 131202.44944763 69428198.892304
61298	702297 8330 1790 10680 31.75 94.5 252 486.67874145508 810.23281097412 144240.51818085 85139884.340572
vector 61487  IntersectionExampleScenario.node[42].veinsmobility  posx  ETV
vector 61488  IntersectionExampleScenario.node[42].veinsmobility  posy  ETV
vector 61489  IntersectionExampleScenario.node[42].veinsmobility  speed  ETV
vector 61490  IntersectionExampleScenario.node[42].veinsmobility  acceleration  ETV
vector 61491  IntersectionExampleScenario.node[42].veinsmobility  co2emission  ETV
61379	711028 5852 4080 10771 48.75 95.75 189 0.97223939240464 11.648172402475 583.15602554595 3097.8294756577
61378	716880 6176 4080 10771 48.75 95.75 189 -4.5 2.5 39.224882125854 384.29429135129
61377	723056 6280 4041 10771 48.5 95.75 190 2.9995143413544 15.64999961853 2286.9645931721 30333.02325978
61376	729336 6336 4002 10771 48.25 95.75 191 483.14999389648 733.32821655273 100789.15513611 54223083.683348
61375	735672 6316 4002 10771 48.25 95.75 191 164.94219970703 486.85000610352 75698.992828369 32133847.549869
61344	741988 6789 2985 10880 41.25 97.25 225 0.973 12.099024792222 626.66869590828 3322.3319291483
61343	748777 6708 2985 10880 41.25 97.25 225 -4.5 2.5 41.736440658569 446.93720230947
61342	755485 7174 2950 10880 41 97.25 226 0 16.27499961853 2296.2949592471 30352.920611145
61341	762659 7535 2915 10880 40.75 97.25 227 486.85000610352 486.85000610352 110514.9513855 53804204.756559
61340	770194 7496 2915 10880 40.75 97.25 227 237.51416015625 806.49247741699 121835.2317276 69880929.775108
61330	777690 7216 2644 10914 38.75 97.75 237 0.973 11.36141391502 642.03629345974 3079.984062317
61329	784906 7274 2644 10914 38.75 97.75 237 -29.448287963867 4 40.038900375366 1369.8691181031
61328	792180 7478 2611 10914 38.5 97.75 238 0 15.672630310059 2221.7097342201 28580.935704662
61327	799658 7924 2578 10914 38.25 97.75 239 486.85000610352 733.11177062988 124335.9908905 65721784.331897
61326	807582 7921 2578 10914 38.25 97.75 239 486.73803710938 795.97557067871 134695.02865601 77924683.99805
vector 61494  IntersectionExampleScenario.node[43].veinsmobility  posx  ETV
vector 61495  IntersectionExampleScenario.node[43].veinsmobility  posy  ETV
vector 61501  IntersectionExampleScenario.node[44].veinsmobility  posx  ETV
vector 61502  IntersectionExampleScenario.node[44].veinsmobility  posy  ETV
vector 61496  IntersectionExampleScenario.node[43].veinsmobility  speed  ETV
vector 61508  IntersectionExampleScenario.node[45].veinsmobility  posx  ETV
vector 61509  IntersectionExampleScenario.node[45].veinsmobility  posy  ETV
vector 61497  IntersectionExampleScenario.node[43].veinsmobility  acceleration  ETV
vector 61498  IntersectionExampleScenario.node[43].veinsmobility  co2emission  ETV
vector 61503  IntersectionExampleScenario.node[44].veinsmobility  speed  ETV
vector 61504  IntersectionExampleScenario.node[44].veinsmobility  acceleration  ETV
vector 61505  IntersectionExampleScenario.node[44].veinsmobility  co2emission  ETV
vector 61510  IntersectionExampleScenario.node[45].veinsmobility  speed  ETV
vector 61511  IntersectionExampleScenario.node[45].veinsmobility  acceleration  ETV
vector 61512  IntersectionExampleScenario.node[45].veinsmobility  co2emission  ETV
61358	816706 7081 3311 11132 43.5 100.25 228 0.973 11.200708441096 592.42684608309 2736.0758888164
61357	823787 7334 3311 11132 43.5 100.25 228 -4.5 2.5 37.32285118103 349.28385837846
61356	831121 7475 3274 11132 43.25 100.25 229 0.2692286670208 15.398041725159 2328.7518794239 29855.550842679
61355	838596 7647 3237 11132 43 100.25 230 486.85000610352 486.85000610352 111975.50140381 54515273.541888
61354	846243 7618 3237 11132 43 100.25 230 235.46862792969 813.04312133789 123515.00491333 71230721.09517
61407	853861 5175 6297 11200 61.75 101 158 0.973 11.200708441096 460.43462426621 2234.8273743753
61406	859036 4980 6297 11200 61.75 101 158 -3.788330078125 2.5 36.474081039429 180.18805392227
61405	864016 5091 6253 11200 61.5 101 159 5.6500000953674 15.02499961853 2220.397108078 31543.624522528
61404	869107 5344 6208 11200 61.25 101 160 483.14999389648 483.14999389648 77303.999023438 37349426.656348
61403	874451 5317 6208 11200 61.25 101 160 184.17810058594 734.24850463867 71951.359176636 36613307.800366
61393	879768 6420 4482 11325 51.25 102.5 206 0.973 11.54047740176 610.93563174322 3075.4135060761
61392	886188 6459 4482 11325 51.25 102.5 206 -4.5 2.5 44.112981796265 406.59151145247
61391	892647 6651 4439 11325 51 102.5 207 0 16.714403152466 2179.3269715607 29119.174015579
61390	899298 6940 4396 11325 50.75 102.5 208 486.85000610352 486.85000610352 101264.80126953 49300769.116142
61389	906238 6913 4396 11325 50.75 102.5 208 235.66668701172 774.97356414795 110299.59096527 62329709.087486
61365	913151 7231 3602 11344 45.5 102.75 230 0.973 11.450879080643 622.64468870894 2990.8432875051
61364	920382 7058 3602 11344 45.5 102.75 230 -4.5 2.5 36.98334312439 477.28589302124
61363	927440 7398 3565 11344 45.25 102.75 231 0 15.375 2330.0186518729 29646.890533309
61362	934838 7723 3528 11344 45 102.75 232 238.27551269531 486.85000610352 104460.19406128 48130453.449715
61361	942561 7714 3528 11344 45 102.75 232 483.14999389648 817.5325088501 133514.56623077 79224105.579273
61414	950275 5213 6939 11493 65.5 105.25 160 0.973 11.36141391502 518.78448169564 2717.933204212
61413	955488 4741 6939 11493 65.5 105.25 160 -3.2767581939697 2.5 39.699392318726 273.26566592438
61412	960229 5092 6896 11493 65.25 105.25 161 5.6500000953674 15.596623420715 2220.3127980232 32090.228707599
61411	965321 5419 6853 11493 65 105.25 162 235.669921875 483.14999389648 70165.550628662 31315504.773179
61410	970740 5426 6853 11493 65 105.25 162 176.21716308594 483.14999389648 63904.017272949 27061551.586352
61386	976166 6946 4396 11532 50.75 106 222 0.973 11.810082123732 640.90500996192 3264.2712882202
61385	983112 6793 4396 11532 50.75 106 222 -4.5 2.5 40.038900375366 491.09116077527
61384	989905 7143 4355 11532 50.5 106 223 1.6477866172791 15.875 2239.6812608242 27974.778127316
61383	997048 7489 4314 11532 50.25 106 224 486.85000610352 734.54997253418 117116.93182373 62270378.047445
61382	1004537 7473 4314 11532 50.25 106 224 486.6708984375 798.57866668701 129313.84277344 76770777.756412
61421	1012010 5242 7218 11571 67.25 106.75 159 0.973 11.648172402475 522.39655663015 2825.892349162
61420	1017252 4858 7218 11571 67.25 106.75 159 -4.5 2.5 39.529638290405 257.70697025938
61419	1022110 5170 7177 11571 67 106.75 160 5.6500000953674 15.64999961853 2308.9638547897 34022.344879691
61418	1027280 5424 7136 11571 66.75 106.75 161 483.14999389648 483.14999389648 77787.149017334 37582860.57295
61417	1032704 5407 7136 11571 66.75 106.75 161 160.96173095703 732.61743164062 70282.899780273 35276366.071118
vector 61515  IntersectionExampleScenario.node[46].veinsmobility  posx  ETV
vector 61516  IntersectionExampleScenario.node[46].veinsmobility  posy  ETV
vector 61517  IntersectionExampleScenario.node[46].veinsmobility  speed  ETV
vector 61518  IntersectionExampleScenario.node[46].veinsmobility  acceleration  ETV
vector 61519  IntersectionExampleScenario.node[46].veinsmobility  co2emission  ETV
61400	1038512 6515 5389 11700 56.5 109 211 0.973 11.36141391502 588.03947853778 2971.5312523636
61399	1045027 6578 5389 11700 56.5 109 211 -3.6997470855713 2.5000019073486 37.32285118103 368.54980224501
61398	1051605 6797 5344 11700 56.25 109 212 2.7234916687012 15.25 2211.0856547356 26662.940164291
61397	1058402 7146 5299 11700 56 109 213 486.85000610352 734.27847290039 112092.60089111 60039323.375543
61396	1065548 7138 5299 11700 56 109 213 486.85000610352 792.01243591309 122179.46032715 71996802.491618
61442	1072686 4978 7961 11775 71.75 110.25 155 0.973 11.768216859585 515.3553892263 3156.930759147
61441	1077664 4767 7961 11775 71.75 110.25 155 -3.4896774291992 2.5 38.850629806519 255.2913890348
61440	1082431 5057 7920 11775 71.5 110.25 156 5.6500000953674 15.816880226135 2222.4822702408 32306.679809012
61439	1087488 5320 7879 11775 71.25 110.25 157 486.85000610352 486.85000610352 76435.450958252 37212599.76555
61438	1092808 5306 7879 11775 71.25 110.25 157 235.54235839844 785.82187652588 81915.929359436 46893213.143835
vector 61522  IntersectionExampleScenario.node[47].veinsmobility  posx  ETV
vector 61523  IntersectionExampleScenario.node[47].veinsmobility  posy  ETV
vector 61524  IntersectionExampleScenario.node[47].veinsmobility  speed  ETV
vector 61525  IntersectionExampleScenario.node[47].veinsmobility  acceleration  ETV
vector 61526  IntersectionExampleScenario.node[47].veinsmobility  co2emission  ETV
vector 61529  IntersectionExampleScenario.node[48].veinsmobility  posx  ETV
vector 61530  IntersectionExampleScenario.node[48].veinsmobility  posy  ETV
vector 61531  IntersectionExampleScenario.node[48].veinsmobility  speed  ETV
vector 61532  IntersectionExampleScenario.node[48].veinsmobility  acceleration  ETV
vector 61533  IntersectionExampleScenario.node[48].veinsmobility  co2emission  ETV
vector 61536  IntersectionExampleScenario.node[49].veinsmobility  posx  ETV
vector 61537  IntersectionExampleScenario.node[49].veinsmobility  posy  ETV
vector 61538  IntersectionExampleScenario.node[49].veinsmobility  speed  ETV
vector 61539  IntersectionExampleScenario.node[49].veinsmobility  acceleration  ETV
vector 61540  IntersectionExampleScenario.node[49].veinsmobility  co2emission  ETV
61449	1099317 5384 8160 12008 73 113.5 163 0.973 11.36141391502 501.40473130589 2638.449741579
61448	1104701 5238 8160 12008 73 113.5 163 -3.6660690307617 2.5 37.15309715271 278.52553035325
61447	1109939 5256 8121 12008 72.75 113.5 164 5.6500000953674 15.25 2204.0994958878 30871.663200288
61446	1115195 5604 8081 12008 72.5 113.5 165 235.90167236328 483.14999389648 71314.430633545 31776006.087654
61445	1120799 5595 8081 12008 72.5 113.5 165 179.87316894531 483.14999389648 65344.03616333 27706245.919289
vector 61543  IntersectionExampleScenario.node[50].veinsmobility  posx  ETV
vector 61544  IntersectionExampleScenario.node[50].veinsmobility  posy  ETV
vector 61545  IntersectionExampleScenario.node[50].veinsmobility  speed  ETV
vector 61546  IntersectionExampleScenario.node[50].veinsmobility  acceleration  ETV
vector 61547  IntersectionExampleScenario.node[50].veinsmobility  co2emission  ETV
vector 61550  IntersectionExampleScenario.node[51].veinsmobility  posx  ETV
vector 61551  IntersectionExampleScenario.node[51].veinsmobility  posy  ETV
vector 61552  IntersectionExampleScenario.node[51].veinsmobility  speed  ETV
vector 61553  IntersectionExampleScenario.node[51].veinsmobility  acceleration  ETV
vector 61554  IntersectionExampleScenario.node[51].veinsmobility  co2emission  ETV
61463	1127196 5404 8775 12401 77 117.75 164 0.973 11.36141391502 512.23103970506 2773.089197574
61462	1132600 5039 8775 12401 77 117.75 164 -3.809476852417 2.5 37.32285118103 278.70011006707
61461	1137639 5325 8736 12401 76.75 117.75 165 5.6500000953674 15.566209793091 2219.8436865807 31126.788099447
61460	1142964 5672 8699 12401 76.5 117.75 166 235.87426757812 483.14999389648 71820.394989014 32028096.512048
61459	1148636 5666 8699 12401 76.5 117.75 166 175.82562255859 483.14999389648 65478.990905762 27716825.385957
vector 61557  IntersectionExampleScenario.node[52].veinsmobility  posx  ETV
vector 61558  IntersectionExampleScenario.node[52].veinsmobility  posy  ETV
vector 61559  IntersectionExampleScenario.node[52].veinsmobility  speed  ETV
61435	1154534 6366 7514 12553 69 119.25 202 0.973 11.648172402475 574.1978387725 2796.0116796863
61434	1160900 6282 7514 12553 69 119.25 202 -7.1960287094116 4 38.511121749878 451.08391478043
61433	1167182 6349 7471 12553 68.75 119.25 203 0 15.64999961853 2217.0097720623 31092.773624193
61432	1173531 6918 7428 12553 68.5 119.25 204 235.69177246094 785.82187652588 105110.7345047 58338261.049182
61431	1180449 6942 7428 12553 68.5 119.25 204 483.14999389648 483.14999389648 98562.598754883 47620518.986843
vector 61560  IntersectionExampleScenario.node[52].veinsmobility  acceleration  ETV
vector 61561  IntersectionExampleScenario.node[52].veinsmobility  co2emission  ETV
61428	1187560 6571 7304 12580 67.75 119.5 208 0.973 10.756497587458 539.92463815538 2443.4027109113
61427	1194131 5932 7304 12580 67.75 119.5 208 -8.9238519668579 4 33.248777389526 453.60214647415
61426	1200063 6449 7261 12580 67.5 119.5 209 0 14.39999961853 2208.4030530453 29052.915231909
61425	1206512 7102 7218 12580 67.25 119.5 210 184.17810058594 732.67573547363 95438.577728271 47788383.732889
61424	1213614 7143 7218 12580 67.25 119.5 210 486.85000610352 486.85000610352 102238.50128174 49774814.973028
vector 61564  IntersectionExampleScenario.node[53].veinsmobility  posx  ETV
vector 61565  IntersectionExampleScenario.node[53].veinsmobility  posy  ETV
61456	1220911 5819 8320 12607 74 119.75 184 0.973 11.810082123732 541.52769553188 2796.7957812615
61455	1226730 5961 8320 12607 74 119.75 184 -3.2923812866211 2.5000004768372 38.511121749878 330.7637596041
61454	1232691 5986 8279 12607 73.75 119.75 185 1.2398785352707 15.875 2177.9007953405 29621.446551563
61453	1238677 6321 8238 12607 73.5 119.75 186 184.17810058594 483.21102905273 75289.827972412 32300859.472467
61452	1244998 6347 8238 12607 73.5 119.75 186 486.85000610352 731.59646606445 98617.098831177 53248260.475008
vector 61566  IntersectionExampleScenario.node[53].veinsmobility  speed  ETV
vector 61567  IntersectionExampleScenario.node[53].veinsmobility  acceleration  ETV
vector 61568  IntersectionExampleScenario.node[53].veinsmobility  co2emission  ETV
61470	1251592 5444 8814 12666 77.25 120.25 173 0.93438186594183 12.26218747632 558.18170285821 3368.4378321231
61469	1257036 5534 8814 12666 77.25 120.25 173 -2.8836479187012 2.5 41.057416915894 346.16441215942
61468	1262570 5612 8775 12666 77 120.25 174 4.3266291618347 16.5 2179.0071792603 30128.74259836
61467	1268182 5981 8736 12666 76.75 120.25 175 486.85000610352 785.82187652588 99562.507896423 58378167.625987
61466	1274163 5991 8736 12666 76.75 120.25 175 238.37219238281 483.14999389648 76788.690460205 34610648.882891
vector 61571  IntersectionExampleScenario.node[54].veinsmobility  posx  ETV
vector 61572  IntersectionExampleScenario.node[54].veinsmobility  posy  ETV
vector 61578  IntersectionExampleScenario.node[55].veinsmobility  posx  ETV
vector 61579  IntersectionExampleScenario.node[55].veinsmobility  posy  ETV
vector 61573  IntersectionExampleScenario.node[54].veinsmobility  speed  ETV
vector 61580  IntersectionExampleScenario.node[55].veinsmobility  speed  ETV
vector 61574  IntersectionExampleScenario.node[54].veinsmobility  acceleration  ETV
vector 61575  IntersectionExampleScenario.node[54].veinsmobility  co2emission  ETV
vector 61581  IntersectionExampleScenario.node[55].veinsmobility  acceleration  ETV
vector 61582  IntersectionExampleScenario.node[55].veinsmobility  co2emission  ETV
vector 61585  IntersectionExampleScenario.node[56].veinsmobility  posx  ETV
vector 61586  IntersectionExampleScenario.node[56].veinsmobility  posy  ETV
vector 61587  IntersectionExampleScenario.node[56].veinsmobility  speed  ETV
vector 61588  IntersectionExampleScenario.node[56].veinsmobility  acceleration  ETV
vector 61589  IntersectionExampleScenario.node[56].veinsmobility  co2emission  ETV
vector 61592  IntersectionExampleScenario.node[57].veinsmobility  posx  ETV
vector 61593  IntersectionExampleScenario.node[57].veinsmobility  posy  ETV
vector 61594  IntersectionExampleScenario.node[57].veinsmobility  speed  ETV
vector 61595  IntersectionExampleScenario.node[57].veinsmobility  acceleration  ETV
vector 61596  IntersectionExampleScenario.node[57].veinsmobility  co2emission  ETV
vector 61599  IntersectionExampleScenario.node[58].veinsmobility  posx  ETV
vector 61600  IntersectionExampleScenario.node[58].veinsmobility  posy  ETV
vector 61606  IntersectionExampleScenario.node[59].veinsmobility  posx  ETV
vector 61607  IntersectionExampleScenario.node[59].veinsmobility  posy  ETV
vector 61601  IntersectionExampleScenario.node[58].veinsmobility  speed  ETV
vector 61602  IntersectionExampleScenario.node[58].veinsmobility  acceleration  ETV
vector 61603  IntersectionExampleScenario.node[58].veinsmobility  co2emission  ETV
vector 61608  IntersectionExampleScenario.node[59].veinsmobility  speed  ETV
vector 61613  IntersectionExampleScenario.node[60].veinsmobility  posx  ETV
vector 61614  IntersectionExampleScenario.node[60].veinsmobility  posy  ETV
vector 61620  IntersectionExampleScenario.node[61].veinsmobility  posx  ETV
vector 61621  IntersectionExampleScenario.node[61].veinsmobility  posy  ETV
vector 61609  IntersectionExampleScenario.node[59].veinsmobility  acceleration  ETV
vector 61610  IntersectionExampleScenario.node[59].veinsmobility  co2emission  ETV
vector 61615  IntersectionExampleScenario.node[60].veinsmobility  speed  ETV
vector 61622  IntersectionExampleScenario.node[61].veinsmobility  speed  ETV
vector 61616  IntersectionExampleScenario.node[60].veinsmobility  acceleration  ETV
vector 61617  IntersectionExampleScenario.node[60].veinsmobility  co2emission  ETV
vector 61623  IntersectionExampleScenario.node[61].veinsmobility  acceleration  ETV
vector 61624  IntersectionExampleScenario.node[61].veinsmobility  co2emission  ETV
vector 61627  IntersectionExampleScenario.node[62].veinsmobility  posx  ETV
vector 61628  IntersectionExampleScenario.node[62].veinsmobility  posy  ETV
vector 61629  IntersectionExampleScenario.node[62].veinsmobility  speed  ETV
vector 61630  IntersectionExampleScenario.node[62].veinsmobility  acceleration  ETV
vector 61631  IntersectionExampleScenario.node[62].veinsmobility  co2emission  ETV
vector 61634  IntersectionExampleScenario.node[63].veinsmobility  posx  ETV
vector 61635  IntersectionExampleScenario.node[63].veinsmobility  posy  ETV
vector 61636  IntersectionExampleScenario.node[63].veinsmobility  speed  ETV
vector 61641  IntersectionExampleScenario.node[64].veinsmobility  posx  ETV
vector 61642  IntersectionExampleScenario.node[64].veinsmobility  posy  ETV
vector 61637  IntersectionExampleScenario.node[63].veinsmobility  acceleration  ETV
vector 61638  IntersectionExampleScenario.node[63].veinsmobility  co2emission  ETV
vector 61643  IntersectionExampleScenario.node[64].veinsmobility  speed  ETV
vector 61644  IntersectionExampleScenario.node[64].veinsmobility  acceleration  ETV
vector 61645  IntersectionExampleScenario.node[64].veinsmobility  co2emission  ETV
61498	1284565 5215 10971 14763 98.5 137 155 0.93438186594183 12.26218747632 526.10979958562 3149.9242643325
61497	1289780 4985 10971 14763 98.5 137 155 -4.1242256164551 2.5 41.057416915894 316.53085916641
61496	1294765 5106 10950 14763 98.25 137 156 5.6500000953674 16.5 2190.7353620529 32353.197014215
61495	1299871 5454 10931 14763 98 137 157 184.17810058594 483.14999389648 62396.765441895 26507662.218294
61494	1305325 5478 10931 14763 98 137 157 486.85000610352 734.97882080078 84403.425079346 46283567.675257
61505	1310803 5575 10994 15110 98.75 139.5 164 0.973 11.54047740176 503.52193776521 2690.4064722906
61504	1316378 5274 10994 15110 98.75 139.5 164 -4.1056251525879 2.5 37.32285118103 220.15809879019
61503	1321652 5536 10971 15110 98.5 139.5 165 5.6500000953674 15.5 2316.5490512848 33168.745579288
61502	1327188 5752 10950 15110 98.25 139.5 166 159.76721191406 733.64302062988 72283.515914917 36307203.03579
61501	1332940 5804 10950 15110 98.25 139.5 166 486.85000610352 486.85000610352 80817.101013184 39345806.121537
vector 61648  IntersectionExampleScenario.node[65].veinsmobility  posx  ETV
vector 61649  IntersectionExampleScenario.node[65].veinsmobility  posy  ETV
vector 61650  IntersectionExampleScenario.node[65].veinsmobility  speed  ETV
vector 61651  IntersectionExampleScenario.node[65].veinsmobility  acceleration  ETV
vector 61652  IntersectionExampleScenario.node[65].veinsmobility  co2emission  ETV
61477	1339145 6985 10400 15902 90.75 145.25 219 0.973 10.756497587458 549.77047837345 2432.7363844001
61476	1346130 6360 10400 15902 90.75 145.25 219 -7.7707300186157 4 33.418523788452 438.7015857138
61475	1352490 6749 10379 15902 90.5 145.25 220 0 14.39999961853 2185.4192349911 28745.523750147
61474	1359239 7689 10358 15902 90.25 145.25 221 483.14999389648 734.52299499512 115975.33131409 62022901.748309
61473	1366928 7666 10358 15902 90.25 145.25 221 184.17810058594 486.85000610352 91839.59197998 40225762.176139
vector 61655  IntersectionExampleScenario.node[66].veinsmobility  posx  ETV
vector 61656  IntersectionExampleScenario.node[66].veinsmobility  posy  ETV
vector 61657  IntersectionExampleScenario.node[66].veinsmobility  speed  ETV
vector 61658  IntersectionExampleScenario.node[66].veinsmobility  acceleration  ETV
vector 61659  IntersectionExampleScenario.node[66].veinsmobility  co2emission  ETV
61491	1374995 6668 10752 16210 95.5 147.5 209 0.973 12.353032912318 618.21442498463 3157.1169723147
61490	1381663 6283 10752 16210 95.5 147.5 209 -4.5 2.5 42.245687484741 508.5176061989
61489	1387946 6408 10733 16210 95.25 147.5 210 0 16.625 2280.0253748894 33432.069898209
61488	1394354 7359 10714 16210 95 147.5 211 236.57446289062 486.85000610352 94777.420684814 43595519.470313
61487	1401713 7341 10714 16210 95 147.5 211 482.99252319336 803.92188262939 118590.64297485 68910315.94841
vector 61662  IntersectionExampleScenario.node[67].veinsmobility  posx  ETV
vector 61663  IntersectionExampleScenario.node[67].veinsmobility  posy  ETV
61484	1409208 6988 10605 16276 93.5 148 219 0.973 10.916047529558 556.65760693969 2533.0751679527
61483	1416196 6367 10605 16276 93.5 148 219 -7.8154296875 4 34.267293930054 467.68864880875
61482	1422563 6767 10586 16276 93.25 148 220 0 14.625 2177.1891608238 28901.470153449
61481	1429330 7697 10567 16276 93 148 221 486.85000610352 732.9001159668 116308.92626953 62296345.048613
61480	1437027 7693 10567 16276 93 148 221 486.75677490234 785.82187652588 122674.99421692 70113314.765622
vector 61664  IntersectionExampleScenario.node[67].veinsmobility  speed  ETV
vector 61669  IntersectionExampleScenario.node[68].veinsmobility  posx  ETV
vector 61670  IntersectionExampleScenario.node[68].veinsmobility  posy  ETV
vector 61676  IntersectionExampleScenario.node[69].veinsmobility  posx  ETV
vector 61677  IntersectionExampleScenario.node[69].veinsmobility  posy  ETV
vector 61665  IntersectionExampleScenario.node[67].veinsmobility  acceleration  ETV
vector 61666  IntersectionExampleScenario.node[67].veinsmobility  co2emission  ETV
vector 61671  IntersectionExampleScenario.node[68].veinsmobility  speed  ETV
vector 61678  IntersectionExampleScenario.node[69].veinsmobility  speed  ETV
vector 61672  IntersectionExampleScenario.node[68].veinsmobility  acceleration  ETV
vector 61673  IntersectionExampleScenario.node[68].veinsmobility  co2emission  ETV
vector 61679  IntersectionExampleScenario.node[69].veinsmobility  acceleration  ETV
vector 61680  IntersectionExampleScenario.node[69].veinsmobility  co2emission  ETV
vector 61683  IntersectionExampleScenario.node[70].veinsmobility  posx  ETV
vector 61684  IntersectionExampleScenario.node[70].veinsmobility  posy  ETV
vector 61690  IntersectionExampleScenario.node[71].veinsmobility  posx  ETV
vector 61691  IntersectionExampleScenario.node[71].veinsmobility  posy  ETV
61512	1446077 6814 11017 16775 99 151.25 210 0.973 11.200708441096 570.28585930913 2735.1469977913
61511	1452891 6744 11017 16775 99 151.25 210 -3.721052646637 2.5 37.32285118103 347.66617934826
61510	1459635 7065 10994 16775 98.75 151.25 211 0 15.045300483704 2264.4856747091 29954.118910424
61509	1466700 7390 10971 16775 98.5 151.25 212 486.85000610352 734.32308959961 111617.47203064 59814843.345211
61508	1474090 7392 10971 16775 98.5 151.25 212 486.85000610352 804.51564025879 120249.96185303 70396422.04478
61533	1481482 5387 11909 16775 112.25 151.25 157 0.973 11.990504229548 526.65276988066 2825.8433781227
61532	1486869 5002 11909 16775 112.25 151.25 157 -4.5 2.5 41.396924972534 277.56371276861
61531	1491871 5273 11890 16775 112 151.25 158 5.6500000953674 16.125 2309.5807561874 34675.422711912
61530	1497144 5565 11871 16775 111.75 151.25 159 483.14999389648 483.14999389648 76820.849029541 37115992.739745
61529	1502709 5529 11871 16775 111.75 151.25 159 161.1796875 733.09196472168 69305.915725708 34736057.341405
vector 61685  IntersectionExampleScenario.node[70].veinsmobility  speed  ETV
vector 61692  IntersectionExampleScenario.node[71].veinsmobility  speed  ETV
vector 61686  IntersectionExampleScenario.node[70].veinsmobility  acceleration  ETV
vector 61687  IntersectionExampleScenario.node[70].veinsmobility  co2emission  ETV
vector 61693  IntersectionExampleScenario.node[71].veinsmobility  acceleration  ETV
vector 61694  IntersectionExampleScenario.node[71].veinsmobility  co2emission  ETV
61526	1508732 5516 11854 16861 111.5 151.75 162 0.973 11.36141391502 497.59860970425 2603.3112020495
61525	1514248 5030 11854 16861 111.5 151.75 162 -3.4656524658203 2.5 36.98334312439 274.192838124
61524	1519278 5390 11837 16861 111.25 151.75 163 5.6500000953674 15.25 2183.7127151489 30486.634393445
61523	1524668 5673 11820 16861 111 151.75 164 236.71746826172 483.14999389648 70865.358886719 31565680.27796
61522	1530341 5710 11820 16861 111 151.75 164 184.17810058594 483.15249633789 65209.492889404 27692069.257293
vector 61697  IntersectionExampleScenario.node[72].veinsmobility  posx  ETV
vector 61698  IntersectionExampleScenario.node[72].veinsmobility  posy  ETV
vector 61699  IntersectionExampleScenario.node[72].veinsmobility  speed  ETV
vector 61704  IntersectionExampleScenario.node[73].veinsmobility  posx  ETV
vector 61705  IntersectionExampleScenario.node[73].veinsmobility  posy  ETV
vector 61700  IntersectionExampleScenario.node[72].veinsmobility  acceleration  ETV
vector 61701  IntersectionExampleScenario.node[72].veinsmobility  co2emission  ETV
vector 61706  IntersectionExampleScenario.node[73].veinsmobility  speed  ETV
vector 61707  IntersectionExampleScenario.node[73].veinsmobility  acceleration  ETV
vector 61708  IntersectionExampleScenario.node[73].veinsmobility  co2emission  ETV
61554	1536853 5196 12326 17384 117 154.75 152 0.973 11.990504229548 480.2542757949 2610.1349930128
61553	1542049 4787 12326 17384 117 154.75 152 -3.5095329284668 2.5 39.529638290405 206.13698907954
61552	1546836 5099 12301 17384 116.75 154.75 153 5.6500000953674 16.125 2221.3487768173 32954.776582804
61551	1551935 5391 12276 17384 116.5 154.75 154 486.85000610352 486.85000610352 74974.900939941 36501530.980221
61550	1557326 5371 12276 17384 116.5 154.75 154 235.78125 785.82187652588 80311.378608704 45988130.783733
vector 61711  IntersectionExampleScenario.node[74].veinsmobility  posx  ETV
vector 61712  IntersectionExampleScenario.node[74].veinsmobility  posy  ETV
vector 61713  IntersectionExampleScenario.node[74].veinsmobility  speed  ETV
vector 61714  IntersectionExampleScenario.node[74].veinsmobility  acceleration  ETV
vector 61715  IntersectionExampleScenario.node[74].veinsmobility  co2emission  ETV
vector 61718  IntersectionExampleScenario.node[75].veinsmobility  posx  ETV
vector 61719  IntersectionExampleScenario.node[75].veinsmobility  posy  ETV
vector 61720  IntersectionExampleScenario.node[75].veinsmobility  speed  ETV
61575	1563330 5029 12922 18148 122.5 159 147 0.973 11.990504229548 496.1029986057 2716.2116362047
61574	1568359 4540 12922 18148 122.5 159 147 -3.2823448181152 2.5 42.415441513062 209.2619958774
61573	1572899 4943 12891 18148 122.25 159 148 5.6500000953674 16.302606582642 2212.6127309799 33951.534120412
61572	1577842 5213 12860 18148 122 159 149 486.85000610352 486.85000610352 72540.650909424 35316416.338006
61571	1583055 5198 12860 18148 122 159 149 238.12310791016 785.82187652588 78036.773277283 44809168.152019
vector 61721  IntersectionExampleScenario.node[75].veinsmobility  acceleration  ETV
vector 61722  IntersectionExampleScenario.node[75].veinsmobility  co2emission  ETV
61589	1588422 5435 13107 18942 124 163.75 160 0.973 11.648172402475 506.62173068736 2743.0137753722
61588	1593857 4905 13107 18942 124 163.75 160 -3.4773120880127 2.5 38.341367721558 280.06647708604
61587	1598762 5317 13076 18942 123.75 163.75 161 5.6500000953674 15.64999961853 2188.2596011162 31102.264453378
61586	1604079 5667 13045 18942 123.5 163.75 162 235.80725097656 483.14999389648 70006.698883057 31188394.07234
61585	1609746 5646 13045 18942 123.5 163.75 162 184.17810058594 483.18157958984 64454.02557373 27390686.976022
vector 61725  IntersectionExampleScenario.node[76].veinsmobility  posx  ETV
vector 61726  IntersectionExampleScenario.node[76].veinsmobility  posy  ETV
vector 61727  IntersectionExampleScenario.node[76].veinsmobility  speed  ETV
vector 61728  IntersectionExampleScenario.node[76].veinsmobility  acceleration  ETV
vector 61729  IntersectionExampleScenario.node[76].veinsmobility  co2emission  ETV
vector 61732  IntersectionExampleScenario.node[77].veinsmobility  posx  ETV
vector 61733  IntersectionExampleScenario.node[77].veinsmobility  posy  ETV
vector 61734  IntersectionExampleScenario.node[77].veinsmobility  speed  ETV
vector 61735  IntersectionExampleScenario.node[77].veinsmobility  acceleration  ETV
vector 61736  IntersectionExampleScenario.node[77].veinsmobility  co2emission  ETV
vector 61739  IntersectionExampleScenario.node[78].veinsmobility  posx  ETV
vector 61740  IntersectionExampleScenario.node[78].veinsmobility  posy  ETV
vector 61741  IntersectionExampleScenario.node[78].veinsmobility  speed  ETV
vector 61742  IntersectionExampleScenario.node[78].veinsmobility  acceleration  ETV
vector 61743  IntersectionExampleScenario.node[78].veinsmobility  co2emission  ETV
61596	1616595 5266 13924 19760 130.75 169 154 0.973 11.648172402475 469.21496155858 2457.4558325946
61595	1621861 4835 13924 19760 130.75 169 154 -3.0418663024902 2.5 38.171613693237 190.18313915527
61594	1626696 5194 13894 19760 130.5 169 155 5.6500000953674 15.64999961853 2212.8071584702 32216.61186922
61593	1631890 5460 13863 19760 130.25 169 156 486.85000610352 486.85000610352 75948.600952148 36975576.837107
61592	1637350 5447 13863 19760 130.25 169 156 237.82177734375 785.82187652588 81410.988975525 46608762.669011
vector 61746  IntersectionExampleScenario.node[79].veinsmobility  posx  ETV
vector 61747  IntersectionExampleScenario.node[79].veinsmobility  posy  ETV
vector 61748  IntersectionExampleScenario.node[79].veinsmobility  speed  ETV
vector 61749  IntersectionExampleScenario.node[79].veinsmobility  acceleration  ETV
vector 61750  IntersectionExampleScenario.node[79].veinsmobility  co2emission  ETV
vector 61753  IntersectionExampleScenario.node[80].veinsmobility  posx  ETV
vector 61754  IntersectionExampleScenario.node[80].veinsmobility  posy  ETV
vector 61755  IntersectionExampleScenario.node[80].veinsmobility  speed  ETV
vector 61756  IntersectionExampleScenario.node[80].veinsmobility  acceleration  ETV
vector 61757  IntersectionExampleScenario.node[80].veinsmobility  co2emission  ETV
61631	1643599 5301 14340 20348 134 173 157 0.973 11.810082123732 523.02775530034 3052.8199851156
61630	1648900 4990 14340 20348 134 173 157 -4.5 2.5 38.850629806519 328.83162980658
61629	1653890 5195 14303 20348 133.75 173 158 5.6500000953674 15.875 2149.0250205994 30615.089783035
61628	1659085 5542 14266 20348 133.5 173 159 486.85000610352 732.34284973145 85478.923248291 46860174.679667
61627	1664627 5557 14266 20348 133.5 173 159 486.85000610352 777.86563873291 90520.010566711 53154010.79879
vector 61760  IntersectionExampleScenario.node[81].veinsmobility  posx  ETV
vector 61761  IntersectionExampleScenario.node[81].veinsmobility  posy  ETV
vector 61762  IntersectionExampleScenario.node[81].veinsmobility  speed  ETV
vector 61763  IntersectionExampleScenario.node[81].veinsmobility  acceleration  ETV
vector 61764  IntersectionExampleScenario.node[81].veinsmobility  co2emission  ETV
61617	1670585 5641 14231 20610 133.25 174.75 167 0.973 11.36141391502 533.25631556206 2863.5590248516
61616	1676226 5337 14231 20610 133.25 174.75 167 -4.5 2.5 39.869146347046 286.06889685167
61615	1681563 5572 14196 20610 133 174.75 168 5.6001749038696 15.805523872375 2241.0827922821 31767.630726517
61614	1687135 5910 14161 20610 132.75 174.75 169 486.85000610352 731.56538391113 90183.03086853 49037851.713995
61613	1693045 5896 14161 20610 132.75 174.75 169 486.78024291992 801.41563415527 98609.659439087 59677715.144347
61638	1698941 5329 14585 20610 135.75 174.75 157 0.973 11.810082123732 512.93932836398 2877.3139614037
61637	1704270 4927 14585 20610 135.75 174.75 157 -3.3704528808594 2.5 39.699392318726 285.64288050481
61636	1709197 5207 14550 20610 135.5 174.75 158 5.6500000953674 15.875 2176.3486738205 31459.086025827
61635	1714404 5561 14515 20610 135.25 174.75 159 238.85522460938 483.14999389648 68924.2862854 30765730.409292
61634	1719965 5534 14515 20610 135.25 174.75 159 184.17810058594 483.2028503418 63164.82800293 26818033.877916
vector 61767  IntersectionExampleScenario.node[82].veinsmobility  posx  ETV
vector 61768  IntersectionExampleScenario.node[82].veinsmobility  posy  ETV
vector 61769  IntersectionExampleScenario.node[82].veinsmobility  speed  ETV
vector 61770  IntersectionExampleScenario.node[82].veinsmobility  acceleration  ETV
vector 61771  IntersectionExampleScenario.node[82].veinsmobility  co2emission  ETV
61645	1725900 5570 14658 20911 136.25 176.75 163 0.973 11.54047740176 514.66036072898 2804.9734149158
61644	1731470 5185 14658 20911 136.25 176.75 163 -4.5 2.5 38.341367721558 243.80676652026
61643	1736655 5515 14622 20911 136 176.75 164 5.6500000953674 15.5 2317.3378791809 33445.882432532
61642	1742170 5776 14585 20911 135.75 176.75 165 483.14999389648 483.14999389648 79719.74899292 38516596.239358
61641	1747946 5743 14585 20911 135.75 176.75 165 160.43438720703 734.30404663086 71912.714935303 36116688.726696
61519	1753689 8606 11640 21373 108 180 289 0.973 12.099024792222 673.40335421368 3210.4256811827
61518	1762295 7792 11640 21373 108 180 289 -7.2211194038391 4 40.038900375366 499.91120161458
61517	1770087 8106 11625 21373 107.75 180 290 0 16.27499961853 2206.7426270247 31973.707133532
61516	1778193 10168 11610 21373 107.5 180 291 483.14999389648 785.82187652588 156547.71265411 86356404.318671
61515	1788361 10177 11610 21373 107.5 180 291 483.14999389648 734.29360961914 148862.30970764 77298300.434523
61603	1798538 6415 14130 21656 132.5 182.25 200 0.973 11.36141391502 544.69783283144 2729.0812376843
61602	1804953 6540 14130 21656 132.5 182.25 200 -2.135440826416 2.5 37.15309715271 300.90573552905
61601	1811493 6733 14099 21656 132.25 182.25 201 1.1960809230804 15.25 2188.2418780327 28440.882641469
61600	1818226 7062 14069 21656 132 182.25 202 486.85000610352 785.82187652588 113660.85060883 65809337.942753
61599	1825288 7057 14069 21656 132 182.25 202 235.82073974609 483.14999389648 89185.067840576 40408707.720016
61540	1832345 8298 12008 21685 113.5 182.5 277 0.973 12.099024792222 666.26971391652 3285.0798874275
61539	1840643 7609 12008 21685 113.5 182.5 277 -7.2880620956421 4 41.057416915894 508.1165682855
61538	1848252 7832 11987 21685 113.25 182.5 278 0 16.27499961853 2178.9717442989 31715.4289021
61537	1856084 9735 11966 21685 113 182.5 279 184.17810058594 483.24322509766 119881.7494812 53594832.667256
61536	1865819 9761 11966 21685 113 182.5 279 486.85000610352 732.66410827637 143658.55935669 75027908.245352
61624	1875580 6523 14231 21714 133.25 182.75 199 0.973 11.54047740176 577.99549738584 2876.671140799
61623	1882103 6467 14231 21714 133.25 182.75 199 -4.5 2.5 39.020376205444 399.28351278799
61622	1888570 6781 14196 21714 133 182.75 200 2.2536585330963 15.5 2305.0188081264 31110.112941809
61621	1895351 7010 14161 21714 132.75 182.75 201 237.70892333984 808.82032012939 107311.07128143 61916706.811081
61620	1902361 7036 14161 21714 132.75 182.75 201 483.14999389648 483.14999389648 97113.148773193 46920217.237037
61547	1909397 8665 12138 21801 115 183.5 275 0.973 12.099024792222 680.34822434312 3436.5286725863
61546	1918062 8478 12138 21801 115 183.5 275 -4.5 2.5 41.057416915894 478.21128241353
61545	1926540 8554 12115 21801 114.75 183.5 276 0 16.309097290039 2300.3120127395 33532.992379457
61544	1935094 9658 12092 21801 114.5 183.5 277 163.88433837891 733.75816345215 124508.02787781 60486468.832157
61543	1944752 9695 12092 21801 114.5 183.5 277 486.85000610352 486.85000610352 134857.45169067 65655351.178709
61659	1954447 5320 16038 22132 146.25 186.5 162 0.973 12.099024792222 577.51655173153 3641.8232679477
61658	1959767 4992 16038 22132 146.25 186.5 162 -3.8470458984375 2.5 40.038900375366 390.23537795441
61657	1964759 5383 16003 22132 146 186.5 163 5.6500000953674 16.27499961853 2176.6985855103 30506.136828368
61656	1970142 5725 15968 22132 145.75 186.5 164 486.84002685547 785.82187652588 93990.400505066 55585818.960476
61655	1975867 5721 15968 22132 145.75 186.5 164 238.8544921875 483.14999389648 71374.290557861 31959732.993839
61568	1981588 8807 12666 22308 120.25 188.25 273 0.973 11.200708441096 614.74165373634 2720.0258346233
61567	1990395 9071 12666 22308 120.25 188.25 273 -3.8804883956909 2.5000004768372 35.455564498901 345.78268751399
61566	1999466 9175 12637 22308 120 188.25 274 0 15.02499961853 2136.0454962105 26973.2128811
61565	2008641 9607 12607 22308 119.75 188.25 275 198.33666992188 483.19757080078 116624.98666382 51219629.012609
61564	2018248 9618 12607 22308 119.75 188.25 275 486.85000610352 735.60096740723 142629.00204468 75143343.594873
61561	2027866 9428 12580 22526 119.5 190.5 285 0.973 10.916047529558 656.23045972489 2743.7926808373
61560	2037294 9383 12580 22526 119.5 190.5 285 -4.5 2.5000009536743 36.98334312439 440.83664055002
61559	2046677 9667 12553 22526 119.25 190.5 286 0 14.941611289978 2236.6248131581 27999.544968242
61558	2056344 10012 12526 22526 119 190.5 287 171.58746337891 483.22994995117 117856.05343628 50790511.168455
61557	2066356 10019 12526 22526 119 190.5 287 486.85000610352 733.35313415527 148112.07453918 77564475.752953
vector 61774  IntersectionExampleScenario.node[83].veinsmobility  posx  ETV
vector 61775  IntersectionExampleScenario.node[83].veinsmobility  posy  ETV
vector 61776  IntersectionExampleScenario.node[83].veinsmobility  speed  ETV
vector 61777  IntersectionExampleScenario.node[83].veinsmobility  acceleration  ETV
vector 61778  IntersectionExampleScenario.node[83].veinsmobility  co2emission  ETV
61582	2076776 9349 12922 22774 122.5 193.25 284 0.973 11.411387411795 653.1397200965 2926.4733636361
61581	2086125 9407 12922 22774 122.5 193.25 284 -4.5 2.5 36.813589096069 465.9052652322
61580	2095532 9533 12891 22774 122.25 193.25 285 0 15.405000686646 2270.9754466191 29099.81348675
61579	2105065 9969 12860 22774 122 193.25 286 162.53979492188 483.14999389648 117162.12219238 50327812.633313
61578	2115034 10000 12860 22774 122 193.25 286 486.85000610352 733.13729858398 147624.70695496 77326683.739253
61610	2125034 8012 14161 22905 132.75 194.75 249 0.973 11.200708441096 598.33676749667 2813.928040326
61609	2133046 8275 14161 22905 132.75 194.75 249 -3.6947891712189 2.5000019073486 35.625318527222 336.72579184587
61608	2141321 8495 14130 22905 132.5 194.75 250 0 15.02499961853 2213.7182635926 28216.412039333
61607	2149816 8738 14099 22905 132.25 194.75 251 184.17810058594 732.25318908691 111237.73466492 53586479.254767
61606	2158554 8787 14099 22905 132.25 194.75 251 486.84994506836 486.85000610352 122199.35140991 59492754.920331
61715	2167341 5213 17747 22926 156.75 195 154 0.94600815583079 12.26218747632 527.19283192926 3167.3189353402
61714	2172554 5043 17747 22926 156.75 195 154 -3.5189113616943 2.5 41.566686630249 310.5852452706
61713	2177597 5077 17701 22926 156.5 195 155 5.6500000953674 16.5 2183.053211689 32392.911262713
61712	2182674 5454 17654 22926 156.25 195 156 486.85000610352 785.82187652588 89351.209510803 52879415.549168
61711	2188128 5454 17654 22926 156.25 195 156 237.07366943359 483.14999389648 67583.283538818 30161070.491513
61652	2193582 7033 15246 23023 140.5 196.25 224 0.96236017381484 11.648172402475 623.16218355504 3378.7569694297
61651	2200615 7502 15246 23023 140.5 196.25 224 -3.9865794181824 2.5000001192093 42.585195541382 442.64754151565
61650	2208117 7593 15211 23023 140.25 196.25 225 0 16.481870651245 2205.1014273465 29938.817454498
61649	2215710 7880 15176 23023 140 196.25 226 184.17810058594 486.85000610352 91944.116577148 39197602.121073
61648	2223590 7893 15176 23023 140 196.25 226 238.01617431641 486.85000610352 102169.29898071 47209973.715172
vector 61781  IntersectionExampleScenario.node[84].veinsmobility  posx  ETV
vector 61782  IntersectionExampleScenario.node[84].veinsmobility  posy  ETV
vector 61783  IntersectionExampleScenario.node[84].veinsmobility  speed  ETV
vector 61788  IntersectionExampleScenario.node[85].veinsmobility  posx  ETV
vector 61789  IntersectionExampleScenario.node[85].veinsmobility  posy  ETV
vector 61784  IntersectionExampleScenario.node[84].veinsmobility  acceleration  ETV
vector 61785  IntersectionExampleScenario.node[84].veinsmobility  co2emission  ETV
vector 61790  IntersectionExampleScenario.node[85].veinsmobility  speed  ETV
vector 61791  IntersectionExampleScenario.node[85].veinsmobility  acceleration  ETV
vector 61792  IntersectionExampleScenario.node[85].veinsmobility  co2emission  ETV
61680	2232285 6445 16424 23197 149 198.5 199 0.973 11.200708441096 565.53165945218 2936.8110446009
61679	2238730 6077 16424 23197 149 198.5 199 -2.9826393127441 2.5 37.15309715271 330.52076546031
61678	2244807 6776 16385 23197 148.75 198.5 200 1.9861190319061 15.149812698364 2224.3039388657 28680.337390612
61677	2251583 7005 16346 23197 148.5 198.5 201 184.17810058594 735.4356842041 88910.151596069 43642669.690973
61676	2258588 7035 16346 23197 148.5 198.5 201 486.85000610352 486.85000610352 97856.851226807 47641608.617041
vector 61795  IntersectionExampleScenario.node[86].veinsmobility  posx  ETV
vector 61796  IntersectionExampleScenario.node[86].veinsmobility  posy  ETV
vector 61797  IntersectionExampleScenario.node[86].veinsmobility  speed  ETV
vector 61798  IntersectionExampleScenario.node[86].veinsmobility  acceleration  ETV
vector 61799  IntersectionExampleScenario.node[86].veinsmobility  co2emission  ETV
61694	2266024 6383 16861 23361 151.75 200.75 197 0.973 11.810082123732 611.18990257431 3386.2963214403
61693	2272407 6303 16861 23361 151.75 200.75 197 -4.5 2.5 40.208654403687 442.51250021341
61692	2278710 6611 16818 23361 151.5 200.75 198 2.2801895141602 15.875 2248.7299935818 29583.227033329
61691	2285321 6942 16775 23361 151.25 200.75 199 169.95465087891 483.33941650391 78611.498382568 33025258.28963
61690	2292263 6960 16775 23361 151.25 200.75 199 486.85000610352 735.02313232422 104956.16572571 56359113.395939
vector 61802  IntersectionExampleScenario.node[87].veinsmobility  posx  ETV
vector 61803  IntersectionExampleScenario.node[87].veinsmobility  posy  ETV
vector 61804  IntersectionExampleScenario.node[87].veinsmobility  speed  ETV
61722	2299455 5535 18191 23483 159.25 202.5 174 0.973 11.810082123732 551.43821406818 3168.9485682964
61721	2304990 5594 18191 23483 159.25 202.5 174 -2.9873123168945 2.5 41.227170944214 308.93153863505
61720	2310584 5790 18148 23483 159 202.5 175 5.6500000953674 16.014280319214 2177.1651773453 29020.166467317
61719	2316374 6138 18105 23483 158.75 202.5 176 184.17810058594 483.14999389648 69787.026763916 29408867.758613
61718	2322512 6154 18105 23483 158.75 202.5 176 486.85000610352 731.52355957031 93433.157989502 50516417.404451
vector 61805  IntersectionExampleScenario.node[87].veinsmobility  acceleration  ETV
vector 61806  IntersectionExampleScenario.node[87].veinsmobility  co2emission  ETV
vector 61809  IntersectionExampleScenario.node[88].veinsmobility  posx  ETV
vector 61810  IntersectionExampleScenario.node[88].veinsmobility  posy  ETV
vector 61811  IntersectionExampleScenario.node[88].veinsmobility  speed  ETV
vector 61812  IntersectionExampleScenario.node[88].veinsmobility  acceleration  ETV
vector 61813  IntersectionExampleScenario.node[88].veinsmobility  co2emission  ETV
vector 61816  IntersectionExampleScenario.node[89].veinsmobility  posx  ETV
vector 61817  IntersectionExampleScenario.node[89].veinsmobility  posy  ETV
vector 61818  IntersectionExampleScenario.node[89].veinsmobility  speed  ETV
vector 61819  IntersectionExampleScenario.node[89].veinsmobility  acceleration  ETV
vector 61820  IntersectionExampleScenario.node[89].veinsmobility  co2emission  ETV
61666	2329637 7312 16346 23807 148.5 206.75 234 0.973 11.36141391502 593.74183671302 2897.8505421085
61665	2336949 6955 16346 23807 148.5 206.75 234 -9.052116394043 4 35.964826583862 492.60779231195
61664	2343904 7032 16311 23807 148.25 206.75 235 0 15.25 2178.0019292831 29615.961665636
61663	2350936 8190 16276 23807 148 206.75 236 486.85000610352 733.14964294434 123387.26730347 65596920.748162
61662	2359126 8247 16276 23807 148 206.75 236 486.63604736328 785.82187652588 129907.17421722 73549768.207839
61673	2367373 7485 16424 23807 149 206.75 232 0.973 11.990504229548 626.0698813637 3103.6990555773
61672	2374858 7195 16424 23807 149 206.75 232 -4.5 2.5 40.208654403687 475.38017038162
61671	2382053 7365 16385 23807 148.75 206.75 233 0 16.125 2303.0375037137 33007.997774689
61670	2389418 8191 16346 23807 148.5 206.75 234 486.85000610352 486.85000610352 113922.90142822 55463365.25566
61669	2397609 8158 16346 23807 148.5 206.75 234 238.82733154297 809.56562805176 123112.404953 69387478.697328
vector 61823  IntersectionExampleScenario.node[90].veinsmobility  posx  ETV
vector 61824  IntersectionExampleScenario.node[90].veinsmobility  posy  ETV
vector 61825  IntersectionExampleScenario.node[90].veinsmobility  speed  ETV
vector 61826  IntersectionExampleScenario.node[90].veinsmobility  acceleration  ETV
vector 61827  IntersectionExampleScenario.node[90].veinsmobility  co2emission  ETV
vector 61830  IntersectionExampleScenario.node[91].veinsmobility  posx  ETV
vector 61831  IntersectionExampleScenario.node[91].veinsmobility  posy  ETV
vector 61832  IntersectionExampleScenario.node[91].veinsmobility  speed  ETV
vector 61833  IntersectionExampleScenario.node[91].veinsmobility  acceleration  ETV
vector 61834  IntersectionExampleScenario.node[91].veinsmobility  co2emission  ETV
61708	2406569 7455 17294 24169 154.25 210.75 227 0.973 11.36141391502 578.76917144248 2791.8918796047
61707	2414024 7476 17294 24169 154.25 210.75 227 -4.5 2.5 36.98334312439 400.93857935152
61706	2421500 7589 17249 24169 154 210.75 228 0 15.25 2135.4460673612 28481.792546755
61705	2429089 8008 17204 24169 153.75 210.75 229 486.85000610352 733.31471252441 119862.24703979 63803806.330967
61704	2437097 7997 17204 24169 153.75 210.75 229 486.83001708984 773.86815643311 126308.63565063 71399639.472544
61687	2445094 7940 16861 24269 151.75 211.75 241 0.973 11.990504229548 676.33316743856 3437.8040336393
61686	2453034 7822 16861 24269 151.75 211.75 241 -4.5 2.5 39.529638290405 596.31076823856
61685	2460856 8222 16818 24269 151.5 211.75 242 0 16.125 2319.4480390232 31258.528591986
61684	2469078 8507 16775 24269 151.25 211.75 243 486.85000610352 486.85000610352 118304.55148315 57596571.611647
61683	2477585 8488 16775 24269 151.25 211.75 243 236.99572753906 811.95194244385 131063.47292328 75860494.039764
61757	2486073 5519 20163 24319 171.75 212.25 163 0.973 11.200708441096 495.69455003615 2439.2552996435
61756	2491592 5325 20163 24319 171.75 212.25 163 -3.3367347717285 2.5 37.15309715271 236.78591945344
61755	2496917 5719 20126 24319 171.5 212.25 164 5.6500000953674 15.02499961853 2202.4833641052 30766.168898792
61754	2502636 5768 20089 24319 171.25 212.25 165 483.14999389648 732.12838745117 88284.75402832 48204823.980482
61753	2508404 5756 20089 24319 171.25 212.25 165 184.17810058594 486.85134887695 66009.425262451 28228212.442248
61764	2514160 5424 20462 24444 173.75 213.5 160 0.973 12.26218747632 560.35214898818 3178.826501417
61763	2519584 5062 20462 24444 173.75 213.5 160 -4.5 2.5 42.245687484741 366.3795305437
61762	2524646 5293 20424 24444 173.5 213.5 161 5.6500000953674 16.5 2262.5861282349 33520.452998407
61761	2529939 5667 20385 24444 173.25 213.5 162 235.70391845703 483.14999389648 70473.318786621 31561321.8862
61760	2535606 5631 20385 24444 173.25 213.5 162 166.078125 483.15335083008 63208.402740479 26650378.056231
vector 61837  IntersectionExampleScenario.node[92].veinsmobility  posx  ETV
vector 61838  IntersectionExampleScenario.node[92].veinsmobility  posy  ETV
vector 61839  IntersectionExampleScenario.node[92].veinsmobility  speed  ETV
vector 61840  IntersectionExampleScenario.node[92].veinsmobility  acceleration  ETV
vector 61841  IntersectionExampleScenario.node[92].veinsmobility  co2emission  ETV
61701	2541638 8137 17204 24683 153.75 215.75 249 0.973 11.468640880538 662.55274806836 3298.469223844
61700	2549775 8525 17204 24683 153.75 215.75 249 -4.5 2.5 39.529638290405 496.99530010708
61699	2558300 8658 17161 24683 153.5 215.75 250 0 15.984700202942 2332.9687040616 30398.746395945
61698	2566958 8778 17118 24683 153.25 215.75 251 237.12280273438 486.85000610352 113900.15142822 52782949.00798
61697	2575736 8768 17118 24683 153.25 215.75 251 483.14999389648 816.98691558838 143684.00495148 85020292.046904
vector 61844  IntersectionExampleScenario.node[93].veinsmobility  posx  ETV
vector 61845  IntersectionExampleScenario.node[93].veinsmobility  posy  ETV
vector 61846  IntersectionExampleScenario.node[93].veinsmobility  speed  ETV
vector 61847  IntersectionExampleScenario.node[93].veinsmobility  acceleration  ETV
vector 61848  IntersectionExampleScenario.node[93].veinsmobility  co2emission  ETV
61750	2584905 5918 20054 24795 171 216.75 184 0.973 12.553400930962 594.15656352571 3410.4110579494
61749	2590823 5880 20054 24795 171 216.75 184 -4.5 2.5 42.585195541382 376.77225333292
61748	2596703 6159 20018 24795 170.75 216.75 185 3.5871992111206 16.89999961853 2182.4283809662 29429.127996048
[...]
66508	26386305 5781 211779 217178 1736 1776.75 164 5.6500000953674 15.64999961853 2293.0848855972 33005.069825183
66507	26392086 6094 211746 217178 1735.75 1776.75 165 483.14999389648 732.74966430664 88055.584030151 47957675.490157
66506	26398180 6067 211746 217178 1735.75 1776.75 165 162.00311279297 487.029296875 64226.65423584 27116287.925479
vector 66656  IntersectionExampleScenario.node[780].veinsmobility  acceleration  ETV
vector 66657  IntersectionExampleScenario.node[780].veinsmobility  co2emission  ETV
vector 66662  IntersectionExampleScenario.node[781].veinsmobility  speed  ETV
vector 66663  IntersectionExampleScenario.node[781].veinsmobility  acceleration  ETV
vector 66664  IntersectionExampleScenario.node[781].veinsmobility  co2emission  ETV
vector 66667  IntersectionExampleScenario.node[782].veinsmobility  posx  ETV
vector 66668  IntersectionExampleScenario.node[782].veinsmobility  posy  ETV
vector 66669  IntersectionExampleScenario.node[782].veinsmobility  speed  ETV
vector 66674  IntersectionExampleScenario.node[783].veinsmobility  posx  ETV
vector 66675  IntersectionExampleScenario.node[783].veinsmobility  posy  ETV
vector 66670  IntersectionExampleScenario.node[782].veinsmobility  acceleration  ETV
vector 66671  IntersectionExampleScenario.node[782].veinsmobility  co2emission  ETV
vector 66676  IntersectionExampleScenario.node[783].veinsmobility  speed  ETV
vector 66677  IntersectionExampleScenario.node[783].veinsmobility  acceleration  ETV
vector 66678  IntersectionExampleScenario.node[783].veinsmobility  co2emission  ETV
vector 66681  IntersectionExampleScenario.node[784].veinsmobility  posx  ETV
vector 66682  IntersectionExampleScenario.node[784].veinsmobility  posy  ETV
vector 66683  IntersectionExampleScenario.node[784].veinsmobility  speed  ETV
vector 66684  IntersectionExampleScenario.node[784].veinsmobility  acceleration  ETV
vector 66685  IntersectionExampleScenario.node[784].veinsmobility  co2emission  ETV
66545	26405886 5592 212825 217904 1743.5 1781.75 154 0.97223939240464 11.648172402475 472.92719101219 2497.9646512261
66544	26411478 5393 212825 217904 1743.5 1781.75 154 -3.1266632080078 2.5 38.680875778198 190.32131247287
66543	26416871 5503 212786 217904 1743.25 1781.75 155 5.6500000953674 15.64999961853 2225.079041481 32600.747380895
66542	26422374 5772 212749 217904 1743 1781.75 156 483.14999389648 483.14999389648 75371.399047852 36415690.989939
66541	26428146 5730 212749 217904 1743 1781.75 156 184.17810058594 735.24617004395 70118.467468262 35683340.316044
66552	26433876 5908 212863 218223 1743.75 1784 162 0.973 11.54047740176 490.72029485888 2443.5997594986
66551	26439784 5505 212863 218223 1743.75 1784 162 -4.5 2.5 38.680875778198 202.99005152783
66550	26445289 5809 212825 218223 1743.5 1784 163 5.6500000953674 15.613095283508 2317.8918600082 33675.984458858
66549	26451098 6068 212786 218223 1743.25 1784 164 483.14999389648 483.14999389648 79236.598999023 38283162.322756
66548	26457166 6034 212786 218223 1743.25 1784 164 159.76721191406 733.72554016113 71379.047485352 35819685.382686
vector 66688  IntersectionExampleScenario.node[785].veinsmobility  posx  ETV
vector 66689  IntersectionExampleScenario.node[785].veinsmobility  posy  ETV
vector 66690  IntersectionExampleScenario.node[785].veinsmobility  speed  ETV
vector 66695  IntersectionExampleScenario.node[786].veinsmobility  posx  ETV
vector 66696  IntersectionExampleScenario.node[786].veinsmobility  posy  ETV
vector 66691  IntersectionExampleScenario.node[785].veinsmobility  acceleration  ETV
vector 66692  IntersectionExampleScenario.node[785].veinsmobility  co2emission  ETV
vector 66697  IntersectionExampleScenario.node[786].veinsmobility  speed  ETV
vector 66698  IntersectionExampleScenario.node[786].veinsmobility  acceleration  ETV
vector 66699  IntersectionExampleScenario.node[786].veinsmobility  co2emission  ETV
66559	26464012 6010 213208 218658 1746.25 1787.5 166 0.973 11.450879080643 499.44997050579 2538.0450819487
66558	26470022 5350 213208 218658 1746.25 1787.5 166 -3.6257286071777 2.5 37.32285118103 227.5210304563
66557	26475372 5896 213175 218658 1746 1787.5 167 5.6500000953674 15.375 2313.3281526566 32897.985207183
66556	26481268 6207 213142 218658 1745.75 1787.5 168 483.14999389648 732.16468811035 89640.005096436 48808735.876879
66555	26487475 6198 213142 218658 1745.75 1787.5 168 156.23693847656 487.05645751953 64947.815155029 27345038.951415
66566	26493673 5668 213624 218781 1749.5 1788.5 157 0.973 11.648172402475 491.52726649725 2636.9338880946
66565	26499341 5198 213624 218781 1749.5 1788.5 157 -3.3749542236328 2.5 38.511121749878 234.68505931777
66564	26504539 5561 213591 218781 1749.25 1788.5 158 5.6500000953674 15.64999961853 2208.4045886993 31807.745820974
66563	26510100 5877 213558 218781 1749 1788.5 159 236.83752441406 486.85000610352 69019.078063965 30914108.780926
66562	26515977 5870 213558 218781 1749 1788.5 159 483.14999389648 785.82187652588 90917.97403717 53762069.37164
vector 66702  IntersectionExampleScenario.node[787].veinsmobility  posx  ETV
vector 66703  IntersectionExampleScenario.node[787].veinsmobility  posy  ETV
vector 66704  IntersectionExampleScenario.node[787].veinsmobility  speed  ETV
vector 66705  IntersectionExampleScenario.node[787].veinsmobility  acceleration  ETV
vector 66706  IntersectionExampleScenario.node[787].veinsmobility  co2emission  ETV
66489	26522253 8587 210353 219158 1725.25 1791.75 267 0.973 12.099024792222 661.34801715903 3258.0797158946
66488	26530840 8050 210353 219158 1725.25 1791.75 267 -6.990797996521 4 41.057416915894 491.66336112125
66487	26538890 8198 210320 219158 1725 1791.75 268 0 16.27499961853 2217.0895330906 32552.611764996
66486	26547088 9943 210287 219158 1724.75 1791.75 269 235.59185791016 785.82187652588 137651.17168427 74513108.336483
66485	26557031 9954 210287 219158 1724.75 1791.75 269 483.14999389648 483.14999389648 129967.34835815 62793723.565984
66482	26566985 9100 209915 219212 1721.75 1792.25 283 0.97223939240464 11.648172402475 653.89954634048 3041.59085068
66481	26576085 8260 209915 219212 1721.75 1792.25 283 -6.6580028533936 4 38.680875778198 457.69591580207
66480	26584345 8636 209884 219212 1721.5 1792.25 284 0 15.64999961853 2217.4195642471 31520.575005897
66479	26592981 10516 209853 219212 1721.25 1792.25 285 184.17810058594 734.53523254395 130854.32315063 64267436.660715
66478	26603497 10546 209853 219212 1721.25 1792.25 285 486.85000610352 486.85000610352 138752.2517395 67551534.606253
66524	26614043 7578 212183 219428 1739 1794.25 222 0.97223939240464 11.648172402475 584.79169938011 2904.8859789702
66523	26621621 7903 212183 219428 1739 1794.25 222 -3.8057777881622 2.5 38.680875778198 331.16102813708
66522	26629524 8112 212146 219428 1738.75 1794.25 223 0 15.64999961853 2218.4587100372 29756.901245783
66521	26637636 8250 212109 219428 1738.5 1794.25 224 184.17810058594 733.92601013184 100990.83221436 49689891.462977
66520	26645886 8288 212109 219428 1738.5 1794.25 224 486.85000610352 486.85000610352 109054.40136719 53093135.97123
66531	26654174 7905 212333 219779 1740 1797.5 231 0.973 11.00486315618 580.49485291756 2616.8455374296
66530	26662079 8055 212333 219779 1740 1797.5 231 -4.5 2.5000009536743 35.795072555542 369.81604896048
66529	26670134 8322 212295 219779 1739.75 1797.5 232 0.50917196273804 14.75 2299.3667515516 29015.188558958
66528	26678456 8577 212257 219779 1739.5 1797.5 233 162.00311279297 486.8684387207 93969.972686768 40219950.900726
66527	26687033 8607 212257 219779 1739.5 1797.5 233 235.69769287109 486.85000610352 104601.89978027 48104239.979345
vector 66709  IntersectionExampleScenario.node[788].veinsmobility  posx  ETV
vector 66710  IntersectionExampleScenario.node[788].veinsmobility  posy  ETV
vector 66711  IntersectionExampleScenario.node[788].veinsmobility  speed  ETV
66594	26695875 5766 214974 219996 1760.25 1799.5 158 0.973 11.200708441096 459.94954698944 2214.6057482136
66593	26701641 5214 214974 219996 1760.25 1799.5 158 -3.4825553894043 2.5 36.474081039429 177.11249461779
66592	26706855 5666 214941 219996 1760 1799.5 159 5.6500000953674 15.02499961853 2220.3919000626 31545.143649826
66591	26712521 5908 214910 219996 1759.75 1799.5 160 235.71258544922 785.82187652588 83240.769218445 47564038.181139
66590	26718429 5920 214910 219996 1759.75 1799.5 160 483.14999389648 483.14999389648 77303.999023438 37349426.656348
vector 66712  IntersectionExampleScenario.node[788].veinsmobility  acceleration  ETV
vector 66713  IntersectionExampleScenario.node[788].veinsmobility  co2emission  ETV
66538	26724520 7781 212825 220023 1743.5 1799.75 226 0.973 11.36141391502 606.31725782358 2966.3493746296
66537	26732301 7364 212825 220023 1743.5 1799.75 226 -4.5 2.5 38.341367721558 473.50066933384
66536	26739665 8057 212786 220023 1743.25 1799.75 227 0 15.25 2271.24307492 29329.427529541
66535	26747722 8419 212749 220023 1743 1799.75 228 163.37701416016 483.18994140625 91671.621337891 39053238.236983
66534	26756141 8425 212749 220023 1743 1799.75 228 486.85000610352 733.76997375488 119235.33242798 63408467.782843
66573	26764566 6814 213724 220051 1750.25 1800 200 0.973 11.648172402475 541.73679069434 2847.6157143664
66572	26771380 6906 213724 220051 1750.25 1800 200 -3.9924411773682 2.5000019073486 38.341367721558 362.36519056809
66571	26778286 7195 213691 220051 1750 1800 201 0 15.64999961853 2154.5738858208 27992.937203158
66570	26785481 7427 213657 220051 1749.75 1800 202 184.17810058594 717.22848510742 88494.296096802 42617384.964756
66569	26792908 7473 213657 220051 1749.75 1800 202 486.85000610352 486.85000610352 98343.70123291 47878631.545484
66580	26800381 6733 213917 220051 1751.75 1800 194 0.973 11.648172402475 548.64548837689 2864.2685505398
66579	26807114 6809 213917 220051 1751.75 1800 194 -4.5 2.5 38.511121749878 454.36438326152
66578	26813923 6984 213884 220051 1751.5 1800 195 0 15.64999961853 2103.0332324579 27966.774540463
66577	26820907 7214 213851 220051 1751.25 1800 196 163.88433837891 684.45655822754 82131.485733032 37997709.387484
66576	26828121 7252 213851 220051 1751.25 1800 196 486.84997558594 486.85003662109 95422.601226807 46456494.004541
66587	26835373 6011 213984 220051 1752.25 1800 192 0.973 10.756497587458 367.8601989024 1372.2564535794
66586	26841384 5477 213984 220051 1752.25 1800 192 -8.4760875701904 4 -1.1000003814697 369.15690642998
66585	26846861 5806 213951 220051 1752 1800 193 0 14.39999961853 1228.3928160667 15846.271432084
66584	26852667 7177 213917 220051 1751.75 1800 194 485.44281005859 486.85000610352 94445.694641113 45979329.056564
66583	26859844 7170 213917 220051 1751.75 1800 194 493.79089355469 800.04531860352 111543.57393646 66144883.773697
66601	26867014 5067 215007 220051 1760.5 1800 159 0.973 11.200708441096 344.85264684463 1469.7866137701
66600	26872081 4633 215007 220051 1760.5 1800 159 -8.4870233535767 4 -1.1000003814697 381.38816667178
66599	26876714 4938 214974 220051 1760.25 1800 160 0 15.02499961853 1171.7678630352 15897.633979347
66598	26881652 5955 214941 220051 1760 1800 161 483.14999389648 484.55718994141 77790.355560303 37585962.204933
66597	26887607 5935 214941 220051 1760 1800 161 184.17810058594 476.20910644531 62935.290893555 26201977.539838
66608	26893542 5614 215100 220051 1761.25 1800 156 0.973 11.200708441096 504.66771416932 2545.6434189423
66607	26899156 5514 215100 220051 1761.25 1800 156 -3.9819488525391 2.5 40.038900375366 238.96112418513
66606	26904670 5740 215069 220051 1761 1800 157 5.6500000953674 15.722423553467 2230.4923553467 32736.106643031
66605	26910410 5836 215038 220051 1760.75 1800 158 483.14999389648 807.99687957764 92224.241363525 55893392.435793
66604	26916246 5834 215038 220051 1760.75 1800 158 483.14999389648 716.68673706055 83514.71194458 44931633.837025
66615	26922080 4835 215352 220051 1763.25 1800 148 0.973 11.648172402475 313.44687662316 1468.1178252688
66614	26926915 5544 215352 220051 1763.25 1800 148 -3.9558911323547 2.5 -15.338822364807 206.23650621625
66613	26932459 5494 215319 220051 1763 1800 149 0 15.64999961853 1125.1666229386 14221.188165602
66612	26937953 5549 215286 220051 1762.75 1800 150 486.85000610352 486.85000610352 73027.500915527 35553439.266449
66611	26943502 5535 215286 220051 1762.75 1800 150 504.87872314453 785.82187652588 88546.302711487 53633477.962833
66622	26949037 5143 215488 220051 1764.25 1800 144 0.973 12.099024792222 503.95132425381 3067.1409983924
66621	26954180 5032 215488 220051 1764.25 1800 144 -4.2039833068848 2.5 40.378446578979 324.11660715175
66620	26959212 5034 215453 220051 1764 1800 145 5.6500000953674 16.27499961853 1992.8634624481 28853.622471354
66619	26964246 5391 215418 220051 1763.75 1800 146 486.85000610352 809.68438720703 86693.26033783 53375254.136269
66618	26969637 5400 215418 220051 1763.75 1800 146 308.58380126953 483.14999389648 66469.926116943 30616587.127713
66629	26975037 4850 215702 220051 1765.75 1800 138 0.973 12.094266394608 474.432008414 2931.4946371651
66628	26979887 4764 215702 220051 1765.75 1800 138 -4.5 2.5 40.04043006897 293.47106508837
66627	26984651 4818 215665 220051 1765.5 1800 139 5.6500000953674 16.274709701538 1871.5212564468 26638.757838167
66626	26989469 5169 215628 220051 1765.25 1800 140 486.85000610352 818.04688262939 84614.405021667 53049227.316017
66625	26994638 5173 215628 220051 1765.25 1800 140 347.62506103516 483.14999389648 65114.143554688 30462459.792207
66636	26999811 4453 216089 220051 1768.5 1800 127 0.973 11.956901099466 460.76317925537 3014.9544287716
66635	27004264 4349 216089 220051 1768.5 1800 127 -3.5308113098145 2.5000038146973 39.703191757202 314.43864238708
66634	27008613 4411 216054 220051 1768.25 1800 128 5.6500000953674 16.078475952148 1708.6951236725 24159.257424025
66633	27013024 4745 216018 220051 1768 1800 129 184.17810058594 483.21310424805 48660.991271973 19807332.721676
66632	27017769 4769 216018 220051 1768 1800 129 486.85000610352 614.33604431152 65065.472793579 32965961.761471
66643	27022538 3450 217077 220051 1776 1800 97 0.973 11.200708441096 286.47460197817 1443.0705856749
66642	27025988 3461 217077 220051 1776 1800 97 -3.665132522583 2.5 10.89999961853 207.81633370224
66641	27029449 3420 217042 220051 1775.75 1800 98 5.6500000953674 15.13530254364 1246.2491192818 16854.629558164
66640	27032869 3632 217009 220051 1775.5 1800 99 184.17810058594 483.14999389648 33815.196075439 12528140.525823
66639	27036501 3662 217009 220051 1775.5 1800 99 486.85000610352 501.37826538086 48270.819885254 23536724.711977
66650	27040163 3374 217112 220051 1776.25 1800 96 0.973 10.138243321975 322.99217554133 1651.1020735745
66649	27043537 3408 217112 220051 1776.25 1800 96 -4.5 2.5 12.827703475952 309.79428063061
66648	27046945 3574 217077 220051 1776 1800 97 5.6500000953674 15.318076133728 1177.0918192863 15286.397194991
66647	27050519 3592 217042 220051 1775.75 1800 98 159.76721191406 451.72659301758 28741.274139404 9277580.170542
66646	27054111 3625 217042 220051 1775.75 1800 98 486.85000610352 486.85000610352 47711.300598145 23228246.987413
66657	27057736 3052 217213 220051 1777 1800 93 0.973 11.648172402475 254.22883653491 1417.0752521391
66656	27060788 3385 217213 220051 1777 1800 93 -2.1466102600098 2.5 -4.2264461517334 176.34631834477
66655	27064173 3457 217178 220051 1776.75 1800 94 3.549788236618 15.64999961853 1055.1290934086 13523.986951006
66654	27067630 3514 217145 220051 1776.5 1800 95 486.85000610352 486.85000610352 46250.750579834 22517178.202084
66653	27071144 3506 217145 220051 1776.5 1800 95 523.52612304688 785.82187652588 60879.561927795 39744172.9586
66664	27074650 3116 217248 220051 1777.25 1800 92 0.973 11.200708441096 266.81668898662 1425.3980380203
66663	27077766 3359 217248 220051 1777.25 1800 92 -2.0674591064453 2.5 11.045705795288 184.58614232353
66662	27081125 3422 217213 220051 1777 1800 93 5.0630650520325 15.02499961853 1081.2632446289 13673.19265804
66661	27084547 3477 217178 220051 1776.75 1800 94 483.14999389648 483.14999389648 45416.09942627 21942788.160604
66660	27088024 3459 217178 220051 1776.75 1800 94 184.17810058594 451.6921081543 30681.941650391 10736446.253484
66671	27091483 2998 217492 220051 1779 1800 85 0.973 9.5057855030302 254.83835031129 1210.0180097706
66670	27094481 3092 217492 220051 1779 1800 85 -4.5 2.5 6.8854160308838 182.28406779701
66669	27097573 3172 217457 220051 1778.75 1800 86 5.6500000953674 15.380535125732 1106.2914562225 15039.628625002
66668	27100745 3207 217422 220051 1778.5 1800 87 157.42742919922 431.46817016602 24623.527740479 7634869.6128383
66667	27103952 3218 217422 220051 1778.5 1800 87 486.85000610352 486.85000610352 42355.950531006 20620994.77454
66678	27107170 2913 217566 220051 1779.5 1800 83 0.973 11.020937874067 247.80949603399 1295.8085060272
66677	27110083 2859 217566 220051 1779.5 1800 83 -4.5 2.5 -10.08890247345 278.82137471379
66676	27112942 3092 217529 220051 1779.25 1800 84 3.127774477005 15.013161659241 1080.53561759 14709.96243176
66675	27116034 3135 217492 220051 1779 1800 85 200.27264404297 469.61581420898 28378.593505859 10112324.331507
66674	27119169 3143 217492 220051 1779 1800 85 486.85000610352 486.85000610352 41382.250518799 20146948.917654
66685	27122312 2756 217718 220051 1780.5 1800 79 0.973 11.200708441096 270.31820575102 1504.3177729075
66684	27125068 2775 217718 220051 1780.5 1800 79 -4.5 2.5 13.280290603638 248.68512329038
66683	27127843 2948 217679 220051 1780.25 1800 80 5.6500000953674 15.585287094116 1007.9619736671 13737.138081232
66682	27130791 2995 217640 220051 1780 1800 81 483.14999389648 483.14999389648 39135.149505615 18908147.244776
66681	27133786 2958 217640 220051 1780 1800 81 172.9296875 422.080078125 24312.172851562 7844287.2222122
66692	27136744 1882 218593 220051 1787 1800 53 0.973 11.200708441096 207.65529372959 1378.7550404421
66691	27138626 1871 218593 220051 1787 1800 53 -0.76162338256836 2.5 37.089834213257 106.04708772031
66690	27140497 1984 218562 220051 1786.75 1800 54 5.6500000953674 15.02499961853 725.32576942444 10096.767505285
66689	27142481 2034 218531 220051 1786.5 1800 55 483.14999389648 483.14999389648 26573.249664307 12838865.413119
66688	27144515 2012 218531 220051 1786.5 1800 55 184.17810058594 360.52786254883 14509.494781494 3996411.3402537
66699	27146527 1880 218658 220051 1787.5 1800 51 2.2030765846365 11.484580342815 209.99196166647 1298.0399230965
66698	27148407 1772 218658 220051 1787.5 1800 51 -0.0033111572265625 2.5 39.869146347046 94.666589977514
66697	27150179 1921 218626 220051 1787.25 1800 52 5.6500000953674 15.620594024658 715.97448444366 10314.396467175
66696	27152100 1959 218593 220051 1787 1800 53 483.14999389648 483.14999389648 25606.949676514 12371997.579915
66695	27154059 1942 218593 220051 1787 1800 53 160.43438720703 334.19952392578 12543.218444824 3125698.7583605
66706	27156001 1352 219074 220051 1791 1800 37 0.973 11.648172402475 174.1684911333 1267.5406569457
66705	27157353 1252 219074 220051 1791 1800 37 -0.41465759277344 2.5 38.345304489136 100.39299965761
66704	27158605 1395 219044 220051 1790.75 1800 38 5.6500000953674 15.64999961853 502.23315620422 7000.0204853283
66703	27160000 1439 219013 220051 1790.5 1800 39 665.37910461426 785.82187652588 28631.254981995 21075934.394295
66702	27161439 1442 219013 220051 1790.5 1800 39 483.14999389648 483.14999389648 18842.849761963 9103922.7474847
66713	27162881 73 220023 220051 1799.75 1800 2 5.2162187258585 5.6304533568076 10.846672082666 58.910942799184
66712	27162954 49 220023 220051 1799.75 1800 2 2.5 2.5 5 12.5
66711	27163003 110 219996 220051 1799.5 1800 3 5.6500000953674 6.9000000953674 18.825000286102 118.90812859058
66710	27163113 148 219968 220051 1799.25 1800 4 483.14999389648 483.14999389648 1932.5999755859 933735.66640869
66709	27163261 148 219968 220051 1799.25 1800 4 184.17810058594 187.00311279297 740.87182617188 137228.20185051
61189	27163409 642 0 220050 0 1800 31 0 31 660 14886
61190	27164051 659 0 220050 0 1800 31 0 233 3617 575257
