version 2
run nodebug-43-20200606-10:16:44-21192
attr configname nodebug
attr datetime 20200606-10:16:44
attr experiment nodebug
attr inifile omnetpp.ini
attr iterationvars ""
attr iterationvars2 $repetition=43
attr measurement ""
attr network "\"org.car2x.veins.modules.application.ExtTraCIScenarioManagerLaunchd.IntersectionExampleScenario\""
attr processid 21192
attr repetition 43
attr replication #43
attr resultdir results
attr runnumber 43
attr seedset 43
param **.coreDebug false
param **.debug false
param *.**.nic.mac1609_4.bitrate 18Mbps
param *.**.nic.mac1609_4.txPower 20mW
param *.**.nic.mac1609_4.useServiceChannel false
param *.**.nic.phy80211p.analogueModels "xmldoc(\"config.xml\")"
param *.**.nic.phy80211p.decider "xmldoc(\"config.xml\")"
param *.**.nic.phy80211p.sensitivity -89dBm
param *.**.nic.phy80211p.thermalNoise -110dBm
param *.**.nic.phy80211p.usePropagationDelay true
param *.**.nic.phy80211p.useThermalNoise true
param *.annotations.draw false
param *.connectionManager.alpha 2.0
param *.connectionManager.carrierFrequency "5.890e9 Hz"
param *.connectionManager.pMax 20mW
param *.connectionManager.sat -89dBm
param *.connectionManager.sendDirect true
param *.manager.autoShutdown true
param *.manager.host "\"localhost\""
param *.manager.launchConfig "xmldoc(\"paramics.launchd.xml\")"
param *.manager.margin 25
param *.manager.moduleDisplayString "\"\""
param *.manager.moduleName "\"node\""
param *.manager.moduleType "\"org.car2x.veins.nodes.Car\""
param *.manager.port 9999
param *.manager.updateInterval 250ms
param *.node[*0].veinsmobility.accidentCount 0
param *.node[*0].veinsmobility.accidentDuration 30s
param *.node[*0].veinsmobility.accidentStart 75s
param *.node[*].appl.LiderSelectZoneRadio 55.0
param *.node[*].appl.ShareDataZoneRadio 110.0
param *.node[*].appl.TiempoSemaforo 30.0
param *.node[*].appl.beaconInterval 1s
param *.node[*].appl.beaconPriority 3
param *.node[*].appl.dataOnSch false
param *.node[*].appl.dataPriority 2
param *.node[*].appl.debug false
param *.node[*].appl.headerLength "256 bit"
param *.node[*].appl.maxOffset 0.005s
param *.node[*].appl.sendBeacons false
param *.node[*].appl.sendData true
param *.node[*].applType "\"Dummy\""
param *.node[*].mobilityType "\"TraCIMobility\""
param *.node[*].mobilityType.debug true
param *.node[*].veinsmobility.x 0
param *.node[*].veinsmobility.y 0
param *.node[*].veinsmobility.z 1.895
param *.node[*].veinsmobilityType "\"org.car2x.veins.modules.mobility.traci.TraCIMobility\""
param *.node[*].veinsmobilityType.debug true
param *.playgroundSizeX 8500m
param *.playgroundSizeY 8500m
param *.playgroundSizeZ 50m
param *.world.use2D false
param *.world.useTorus false

scalar IntersectionExampleScenario.node[0].appl 	VehicleRemoved 	0
scalar IntersectionExampleScenario.node[0].appl 	ArrivedAtDest 	1
scalar IntersectionExampleScenario.node[0].appl 	IntersectionEnterTime 	1.25
scalar IntersectionExampleScenario.node[0].appl 	IntersectionExitTime 	24.530073702801
scalar IntersectionExampleScenario.node[0].appl 	NumberOfCollisions 	0
scalar IntersectionExampleScenario.node[0].nic.phy80211p 	busyTime 	0
scalar IntersectionExampleScenario.node[0].nic.mac1609_4 	ReceivedUnicastPackets 	0
scalar IntersectionExampleScenario.node[0].nic.mac1609_4 	ReceivedBroadcasts 	0
scalar IntersectionExampleScenario.node[0].nic.mac1609_4 	SentPackets 	0
scalar IntersectionExampleScenario.node[0].nic.mac1609_4 	SNIRLostPackets 	0
scalar IntersectionExampleScenario.node[0].nic.mac1609_4 	RXTXLostPackets 	0
scalar IntersectionExampleScenario.node[0].nic.mac1609_4 	TotalLostPackets 	0
scalar IntersectionExampleScenario.node[0].nic.mac1609_4 	DroppedPacketsInMac 	0
scalar IntersectionExampleScenario.node[0].nic.mac1609_4 	TooLittleTime 	0
scalar IntersectionExampleScenario.node[0].nic.mac1609_4 	TimesIntoBackoff 	0
scalar IntersectionExampleScenario.node[0].nic.mac1609_4 	SlotsBackoff 	0
scalar IntersectionExampleScenario.node[0].nic.mac1609_4 	NumInternalContention 	0
scalar IntersectionExampleScenario.node[0].nic.mac1609_4 	totalBusyTime 	0
scalar IntersectionExampleScenario.node[0].veinsmobility 	startTime 	1.25
scalar IntersectionExampleScenario.node[0].veinsmobility 	totalTime 	39.5
scalar IntersectionExampleScenario.node[0].veinsmobility 	stopTime 	41
scalar IntersectionExampleScenario.node[0].veinsmobility 	minSpeed 	5.6500000953674
scalar IntersectionExampleScenario.node[0].veinsmobility 	maxSpeed 	15.64999961853
scalar IntersectionExampleScenario.node[0].veinsmobility 	totalDistance 	550.74516096505
scalar IntersectionExampleScenario.node[0].veinsmobility 	totalCO2Emission 	122.88181662431
scalar IntersectionExampleScenario.node[3].appl 	VehicleRemoved 	0
scalar IntersectionExampleScenario.node[3].appl 	ArrivedAtDest 	1
scalar IntersectionExampleScenario.node[3].appl 	IntersectionEnterTime 	9.25
scalar IntersectionExampleScenario.node[3].appl 	IntersectionExitTime 	31.277628623997
scalar IntersectionExampleScenario.node[3].appl 	NumberOfCollisions 	0
scalar IntersectionExampleScenario.node[3].nic.phy80211p 	busyTime 	0
scalar IntersectionExampleScenario.node[3].nic.mac1609_4 	ReceivedUnicastPackets 	0
scalar IntersectionExampleScenario.node[3].nic.mac1609_4 	ReceivedBroadcasts 	0
scalar IntersectionExampleScenario.node[3].nic.mac1609_4 	SentPackets 	0
scalar IntersectionExampleScenario.node[3].nic.mac1609_4 	SNIRLostPackets 	0
scalar IntersectionExampleScenario.node[3].nic.mac1609_4 	RXTXLostPackets 	0
scalar IntersectionExampleScenario.node[3].nic.mac1609_4 	TotalLostPackets 	0
scalar IntersectionExampleScenario.node[3].nic.mac1609_4 	DroppedPacketsInMac 	0
scalar IntersectionExampleScenario.node[3].nic.mac1609_4 	TooLittleTime 	0
scalar IntersectionExampleScenario.node[3].nic.mac1609_4 	TimesIntoBackoff 	0
scalar IntersectionExampleScenario.node[3].nic.mac1609_4 	SlotsBackoff 	0
scalar IntersectionExampleScenario.node[3].nic.mac1609_4 	NumInternalContention 	0
scalar IntersectionExampleScenario.node[3].nic.mac1609_4 	totalBusyTime 	0
scalar IntersectionExampleScenario.node[3].veinsmobility 	startTime 	9.25
scalar IntersectionExampleScenario.node[3].veinsmobility 	totalTime 	37.25
scalar IntersectionExampleScenario.node[3].veinsmobility 	stopTime 	46.75
scalar IntersectionExampleScenario.node[3].veinsmobility 	minSpeed 	5.6500000953674
scalar IntersectionExampleScenario.node[3].veinsmobility 	maxSpeed 	16.27499961853
scalar IntersectionExampleScenario.node[3].veinsmobility 	totalDistance 	552.74192047119
scalar IntersectionExampleScenario.node[3].veinsmobility 	totalCO2Emission 	123.18451461377
scalar IntersectionExampleScenario.node[4].appl 	VehicleRemoved 	0
scalar IntersectionExampleScenario.node[4].appl 	ArrivedAtDest 	1
scalar IntersectionExampleScenario.node[4].appl 	IntersectionEnterTime 	11
scalar IntersectionExampleScenario.node[4].appl 	IntersectionExitTime 	35.105403086462
scalar IntersectionExampleScenario.node[4].appl 	NumberOfCollisions 	0
scalar IntersectionExampleScenario.node[4].nic.phy80211p 	busyTime 	0
scalar IntersectionExampleScenario.node[4].nic.mac1609_4 	ReceivedUnicastPackets 	0
scalar IntersectionExampleScenario.node[4].nic.mac1609_4 	ReceivedBroadcasts 	0
scalar IntersectionExampleScenario.node[4].nic.mac1609_4 	SentPackets 	0
scalar IntersectionExampleScenario.node[4].nic.mac1609_4 	SNIRLostPackets 	0
scalar IntersectionExampleScenario.node[4].nic.mac1609_4 	RXTXLostPackets 	0
scalar IntersectionExampleScenario.node[4].nic.mac1609_4 	TotalLostPackets 	0
scalar IntersectionExampleScenario.node[4].nic.mac1609_4 	DroppedPacketsInMac 	0
scalar IntersectionExampleScenario.node[4].nic.mac1609_4 	TooLittleTime 	0
scalar IntersectionExampleScenario.node[4].nic.mac1609_4 	TimesIntoBackoff 	0
scalar IntersectionExampleScenario.node[4].nic.mac1609_4 	SlotsBackoff 	0
scalar IntersectionExampleScenario.node[4].nic.mac1609_4 	NumInternalContention 	0
scalar IntersectionExampleScenario.node[4].nic.mac1609_4 	totalBusyTime 	0
scalar IntersectionExampleScenario.node[4].veinsmobility 	startTime 	11
scalar IntersectionExampleScenario.node[4].veinsmobility 	totalTime 	40
scalar IntersectionExampleScenario.node[4].veinsmobility 	stopTime 	51.25
scalar IntersectionExampleScenario.node[4].veinsmobility 	minSpeed 	5.6500000953674
scalar IntersectionExampleScenario.node[4].veinsmobility 	maxSpeed 	15.64999961853
scalar IntersectionExampleScenario.node[4].veinsmobility 	totalDistance 	571.94094085693
scalar IntersectionExampleScenario.node[4].veinsmobility 	totalCO2Emission 	119.9359790229
scalar IntersectionExampleScenario.node[5].appl 	VehicleRemoved 	0
scalar IntersectionExampleScenario.node[5].appl 	ArrivedAtDest 	1
scalar IntersectionExampleScenario.node[5].appl 	IntersectionEnterTime 	12
scalar IntersectionExampleScenario.node[5].appl 	IntersectionExitTime 	35.36931101582
scalar IntersectionExampleScenario.node[5].appl 	NumberOfCollisions 	0
scalar IntersectionExampleScenario.node[5].nic.phy80211p 	busyTime 	0
scalar IntersectionExampleScenario.node[5].nic.mac1609_4 	ReceivedUnicastPackets 	0
scalar IntersectionExampleScenario.node[5].nic.mac1609_4 	ReceivedBroadcasts 	0
scalar IntersectionExampleScenario.node[5].nic.mac1609_4 	SentPackets 	0
scalar IntersectionExampleScenario.node[5].nic.mac1609_4 	SNIRLostPackets 	0
scalar IntersectionExampleScenario.node[5].nic.mac1609_4 	RXTXLostPackets 	0
scalar IntersectionExampleScenario.node[5].nic.mac1609_4 	TotalLostPackets 	0
scalar IntersectionExampleScenario.node[5].nic.mac1609_4 	DroppedPacketsInMac 	0
scalar IntersectionExampleScenario.node[5].nic.mac1609_4 	TooLittleTime 	0
scalar IntersectionExampleScenario.node[5].nic.mac1609_4 	TimesIntoBackoff 	0
scalar IntersectionExampleScenario.node[5].nic.mac1609_4 	SlotsBackoff 	0
scalar IntersectionExampleScenario.node[5].nic.mac1609_4 	NumInternalContention 	0
scalar IntersectionExampleScenario.node[5].nic.mac1609_4 	totalBusyTime 	0
scalar IntersectionExampleScenario.node[5].veinsmobility 	startTime 	12
scalar IntersectionExampleScenario.node[5].veinsmobility 	totalTime 	40
scalar IntersectionExampleScenario.node[5].veinsmobility 	stopTime 	52.25
scalar IntersectionExampleScenario.node[5].veinsmobility 	minSpeed 	5.6500000953674
scalar IntersectionExampleScenario.node[5].veinsmobility 	maxSpeed 	15.875
scalar IntersectionExampleScenario.node[5].veinsmobility 	totalDistance 	545.62880204242
scalar IntersectionExampleScenario.node[5].veinsmobility 	totalCO2Emission 	127.12384671915
scalar IntersectionExampleScenario.node[1].appl 	VehicleRemoved 	0
scalar IntersectionExampleScenario.node[1].appl 	ArrivedAtDest 	1
scalar IntersectionExampleScenario.node[1].appl 	IntersectionEnterTime 	3
scalar IntersectionExampleScenario.node[1].appl 	IntersectionExitTime 	40.317645276635
scalar IntersectionExampleScenario.node[1].appl 	NumberOfCollisions 	0
scalar IntersectionExampleScenario.node[1].nic.phy80211p 	busyTime 	0
scalar IntersectionExampleScenario.node[1].nic.mac1609_4 	ReceivedUnicastPackets 	0
scalar IntersectionExampleScenario.node[1].nic.mac1609_4 	ReceivedBroadcasts 	0
scalar IntersectionExampleScenario.node[1].nic.mac1609_4 	SentPackets 	0
scalar IntersectionExampleScenario.node[1].nic.mac1609_4 	SNIRLostPackets 	0
scalar IntersectionExampleScenario.node[1].nic.mac1609_4 	RXTXLostPackets 	0
scalar IntersectionExampleScenario.node[1].nic.mac1609_4 	TotalLostPackets 	0
scalar IntersectionExampleScenario.node[1].nic.mac1609_4 	DroppedPacketsInMac 	0
scalar IntersectionExampleScenario.node[1].nic.mac1609_4 	TooLittleTime 	0
scalar IntersectionExampleScenario.node[1].nic.mac1609_4 	TimesIntoBackoff 	0
scalar IntersectionExampleScenario.node[1].nic.mac1609_4 	SlotsBackoff 	0
scalar IntersectionExampleScenario.node[1].nic.mac1609_4 	NumInternalContention 	0
scalar IntersectionExampleScenario.node[1].nic.mac1609_4 	totalBusyTime 	0
scalar IntersectionExampleScenario.node[1].veinsmobility 	startTime 	3
scalar IntersectionExampleScenario.node[1].veinsmobility 	totalTime 	53.5
scalar IntersectionExampleScenario.node[1].veinsmobility 	stopTime 	56.75
scalar IntersectionExampleScenario.node[1].veinsmobility 	minSpeed 	0
scalar IntersectionExampleScenario.node[1].veinsmobility 	maxSpeed 	15.375
scalar IntersectionExampleScenario.node[1].veinsmobility 	totalDistance 	552.79929351807
scalar IntersectionExampleScenario.node[1].veinsmobility 	totalCO2Emission 	143.71291206543
scalar IntersectionExampleScenario.node[2].appl 	VehicleRemoved 	0
scalar IntersectionExampleScenario.node[2].appl 	ArrivedAtDest 	1
scalar IntersectionExampleScenario.node[2].appl 	IntersectionEnterTime 	5.5
scalar IntersectionExampleScenario.node[2].appl 	IntersectionExitTime 	42.600255889847
scalar IntersectionExampleScenario.node[2].appl 	NumberOfCollisions 	0
scalar IntersectionExampleScenario.node[2].nic.phy80211p 	busyTime 	0
scalar IntersectionExampleScenario.node[2].nic.mac1609_4 	ReceivedUnicastPackets 	0
scalar IntersectionExampleScenario.node[2].nic.mac1609_4 	ReceivedBroadcasts 	0
scalar IntersectionExampleScenario.node[2].nic.mac1609_4 	SentPackets 	0
scalar IntersectionExampleScenario.node[2].nic.mac1609_4 	SNIRLostPackets 	0
scalar IntersectionExampleScenario.node[2].nic.mac1609_4 	RXTXLostPackets 	0
scalar IntersectionExampleScenario.node[2].nic.mac1609_4 	TotalLostPackets 	0
scalar IntersectionExampleScenario.node[2].nic.mac1609_4 	DroppedPacketsInMac 	0
scalar IntersectionExampleScenario.node[2].nic.mac1609_4 	TooLittleTime 	0
scalar IntersectionExampleScenario.node[2].nic.mac1609_4 	TimesIntoBackoff 	0
scalar IntersectionExampleScenario.node[2].nic.mac1609_4 	SlotsBackoff 	0
scalar IntersectionExampleScenario.node[2].nic.mac1609_4 	NumInternalContention 	0
scalar IntersectionExampleScenario.node[2].nic.mac1609_4 	totalBusyTime 	0
scalar IntersectionExampleScenario.node[2].veinsmobility 	startTime 	5.5
scalar IntersectionExampleScenario.node[2].veinsmobility 	totalTime 	53
scalar IntersectionExampleScenario.node[2].veinsmobility 	stopTime 	58.75
scalar IntersectionExampleScenario.node[2].veinsmobility 	minSpeed 	0
scalar IntersectionExampleScenario.node[2].veinsmobility 	maxSpeed 	15.440425872803
scalar IntersectionExampleScenario.node[2].veinsmobility 	totalDistance 	568.38896179199
scalar IntersectionExampleScenario.node[2].veinsmobility 	totalCO2Emission 	146.64455283887
scalar IntersectionExampleScenario.node[6].appl 	VehicleRemoved 	0
scalar IntersectionExampleScenario.node[6].appl 	ArrivedAtDest 	1
scalar IntersectionExampleScenario.node[6].appl 	IntersectionEnterTime 	12.5
scalar IntersectionExampleScenario.node[6].appl 	IntersectionExitTime 	44.362137322925
scalar IntersectionExampleScenario.node[6].appl 	NumberOfCollisions 	0
scalar IntersectionExampleScenario.node[6].nic.phy80211p 	busyTime 	0
scalar IntersectionExampleScenario.node[6].nic.mac1609_4 	ReceivedUnicastPackets 	0
scalar IntersectionExampleScenario.node[6].nic.mac1609_4 	ReceivedBroadcasts 	0
scalar IntersectionExampleScenario.node[6].nic.mac1609_4 	SentPackets 	0
scalar IntersectionExampleScenario.node[6].nic.mac1609_4 	SNIRLostPackets 	0
scalar IntersectionExampleScenario.node[6].nic.mac1609_4 	RXTXLostPackets 	0
scalar IntersectionExampleScenario.node[6].nic.mac1609_4 	TotalLostPackets 	0
scalar IntersectionExampleScenario.node[6].nic.mac1609_4 	DroppedPacketsInMac 	0
scalar IntersectionExampleScenario.node[6].nic.mac1609_4 	TooLittleTime 	0
scalar IntersectionExampleScenario.node[6].nic.mac1609_4 	TimesIntoBackoff 	0
scalar IntersectionExampleScenario.node[6].nic.mac1609_4 	SlotsBackoff 	0
scalar IntersectionExampleScenario.node[6].nic.mac1609_4 	NumInternalContention 	0
scalar IntersectionExampleScenario.node[6].nic.mac1609_4 	totalBusyTime 	0
scalar IntersectionExampleScenario.node[6].veinsmobility 	startTime 	12.5
scalar IntersectionExampleScenario.node[6].veinsmobility 	totalTime 	48.5
scalar IntersectionExampleScenario.node[6].veinsmobility 	stopTime 	61.25
scalar IntersectionExampleScenario.node[6].veinsmobility 	minSpeed 	2.5889446735382
scalar IntersectionExampleScenario.node[6].veinsmobility 	maxSpeed 	15.64999961853
scalar IntersectionExampleScenario.node[6].veinsmobility 	totalDistance 	544.87612631903
scalar IntersectionExampleScenario.node[6].veinsmobility 	totalCO2Emission 	139.18163010142
scalar IntersectionExampleScenario.node[9].appl 	VehicleRemoved 	0
scalar IntersectionExampleScenario.node[9].appl 	ArrivedAtDest 	1
scalar IntersectionExampleScenario.node[9].appl 	IntersectionEnterTime 	22
scalar IntersectionExampleScenario.node[9].appl 	IntersectionExitTime 	45.522614324087
scalar IntersectionExampleScenario.node[9].appl 	NumberOfCollisions 	0
scalar IntersectionExampleScenario.node[9].nic.phy80211p 	busyTime 	0
scalar IntersectionExampleScenario.node[9].nic.mac1609_4 	ReceivedUnicastPackets 	0
scalar IntersectionExampleScenario.node[9].nic.mac1609_4 	ReceivedBroadcasts 	0
scalar IntersectionExampleScenario.node[9].nic.mac1609_4 	SentPackets 	0
scalar IntersectionExampleScenario.node[9].nic.mac1609_4 	SNIRLostPackets 	0
scalar IntersectionExampleScenario.node[9].nic.mac1609_4 	RXTXLostPackets 	0
scalar IntersectionExampleScenario.node[9].nic.mac1609_4 	TotalLostPackets 	0
scalar IntersectionExampleScenario.node[9].nic.mac1609_4 	DroppedPacketsInMac 	0
scalar IntersectionExampleScenario.node[9].nic.mac1609_4 	TooLittleTime 	0
scalar IntersectionExampleScenario.node[9].nic.mac1609_4 	TimesIntoBackoff 	0
scalar IntersectionExampleScenario.node[9].nic.mac1609_4 	SlotsBackoff 	0
scalar IntersectionExampleScenario.node[9].nic.mac1609_4 	NumInternalContention 	0
scalar IntersectionExampleScenario.node[9].nic.mac1609_4 	totalBusyTime 	0
scalar IntersectionExampleScenario.node[9].veinsmobility 	startTime 	22
scalar IntersectionExampleScenario.node[9].veinsmobility 	totalTime 	40
scalar IntersectionExampleScenario.node[9].veinsmobility 	stopTime 	62.25
scalar IntersectionExampleScenario.node[9].veinsmobility 	minSpeed 	5.6500000953674
scalar IntersectionExampleScenario.node[9].veinsmobility 	maxSpeed 	15.02499961853
scalar IntersectionExampleScenario.node[9].veinsmobility 	totalDistance 	553.0140838623
scalar IntersectionExampleScenario.node[9].veinsmobility 	totalCO2Emission 	114.18256448094
scalar IntersectionExampleScenario.node[17].appl 	VehicleRemoved 	0
scalar IntersectionExampleScenario.node[17].appl 	ArrivedAtDest 	1
scalar IntersectionExampleScenario.node[17].appl 	IntersectionEnterTime 	33.75
scalar IntersectionExampleScenario.node[17].appl 	IntersectionExitTime 	56.554152791126
scalar IntersectionExampleScenario.node[17].appl 	NumberOfCollisions 	0
scalar IntersectionExampleScenario.node[17].nic.phy80211p 	busyTime 	0
scalar IntersectionExampleScenario.node[17].nic.mac1609_4 	ReceivedUnicastPackets 	0
scalar IntersectionExampleScenario.node[17].nic.mac1609_4 	ReceivedBroadcasts 	0
scalar IntersectionExampleScenario.node[17].nic.mac1609_4 	SentPackets 	0
scalar IntersectionExampleScenario.node[17].nic.mac1609_4 	SNIRLostPackets 	0
scalar IntersectionExampleScenario.node[17].nic.mac1609_4 	RXTXLostPackets 	0
scalar IntersectionExampleScenario.node[17].nic.mac1609_4 	TotalLostPackets 	0
scalar IntersectionExampleScenario.node[17].nic.mac1609_4 	DroppedPacketsInMac 	0
scalar IntersectionExampleScenario.node[17].nic.mac1609_4 	TooLittleTime 	0
scalar IntersectionExampleScenario.node[17].nic.mac1609_4 	TimesIntoBackoff 	0
scalar IntersectionExampleScenario.node[17].nic.mac1609_4 	SlotsBackoff 	0
scalar IntersectionExampleScenario.node[17].nic.mac1609_4 	NumInternalContention 	0
scalar IntersectionExampleScenario.node[17].nic.mac1609_4 	totalBusyTime 	0
scalar IntersectionExampleScenario.node[17].veinsmobility 	startTime 	33.75
scalar IntersectionExampleScenario.node[17].veinsmobility 	totalTime 	38.75
scalar IntersectionExampleScenario.node[17].veinsmobility 	stopTime 	72.75
scalar IntersectionExampleScenario.node[17].veinsmobility 	minSpeed 	5.6500000953674
scalar IntersectionExampleScenario.node[17].veinsmobility 	maxSpeed 	15.64999961853
scalar IntersectionExampleScenario.node[17].veinsmobility 	totalDistance 	552.8963394165
scalar IntersectionExampleScenario.node[17].veinsmobility 	totalCO2Emission 	117.69084027776
scalar IntersectionExampleScenario.node[18].appl 	VehicleRemoved 	0
scalar IntersectionExampleScenario.node[18].appl 	ArrivedAtDest 	1
scalar IntersectionExampleScenario.node[18].appl 	IntersectionEnterTime 	37.75
scalar IntersectionExampleScenario.node[18].appl 	IntersectionExitTime 	61.616252858046
scalar IntersectionExampleScenario.node[18].appl 	NumberOfCollisions 	0
scalar IntersectionExampleScenario.node[18].nic.phy80211p 	busyTime 	0
scalar IntersectionExampleScenario.node[18].nic.mac1609_4 	ReceivedUnicastPackets 	0
scalar IntersectionExampleScenario.node[18].nic.mac1609_4 	ReceivedBroadcasts 	0
scalar IntersectionExampleScenario.node[18].nic.mac1609_4 	SentPackets 	0
scalar IntersectionExampleScenario.node[18].nic.mac1609_4 	SNIRLostPackets 	0
scalar IntersectionExampleScenario.node[18].nic.mac1609_4 	RXTXLostPackets 	0
scalar IntersectionExampleScenario.node[18].nic.mac1609_4 	TotalLostPackets 	0
scalar IntersectionExampleScenario.node[18].nic.mac1609_4 	DroppedPacketsInMac 	0
scalar IntersectionExampleScenario.node[18].nic.mac1609_4 	TooLittleTime 	0
scalar IntersectionExampleScenario.node[18].nic.mac1609_4 	TimesIntoBackoff 	0
scalar IntersectionExampleScenario.node[18].nic.mac1609_4 	SlotsBackoff 	0
scalar IntersectionExampleScenario.node[18].nic.mac1609_4 	NumInternalContention 	0
scalar IntersectionExampleScenario.node[18].nic.mac1609_4 	totalBusyTime 	0
scalar IntersectionExampleScenario.node[18].veinsmobility 	startTime 	37.75
scalar IntersectionExampleScenario.node[18].veinsmobility 	totalTime 	40.75
scalar IntersectionExampleScenario.node[18].veinsmobility 	stopTime 	78.75
scalar IntersectionExampleScenario.node[18].veinsmobility 	minSpeed 	5.6500000953674
scalar IntersectionExampleScenario.node[18].veinsmobility 	maxSpeed 	15.25
scalar IntersectionExampleScenario.node[18].veinsmobility 	totalDistance 	545.00399096786
scalar IntersectionExampleScenario.node[18].veinsmobility 	totalCO2Emission 	124.51165240541
scalar IntersectionExampleScenario.node[20].appl 	VehicleRemoved 	0
scalar IntersectionExampleScenario.node[20].appl 	ArrivedAtDest 	1
scalar IntersectionExampleScenario.node[20].appl 	IntersectionEnterTime 	39.5
scalar IntersectionExampleScenario.node[20].appl 	IntersectionExitTime 	64.624837280804
scalar IntersectionExampleScenario.node[20].appl 	NumberOfCollisions 	0
scalar IntersectionExampleScenario.node[20].nic.phy80211p 	busyTime 	0
scalar IntersectionExampleScenario.node[20].nic.mac1609_4 	ReceivedUnicastPackets 	0
scalar IntersectionExampleScenario.node[20].nic.mac1609_4 	ReceivedBroadcasts 	0
scalar IntersectionExampleScenario.node[20].nic.mac1609_4 	SentPackets 	0
scalar IntersectionExampleScenario.node[20].nic.mac1609_4 	SNIRLostPackets 	0
scalar IntersectionExampleScenario.node[20].nic.mac1609_4 	RXTXLostPackets 	0
scalar IntersectionExampleScenario.node[20].nic.mac1609_4 	TotalLostPackets 	0
scalar IntersectionExampleScenario.node[20].nic.mac1609_4 	DroppedPacketsInMac 	0
scalar IntersectionExampleScenario.node[20].nic.mac1609_4 	TooLittleTime 	0
scalar IntersectionExampleScenario.node[20].nic.mac1609_4 	TimesIntoBackoff 	0
scalar IntersectionExampleScenario.node[20].nic.mac1609_4 	SlotsBackoff 	0
scalar IntersectionExampleScenario.node[20].nic.mac1609_4 	NumInternalContention 	0
scalar IntersectionExampleScenario.node[20].nic.mac1609_4 	totalBusyTime 	0
scalar IntersectionExampleScenario.node[20].veinsmobility 	startTime 	39.5
scalar IntersectionExampleScenario.node[20].veinsmobility 	totalTime 	41.75
scalar IntersectionExampleScenario.node[20].veinsmobility 	stopTime 	81.5
scalar IntersectionExampleScenario.node[20].veinsmobility 	minSpeed 	5.6500000953674
scalar IntersectionExampleScenario.node[20].veinsmobility 	maxSpeed 	15.320804595947
scalar IntersectionExampleScenario.node[20].veinsmobility 	totalDistance 	564.44970470077
scalar IntersectionExampleScenario.node[20].veinsmobility 	totalCO2Emission 	128.4785885985
scalar IntersectionExampleScenario.node[7].appl 	VehicleRemoved 	0
scalar IntersectionExampleScenario.node[7].appl 	ArrivedAtDest 	1
scalar IntersectionExampleScenario.node[7].appl 	IntersectionEnterTime 	19.25
scalar IntersectionExampleScenario.node[7].appl 	IntersectionExitTime 	65.567900314461
scalar IntersectionExampleScenario.node[7].appl 	NumberOfCollisions 	0
scalar IntersectionExampleScenario.node[7].nic.phy80211p 	busyTime 	0
scalar IntersectionExampleScenario.node[7].nic.mac1609_4 	ReceivedUnicastPackets 	0
scalar IntersectionExampleScenario.node[7].nic.mac1609_4 	ReceivedBroadcasts 	0
scalar IntersectionExampleScenario.node[7].nic.mac1609_4 	SentPackets 	0
scalar IntersectionExampleScenario.node[7].nic.mac1609_4 	SNIRLostPackets 	0
scalar IntersectionExampleScenario.node[7].nic.mac1609_4 	RXTXLostPackets 	0
scalar IntersectionExampleScenario.node[7].nic.mac1609_4 	TotalLostPackets 	0
scalar IntersectionExampleScenario.node[7].nic.mac1609_4 	DroppedPacketsInMac 	0
scalar IntersectionExampleScenario.node[7].nic.mac1609_4 	TooLittleTime 	0
scalar IntersectionExampleScenario.node[7].nic.mac1609_4 	TimesIntoBackoff 	0
scalar IntersectionExampleScenario.node[7].nic.mac1609_4 	SlotsBackoff 	0
scalar IntersectionExampleScenario.node[7].nic.mac1609_4 	NumInternalContention 	0
scalar IntersectionExampleScenario.node[7].nic.mac1609_4 	totalBusyTime 	0
scalar IntersectionExampleScenario.node[7].veinsmobility 	startTime 	19.25
scalar IntersectionExampleScenario.node[7].veinsmobility 	totalTime 	62.25
scalar IntersectionExampleScenario.node[7].veinsmobility 	stopTime 	81.75
scalar IntersectionExampleScenario.node[7].veinsmobility 	minSpeed 	0
scalar IntersectionExampleScenario.node[7].veinsmobility 	maxSpeed 	16.5
scalar IntersectionExampleScenario.node[7].veinsmobility 	totalDistance 	543.05305386931
scalar IntersectionExampleScenario.node[7].veinsmobility 	totalCO2Emission 	160.07614017958
scalar IntersectionExampleScenario.node[10].appl 	VehicleRemoved 	0
scalar IntersectionExampleScenario.node[10].appl 	ArrivedAtDest 	1
scalar IntersectionExampleScenario.node[10].appl 	IntersectionEnterTime 	24.25
scalar IntersectionExampleScenario.node[10].appl 	IntersectionExitTime 	65.576124738989
scalar IntersectionExampleScenario.node[10].appl 	NumberOfCollisions 	0
scalar IntersectionExampleScenario.node[10].nic.phy80211p 	busyTime 	0
scalar IntersectionExampleScenario.node[10].nic.mac1609_4 	ReceivedUnicastPackets 	0
scalar IntersectionExampleScenario.node[10].nic.mac1609_4 	ReceivedBroadcasts 	0
scalar IntersectionExampleScenario.node[10].nic.mac1609_4 	SentPackets 	0
scalar IntersectionExampleScenario.node[10].nic.mac1609_4 	SNIRLostPackets 	0
scalar IntersectionExampleScenario.node[10].nic.mac1609_4 	RXTXLostPackets 	0
scalar IntersectionExampleScenario.node[10].nic.mac1609_4 	TotalLostPackets 	0
scalar IntersectionExampleScenario.node[10].nic.mac1609_4 	DroppedPacketsInMac 	0
scalar IntersectionExampleScenario.node[10].nic.mac1609_4 	TooLittleTime 	0
scalar IntersectionExampleScenario.node[10].nic.mac1609_4 	TimesIntoBackoff 	0
scalar IntersectionExampleScenario.node[10].nic.mac1609_4 	SlotsBackoff 	0
scalar IntersectionExampleScenario.node[10].nic.mac1609_4 	NumInternalContention 	0
scalar IntersectionExampleScenario.node[10].nic.mac1609_4 	totalBusyTime 	0
scalar IntersectionExampleScenario.node[10].veinsmobility 	startTime 	24.25
scalar IntersectionExampleScenario.node[10].veinsmobility 	totalTime 	57.5
scalar IntersectionExampleScenario.node[10].veinsmobility 	stopTime 	82
scalar IntersectionExampleScenario.node[10].veinsmobility 	minSpeed 	0
scalar IntersectionExampleScenario.node[10].veinsmobility 	maxSpeed 	16.27499961853
scalar IntersectionExampleScenario.node[10].veinsmobility 	totalDistance 	543.92607785613
scalar IntersectionExampleScenario.node[10].veinsmobility 	totalCO2Emission 	156.31909462537
scalar IntersectionExampleScenario.node[13].appl 	VehicleRemoved 	0
scalar IntersectionExampleScenario.node[13].appl 	ArrivedAtDest 	1
scalar IntersectionExampleScenario.node[13].appl 	IntersectionEnterTime 	30.5
scalar IntersectionExampleScenario.node[13].appl 	IntersectionExitTime 	67.820653208066
scalar IntersectionExampleScenario.node[13].appl 	NumberOfCollisions 	0
scalar IntersectionExampleScenario.node[13].nic.phy80211p 	busyTime 	0
scalar IntersectionExampleScenario.node[13].nic.mac1609_4 	ReceivedUnicastPackets 	0
scalar IntersectionExampleScenario.node[13].nic.mac1609_4 	ReceivedBroadcasts 	0
scalar IntersectionExampleScenario.node[13].nic.mac1609_4 	SentPackets 	0
scalar IntersectionExampleScenario.node[13].nic.mac1609_4 	SNIRLostPackets 	0
scalar IntersectionExampleScenario.node[13].nic.mac1609_4 	RXTXLostPackets 	0
scalar IntersectionExampleScenario.node[13].nic.mac1609_4 	TotalLostPackets 	0
scalar IntersectionExampleScenario.node[13].nic.mac1609_4 	DroppedPacketsInMac 	0
scalar IntersectionExampleScenario.node[13].nic.mac1609_4 	TooLittleTime 	0
scalar IntersectionExampleScenario.node[13].nic.mac1609_4 	TimesIntoBackoff 	0
scalar IntersectionExampleScenario.node[13].nic.mac1609_4 	SlotsBackoff 	0
scalar IntersectionExampleScenario.node[13].nic.mac1609_4 	NumInternalContention 	0
scalar IntersectionExampleScenario.node[13].nic.mac1609_4 	totalBusyTime 	0
scalar IntersectionExampleScenario.node[13].veinsmobility 	startTime 	30.5
scalar IntersectionExampleScenario.node[13].veinsmobility 	totalTime 	53.5
scalar IntersectionExampleScenario.node[13].veinsmobility 	stopTime 	84.25
scalar IntersectionExampleScenario.node[13].veinsmobility 	minSpeed 	0
scalar IntersectionExampleScenario.node[13].veinsmobility 	maxSpeed 	15.64999961853
scalar IntersectionExampleScenario.node[13].veinsmobility 	totalDistance 	520.62444260583
scalar IntersectionExampleScenario.node[13].veinsmobility 	totalCO2Emission 	142.35160153491
scalar IntersectionExampleScenario.node[11].appl 	VehicleRemoved 	0
scalar IntersectionExampleScenario.node[11].appl 	ArrivedAtDest 	1
scalar IntersectionExampleScenario.node[11].appl 	IntersectionEnterTime 	28.25
scalar IntersectionExampleScenario.node[11].appl 	IntersectionExitTime 	69.516852716653
scalar IntersectionExampleScenario.node[11].appl 	NumberOfCollisions 	0
scalar IntersectionExampleScenario.node[11].nic.phy80211p 	busyTime 	0
scalar IntersectionExampleScenario.node[11].nic.mac1609_4 	ReceivedUnicastPackets 	0
scalar IntersectionExampleScenario.node[11].nic.mac1609_4 	ReceivedBroadcasts 	0
scalar IntersectionExampleScenario.node[11].nic.mac1609_4 	SentPackets 	0
scalar IntersectionExampleScenario.node[11].nic.mac1609_4 	SNIRLostPackets 	0
scalar IntersectionExampleScenario.node[11].nic.mac1609_4 	RXTXLostPackets 	0
scalar IntersectionExampleScenario.node[11].nic.mac1609_4 	TotalLostPackets 	0
scalar IntersectionExampleScenario.node[11].nic.mac1609_4 	DroppedPacketsInMac 	0
scalar IntersectionExampleScenario.node[11].nic.mac1609_4 	TooLittleTime 	0
scalar IntersectionExampleScenario.node[11].nic.mac1609_4 	TimesIntoBackoff 	0
scalar IntersectionExampleScenario.node[11].nic.mac1609_4 	SlotsBackoff 	0
scalar IntersectionExampleScenario.node[11].nic.mac1609_4 	NumInternalContention 	0
scalar IntersectionExampleScenario.node[11].nic.mac1609_4 	totalBusyTime 	0
scalar IntersectionExampleScenario.node[11].veinsmobility 	startTime 	28.25
scalar IntersectionExampleScenario.node[11].veinsmobility 	totalTime 	57
scalar IntersectionExampleScenario.node[11].veinsmobility 	stopTime 	85.5
scalar IntersectionExampleScenario.node[11].veinsmobility 	minSpeed 	0
scalar IntersectionExampleScenario.node[11].veinsmobility 	maxSpeed 	15.5
scalar IntersectionExampleScenario.node[11].veinsmobility 	totalDistance 	557.69920349121
scalar IntersectionExampleScenario.node[11].veinsmobility 	totalCO2Emission 	154.66891247672
scalar IntersectionExampleScenario.node[8].appl 	VehicleRemoved 	0
scalar IntersectionExampleScenario.node[8].appl 	ArrivedAtDest 	1
scalar IntersectionExampleScenario.node[8].appl 	IntersectionEnterTime 	20.5
scalar IntersectionExampleScenario.node[8].appl 	IntersectionExitTime 	70.113582844206
scalar IntersectionExampleScenario.node[8].appl 	NumberOfCollisions 	0
scalar IntersectionExampleScenario.node[8].nic.phy80211p 	busyTime 	0
scalar IntersectionExampleScenario.node[8].nic.mac1609_4 	ReceivedUnicastPackets 	0
scalar IntersectionExampleScenario.node[8].nic.mac1609_4 	ReceivedBroadcasts 	0
scalar IntersectionExampleScenario.node[8].nic.mac1609_4 	SentPackets 	0
scalar IntersectionExampleScenario.node[8].nic.mac1609_4 	SNIRLostPackets 	0
scalar IntersectionExampleScenario.node[8].nic.mac1609_4 	RXTXLostPackets 	0
scalar IntersectionExampleScenario.node[8].nic.mac1609_4 	TotalLostPackets 	0
scalar IntersectionExampleScenario.node[8].nic.mac1609_4 	DroppedPacketsInMac 	0
scalar IntersectionExampleScenario.node[8].nic.mac1609_4 	TooLittleTime 	0
scalar IntersectionExampleScenario.node[8].nic.mac1609_4 	TimesIntoBackoff 	0
scalar IntersectionExampleScenario.node[8].nic.mac1609_4 	SlotsBackoff 	0
scalar IntersectionExampleScenario.node[8].nic.mac1609_4 	NumInternalContention 	0
scalar IntersectionExampleScenario.node[8].nic.mac1609_4 	totalBusyTime 	0
scalar IntersectionExampleScenario.node[8].veinsmobility 	startTime 	20.5
scalar IntersectionExampleScenario.node[8].veinsmobility 	totalTime 	66
scalar IntersectionExampleScenario.node[8].veinsmobility 	stopTime 	86.75
scalar IntersectionExampleScenario.node[8].veinsmobility 	minSpeed 	0
scalar IntersectionExampleScenario.node[8].veinsmobility 	maxSpeed 	15.875
scalar IntersectionExampleScenario.node[8].veinsmobility 	totalDistance 	566.58193599933
scalar IntersectionExampleScenario.node[8].veinsmobility 	totalCO2Emission 	164.47380364068
scalar IntersectionExampleScenario.node[16].appl 	VehicleRemoved 	0
scalar IntersectionExampleScenario.node[16].appl 	ArrivedAtDest 	1
scalar IntersectionExampleScenario.node[16].appl 	IntersectionEnterTime 	33
scalar IntersectionExampleScenario.node[16].appl 	IntersectionExitTime 	72.587129538268
scalar IntersectionExampleScenario.node[16].appl 	NumberOfCollisions 	0
scalar IntersectionExampleScenario.node[16].nic.phy80211p 	busyTime 	0
scalar IntersectionExampleScenario.node[16].nic.mac1609_4 	ReceivedUnicastPackets 	0
scalar IntersectionExampleScenario.node[16].nic.mac1609_4 	ReceivedBroadcasts 	0
scalar IntersectionExampleScenario.node[16].nic.mac1609_4 	SentPackets 	0
scalar IntersectionExampleScenario.node[16].nic.mac1609_4 	SNIRLostPackets 	0
scalar IntersectionExampleScenario.node[16].nic.mac1609_4 	RXTXLostPackets 	0
scalar IntersectionExampleScenario.node[16].nic.mac1609_4 	TotalLostPackets 	0
scalar IntersectionExampleScenario.node[16].nic.mac1609_4 	DroppedPacketsInMac 	0
scalar IntersectionExampleScenario.node[16].nic.mac1609_4 	TooLittleTime 	0
scalar IntersectionExampleScenario.node[16].nic.mac1609_4 	TimesIntoBackoff 	0
scalar IntersectionExampleScenario.node[16].nic.mac1609_4 	SlotsBackoff 	0
scalar IntersectionExampleScenario.node[16].nic.mac1609_4 	NumInternalContention 	0
scalar IntersectionExampleScenario.node[16].nic.mac1609_4 	totalBusyTime 	0
scalar IntersectionExampleScenario.node[16].veinsmobility 	startTime 	33
scalar IntersectionExampleScenario.node[16].veinsmobility 	totalTime 	56
scalar IntersectionExampleScenario.node[16].veinsmobility 	stopTime 	89.25
scalar IntersectionExampleScenario.node[16].veinsmobility 	minSpeed 	0
scalar IntersectionExampleScenario.node[16].veinsmobility 	maxSpeed 	15.875
scalar IntersectionExampleScenario.node[16].veinsmobility 	totalDistance 	513.59330451154
scalar IntersectionExampleScenario.node[16].veinsmobility 	totalCO2Emission 	143.7204738144
scalar IntersectionExampleScenario.node[12].appl 	VehicleRemoved 	0
scalar IntersectionExampleScenario.node[12].appl 	ArrivedAtDest 	1
scalar IntersectionExampleScenario.node[12].appl 	IntersectionEnterTime 	30.25
scalar IntersectionExampleScenario.node[12].appl 	IntersectionExitTime 	72.038494570734
scalar IntersectionExampleScenario.node[12].appl 	NumberOfCollisions 	0
scalar IntersectionExampleScenario.node[12].nic.phy80211p 	busyTime 	0
scalar IntersectionExampleScenario.node[12].nic.mac1609_4 	ReceivedUnicastPackets 	0
scalar IntersectionExampleScenario.node[12].nic.mac1609_4 	ReceivedBroadcasts 	0
scalar IntersectionExampleScenario.node[12].nic.mac1609_4 	SentPackets 	0
scalar IntersectionExampleScenario.node[12].nic.mac1609_4 	SNIRLostPackets 	0
scalar IntersectionExampleScenario.node[12].nic.mac1609_4 	RXTXLostPackets 	0
scalar IntersectionExampleScenario.node[12].nic.mac1609_4 	TotalLostPackets 	0
scalar IntersectionExampleScenario.node[12].nic.mac1609_4 	DroppedPacketsInMac 	0
scalar IntersectionExampleScenario.node[12].nic.mac1609_4 	TooLittleTime 	0
scalar IntersectionExampleScenario.node[12].nic.mac1609_4 	TimesIntoBackoff 	0
scalar IntersectionExampleScenario.node[12].nic.mac1609_4 	SlotsBackoff 	0
scalar IntersectionExampleScenario.node[12].nic.mac1609_4 	NumInternalContention 	0
scalar IntersectionExampleScenario.node[12].nic.mac1609_4 	totalBusyTime 	0
scalar IntersectionExampleScenario.node[12].veinsmobility 	startTime 	30.25
scalar IntersectionExampleScenario.node[12].veinsmobility 	totalTime 	59.25
scalar IntersectionExampleScenario.node[12].veinsmobility 	stopTime 	89.75
scalar IntersectionExampleScenario.node[12].veinsmobility 	minSpeed 	0
scalar IntersectionExampleScenario.node[12].veinsmobility 	maxSpeed 	14.625
scalar IntersectionExampleScenario.node[12].veinsmobility 	totalDistance 	564.13808577259
scalar IntersectionExampleScenario.node[12].veinsmobility 	totalCO2Emission 	147.90950604637
scalar IntersectionExampleScenario.node[14].appl 	VehicleRemoved 	0
scalar IntersectionExampleScenario.node[14].appl 	ArrivedAtDest 	1
scalar IntersectionExampleScenario.node[14].appl 	IntersectionEnterTime 	31.5
scalar IntersectionExampleScenario.node[14].appl 	IntersectionExitTime 	74.500045203575
scalar IntersectionExampleScenario.node[14].appl 	NumberOfCollisions 	0
scalar IntersectionExampleScenario.node[14].nic.phy80211p 	busyTime 	0
scalar IntersectionExampleScenario.node[14].nic.mac1609_4 	ReceivedUnicastPackets 	0
scalar IntersectionExampleScenario.node[14].nic.mac1609_4 	ReceivedBroadcasts 	0
scalar IntersectionExampleScenario.node[14].nic.mac1609_4 	SentPackets 	0
scalar IntersectionExampleScenario.node[14].nic.mac1609_4 	SNIRLostPackets 	0
scalar IntersectionExampleScenario.node[14].nic.mac1609_4 	RXTXLostPackets 	0
scalar IntersectionExampleScenario.node[14].nic.mac1609_4 	TotalLostPackets 	0
scalar IntersectionExampleScenario.node[14].nic.mac1609_4 	DroppedPacketsInMac 	0
scalar IntersectionExampleScenario.node[14].nic.mac1609_4 	TooLittleTime 	0
scalar IntersectionExampleScenario.node[14].nic.mac1609_4 	TimesIntoBackoff 	0
scalar IntersectionExampleScenario.node[14].nic.mac1609_4 	SlotsBackoff 	0
scalar IntersectionExampleScenario.node[14].nic.mac1609_4 	NumInternalContention 	0
scalar IntersectionExampleScenario.node[14].nic.mac1609_4 	totalBusyTime 	0
scalar IntersectionExampleScenario.node[14].veinsmobility 	startTime 	31.5
scalar IntersectionExampleScenario.node[14].veinsmobility 	totalTime 	59.5
scalar IntersectionExampleScenario.node[14].veinsmobility 	stopTime 	91.25
scalar IntersectionExampleScenario.node[14].veinsmobility 	minSpeed 	0
scalar IntersectionExampleScenario.node[14].veinsmobility 	maxSpeed 	15.875
scalar IntersectionExampleScenario.node[14].veinsmobility 	totalDistance 	545.89851713422
scalar IntersectionExampleScenario.node[14].veinsmobility 	totalCO2Emission 	155.69142867396
scalar IntersectionExampleScenario.node[22].appl 	VehicleRemoved 	0
scalar IntersectionExampleScenario.node[22].appl 	ArrivedAtDest 	1
scalar IntersectionExampleScenario.node[22].appl 	IntersectionEnterTime 	41.75
scalar IntersectionExampleScenario.node[22].appl 	IntersectionExitTime 	74.608772684762
scalar IntersectionExampleScenario.node[22].appl 	NumberOfCollisions 	0
scalar IntersectionExampleScenario.node[22].nic.phy80211p 	busyTime 	0
scalar IntersectionExampleScenario.node[22].nic.mac1609_4 	ReceivedUnicastPackets 	0
scalar IntersectionExampleScenario.node[22].nic.mac1609_4 	ReceivedBroadcasts 	0
scalar IntersectionExampleScenario.node[22].nic.mac1609_4 	SentPackets 	0
scalar IntersectionExampleScenario.node[22].nic.mac1609_4 	SNIRLostPackets 	0
scalar IntersectionExampleScenario.node[22].nic.mac1609_4 	RXTXLostPackets 	0
scalar IntersectionExampleScenario.node[22].nic.mac1609_4 	TotalLostPackets 	0
scalar IntersectionExampleScenario.node[22].nic.mac1609_4 	DroppedPacketsInMac 	0
scalar IntersectionExampleScenario.node[22].nic.mac1609_4 	TooLittleTime 	0
scalar IntersectionExampleScenario.node[22].nic.mac1609_4 	TimesIntoBackoff 	0
scalar IntersectionExampleScenario.node[22].nic.mac1609_4 	SlotsBackoff 	0
scalar IntersectionExampleScenario.node[22].nic.mac1609_4 	NumInternalContention 	0
scalar IntersectionExampleScenario.node[22].nic.mac1609_4 	totalBusyTime 	0
scalar IntersectionExampleScenario.node[22].veinsmobility 	startTime 	41.75
scalar IntersectionExampleScenario.node[22].veinsmobility 	totalTime 	49.5
scalar IntersectionExampleScenario.node[22].veinsmobility 	stopTime 	91.5
scalar IntersectionExampleScenario.node[22].veinsmobility 	minSpeed 	1.3756074905396
scalar IntersectionExampleScenario.node[22].veinsmobility 	maxSpeed 	15.64999961853
scalar IntersectionExampleScenario.node[22].veinsmobility 	totalDistance 	544.275368771
scalar IntersectionExampleScenario.node[22].veinsmobility 	totalCO2Emission 	139.52871253118
scalar IntersectionExampleScenario.node[25].appl 	VehicleRemoved 	0
scalar IntersectionExampleScenario.node[25].appl 	ArrivedAtDest 	1
scalar IntersectionExampleScenario.node[25].appl 	IntersectionEnterTime 	46.5
scalar IntersectionExampleScenario.node[25].appl 	IntersectionExitTime 	76.255588050612
scalar IntersectionExampleScenario.node[25].appl 	NumberOfCollisions 	0
scalar IntersectionExampleScenario.node[25].nic.phy80211p 	busyTime 	0
scalar IntersectionExampleScenario.node[25].nic.mac1609_4 	ReceivedUnicastPackets 	0
scalar IntersectionExampleScenario.node[25].nic.mac1609_4 	ReceivedBroadcasts 	0
scalar IntersectionExampleScenario.node[25].nic.mac1609_4 	SentPackets 	0
scalar IntersectionExampleScenario.node[25].nic.mac1609_4 	SNIRLostPackets 	0
scalar IntersectionExampleScenario.node[25].nic.mac1609_4 	RXTXLostPackets 	0
scalar IntersectionExampleScenario.node[25].nic.mac1609_4 	TotalLostPackets 	0
scalar IntersectionExampleScenario.node[25].nic.mac1609_4 	DroppedPacketsInMac 	0
scalar IntersectionExampleScenario.node[25].nic.mac1609_4 	TooLittleTime 	0
scalar IntersectionExampleScenario.node[25].nic.mac1609_4 	TimesIntoBackoff 	0
scalar IntersectionExampleScenario.node[25].nic.mac1609_4 	SlotsBackoff 	0
scalar IntersectionExampleScenario.node[25].nic.mac1609_4 	NumInternalContention 	0
scalar IntersectionExampleScenario.node[25].nic.mac1609_4 	totalBusyTime 	0
scalar IntersectionExampleScenario.node[25].veinsmobility 	startTime 	46.5
scalar IntersectionExampleScenario.node[25].veinsmobility 	totalTime 	45.75
scalar IntersectionExampleScenario.node[25].veinsmobility 	stopTime 	92.5
scalar IntersectionExampleScenario.node[25].veinsmobility 	minSpeed 	1.544225692749
scalar IntersectionExampleScenario.node[25].veinsmobility 	maxSpeed 	15.64999961853
scalar IntersectionExampleScenario.node[25].veinsmobility 	totalDistance 	552.58535766602
scalar IntersectionExampleScenario.node[25].veinsmobility 	totalCO2Emission 	139.60603313321
scalar IntersectionExampleScenario.node[15].appl 	VehicleRemoved 	0
scalar IntersectionExampleScenario.node[15].appl 	ArrivedAtDest 	1
scalar IntersectionExampleScenario.node[15].appl 	IntersectionEnterTime 	31.75
scalar IntersectionExampleScenario.node[15].appl 	IntersectionExitTime 	77.564613574737
scalar IntersectionExampleScenario.node[15].appl 	NumberOfCollisions 	0
scalar IntersectionExampleScenario.node[15].nic.phy80211p 	busyTime 	0
scalar IntersectionExampleScenario.node[15].nic.mac1609_4 	ReceivedUnicastPackets 	0
scalar IntersectionExampleScenario.node[15].nic.mac1609_4 	ReceivedBroadcasts 	0
scalar IntersectionExampleScenario.node[15].nic.mac1609_4 	SentPackets 	0
scalar IntersectionExampleScenario.node[15].nic.mac1609_4 	SNIRLostPackets 	0
scalar IntersectionExampleScenario.node[15].nic.mac1609_4 	RXTXLostPackets 	0
scalar IntersectionExampleScenario.node[15].nic.mac1609_4 	TotalLostPackets 	0
scalar IntersectionExampleScenario.node[15].nic.mac1609_4 	DroppedPacketsInMac 	0
scalar IntersectionExampleScenario.node[15].nic.mac1609_4 	TooLittleTime 	0
scalar IntersectionExampleScenario.node[15].nic.mac1609_4 	TimesIntoBackoff 	0
scalar IntersectionExampleScenario.node[15].nic.mac1609_4 	SlotsBackoff 	0
scalar IntersectionExampleScenario.node[15].nic.mac1609_4 	NumInternalContention 	0
scalar IntersectionExampleScenario.node[15].nic.mac1609_4 	totalBusyTime 	0
scalar IntersectionExampleScenario.node[15].veinsmobility 	startTime 	31.75
scalar IntersectionExampleScenario.node[15].veinsmobility 	totalTime 	62.75
scalar IntersectionExampleScenario.node[15].veinsmobility 	stopTime 	94.75
scalar IntersectionExampleScenario.node[15].veinsmobility 	minSpeed 	0
scalar IntersectionExampleScenario.node[15].veinsmobility 	maxSpeed 	15.25
scalar IntersectionExampleScenario.node[15].veinsmobility 	totalDistance 	570.89636439618
scalar IntersectionExampleScenario.node[15].veinsmobility 	totalCO2Emission 	153.64120345367
scalar IntersectionExampleScenario.node[26].appl 	VehicleRemoved 	0
scalar IntersectionExampleScenario.node[26].appl 	ArrivedAtDest 	1
scalar IntersectionExampleScenario.node[26].appl 	IntersectionEnterTime 	48.25
scalar IntersectionExampleScenario.node[26].appl 	IntersectionExitTime 	79.367694280954
scalar IntersectionExampleScenario.node[26].appl 	NumberOfCollisions 	0
scalar IntersectionExampleScenario.node[26].nic.phy80211p 	busyTime 	0
scalar IntersectionExampleScenario.node[26].nic.mac1609_4 	ReceivedUnicastPackets 	0
scalar IntersectionExampleScenario.node[26].nic.mac1609_4 	ReceivedBroadcasts 	0
scalar IntersectionExampleScenario.node[26].nic.mac1609_4 	SentPackets 	0
scalar IntersectionExampleScenario.node[26].nic.mac1609_4 	SNIRLostPackets 	0
scalar IntersectionExampleScenario.node[26].nic.mac1609_4 	RXTXLostPackets 	0
scalar IntersectionExampleScenario.node[26].nic.mac1609_4 	TotalLostPackets 	0
scalar IntersectionExampleScenario.node[26].nic.mac1609_4 	DroppedPacketsInMac 	0
scalar IntersectionExampleScenario.node[26].nic.mac1609_4 	TooLittleTime 	0
scalar IntersectionExampleScenario.node[26].nic.mac1609_4 	TimesIntoBackoff 	0
scalar IntersectionExampleScenario.node[26].nic.mac1609_4 	SlotsBackoff 	0
scalar IntersectionExampleScenario.node[26].nic.mac1609_4 	NumInternalContention 	0
scalar IntersectionExampleScenario.node[26].nic.mac1609_4 	totalBusyTime 	0
scalar IntersectionExampleScenario.node[26].veinsmobility 	startTime 	48.25
scalar IntersectionExampleScenario.node[26].veinsmobility 	totalTime 	47.5
scalar IntersectionExampleScenario.node[26].veinsmobility 	stopTime 	96
scalar IntersectionExampleScenario.node[26].veinsmobility 	minSpeed 	2.9995143413544
scalar IntersectionExampleScenario.node[26].veinsmobility 	maxSpeed 	15.64999961853
scalar IntersectionExampleScenario.node[26].veinsmobility 	totalDistance 	569.8330473042
scalar IntersectionExampleScenario.node[26].veinsmobility 	totalCO2Emission 	145.78900638649
scalar IntersectionExampleScenario.node[21].appl 	VehicleRemoved 	0
scalar IntersectionExampleScenario.node[21].appl 	ArrivedAtDest 	1
scalar IntersectionExampleScenario.node[21].appl 	IntersectionEnterTime 	40.75
scalar IntersectionExampleScenario.node[21].appl 	IntersectionExitTime 	82.007965070778
scalar IntersectionExampleScenario.node[21].appl 	NumberOfCollisions 	0
scalar IntersectionExampleScenario.node[21].nic.phy80211p 	busyTime 	0
scalar IntersectionExampleScenario.node[21].nic.mac1609_4 	ReceivedUnicastPackets 	0
scalar IntersectionExampleScenario.node[21].nic.mac1609_4 	ReceivedBroadcasts 	0
scalar IntersectionExampleScenario.node[21].nic.mac1609_4 	SentPackets 	0
scalar IntersectionExampleScenario.node[21].nic.mac1609_4 	SNIRLostPackets 	0
scalar IntersectionExampleScenario.node[21].nic.mac1609_4 	RXTXLostPackets 	0
scalar IntersectionExampleScenario.node[21].nic.mac1609_4 	TotalLostPackets 	0
scalar IntersectionExampleScenario.node[21].nic.mac1609_4 	DroppedPacketsInMac 	0
scalar IntersectionExampleScenario.node[21].nic.mac1609_4 	TooLittleTime 	0
scalar IntersectionExampleScenario.node[21].nic.mac1609_4 	TimesIntoBackoff 	0
scalar IntersectionExampleScenario.node[21].nic.mac1609_4 	SlotsBackoff 	0
scalar IntersectionExampleScenario.node[21].nic.mac1609_4 	NumInternalContention 	0
scalar IntersectionExampleScenario.node[21].nic.mac1609_4 	totalBusyTime 	0
scalar IntersectionExampleScenario.node[21].veinsmobility 	startTime 	40.75
scalar IntersectionExampleScenario.node[21].veinsmobility 	totalTime 	56.5
scalar IntersectionExampleScenario.node[21].veinsmobility 	stopTime 	97.5
scalar IntersectionExampleScenario.node[21].veinsmobility 	minSpeed 	0
scalar IntersectionExampleScenario.node[21].veinsmobility 	maxSpeed 	16.27499961853
scalar IntersectionExampleScenario.node[21].veinsmobility 	totalDistance 	572.99937438965
scalar IntersectionExampleScenario.node[21].veinsmobility 	totalCO2Emission 	156.66717397707
scalar IntersectionExampleScenario.node[19].appl 	VehicleRemoved 	0
scalar IntersectionExampleScenario.node[19].appl 	ArrivedAtDest 	1
scalar IntersectionExampleScenario.node[19].appl 	IntersectionEnterTime 	38.25
scalar IntersectionExampleScenario.node[19].appl 	IntersectionExitTime 	81.516628867161
scalar IntersectionExampleScenario.node[19].appl 	NumberOfCollisions 	0
scalar IntersectionExampleScenario.node[19].nic.phy80211p 	busyTime 	0
scalar IntersectionExampleScenario.node[19].nic.mac1609_4 	ReceivedUnicastPackets 	0
scalar IntersectionExampleScenario.node[19].nic.mac1609_4 	ReceivedBroadcasts 	0
scalar IntersectionExampleScenario.node[19].nic.mac1609_4 	SentPackets 	0
scalar IntersectionExampleScenario.node[19].nic.mac1609_4 	SNIRLostPackets 	0
scalar IntersectionExampleScenario.node[19].nic.mac1609_4 	RXTXLostPackets 	0
scalar IntersectionExampleScenario.node[19].nic.mac1609_4 	TotalLostPackets 	0
scalar IntersectionExampleScenario.node[19].nic.mac1609_4 	DroppedPacketsInMac 	0
scalar IntersectionExampleScenario.node[19].nic.mac1609_4 	TooLittleTime 	0
scalar IntersectionExampleScenario.node[19].nic.mac1609_4 	TimesIntoBackoff 	0
scalar IntersectionExampleScenario.node[19].nic.mac1609_4 	SlotsBackoff 	0
scalar IntersectionExampleScenario.node[19].nic.mac1609_4 	NumInternalContention 	0
scalar IntersectionExampleScenario.node[19].nic.mac1609_4 	totalBusyTime 	0
scalar IntersectionExampleScenario.node[19].veinsmobility 	startTime 	38.25
scalar IntersectionExampleScenario.node[19].veinsmobility 	totalTime 	59.5
scalar IntersectionExampleScenario.node[19].veinsmobility 	stopTime 	98
scalar IntersectionExampleScenario.node[19].veinsmobility 	minSpeed 	0
scalar IntersectionExampleScenario.node[19].veinsmobility 	maxSpeed 	15.672630310059
scalar IntersectionExampleScenario.node[19].veinsmobility 	totalDistance 	554.69301715837
scalar IntersectionExampleScenario.node[19].veinsmobility 	totalCO2Emission 	160.50907336493
scalar IntersectionExampleScenario.node[23].appl 	VehicleRemoved 	0
scalar IntersectionExampleScenario.node[23].appl 	ArrivedAtDest 	1
scalar IntersectionExampleScenario.node[23].appl 	IntersectionEnterTime 	43
scalar IntersectionExampleScenario.node[23].appl 	IntersectionExitTime 	84.023089119582
scalar IntersectionExampleScenario.node[23].appl 	NumberOfCollisions 	0
scalar IntersectionExampleScenario.node[23].nic.phy80211p 	busyTime 	0
scalar IntersectionExampleScenario.node[23].nic.mac1609_4 	ReceivedUnicastPackets 	0
scalar IntersectionExampleScenario.node[23].nic.mac1609_4 	ReceivedBroadcasts 	0
scalar IntersectionExampleScenario.node[23].nic.mac1609_4 	SentPackets 	0
scalar IntersectionExampleScenario.node[23].nic.mac1609_4 	SNIRLostPackets 	0
scalar IntersectionExampleScenario.node[23].nic.mac1609_4 	RXTXLostPackets 	0
scalar IntersectionExampleScenario.node[23].nic.mac1609_4 	TotalLostPackets 	0
scalar IntersectionExampleScenario.node[23].nic.mac1609_4 	DroppedPacketsInMac 	0
scalar IntersectionExampleScenario.node[23].nic.mac1609_4 	TooLittleTime 	0
scalar IntersectionExampleScenario.node[23].nic.mac1609_4 	TimesIntoBackoff 	0
scalar IntersectionExampleScenario.node[23].nic.mac1609_4 	SlotsBackoff 	0
scalar IntersectionExampleScenario.node[23].nic.mac1609_4 	NumInternalContention 	0
scalar IntersectionExampleScenario.node[23].nic.mac1609_4 	totalBusyTime 	0
scalar IntersectionExampleScenario.node[23].veinsmobility 	startTime 	43
scalar IntersectionExampleScenario.node[23].veinsmobility 	totalTime 	57.25
scalar IntersectionExampleScenario.node[23].veinsmobility 	stopTime 	100.5
scalar IntersectionExampleScenario.node[23].veinsmobility 	minSpeed 	0.2692286670208
scalar IntersectionExampleScenario.node[23].veinsmobility 	maxSpeed 	15.398041725159
scalar IntersectionExampleScenario.node[23].veinsmobility 	totalDistance 	581.31967163086
scalar IntersectionExampleScenario.node[23].veinsmobility 	totalCO2Emission 	148.10671152077
scalar IntersectionExampleScenario.node[30].appl 	VehicleRemoved 	0
scalar IntersectionExampleScenario.node[30].appl 	ArrivedAtDest 	1
scalar IntersectionExampleScenario.node[30].appl 	IntersectionEnterTime 	61.25
scalar IntersectionExampleScenario.node[30].appl 	IntersectionExitTime 	84.530237776256
scalar IntersectionExampleScenario.node[30].appl 	NumberOfCollisions 	0
scalar IntersectionExampleScenario.node[30].nic.phy80211p 	busyTime 	0
scalar IntersectionExampleScenario.node[30].nic.mac1609_4 	ReceivedUnicastPackets 	0
scalar IntersectionExampleScenario.node[30].nic.mac1609_4 	ReceivedBroadcasts 	0
scalar IntersectionExampleScenario.node[30].nic.mac1609_4 	SentPackets 	0
scalar IntersectionExampleScenario.node[30].nic.mac1609_4 	SNIRLostPackets 	0
scalar IntersectionExampleScenario.node[30].nic.mac1609_4 	RXTXLostPackets 	0
scalar IntersectionExampleScenario.node[30].nic.mac1609_4 	TotalLostPackets 	0
scalar IntersectionExampleScenario.node[30].nic.mac1609_4 	DroppedPacketsInMac 	0
scalar IntersectionExampleScenario.node[30].nic.mac1609_4 	TooLittleTime 	0
scalar IntersectionExampleScenario.node[30].nic.mac1609_4 	TimesIntoBackoff 	0
scalar IntersectionExampleScenario.node[30].nic.mac1609_4 	SlotsBackoff 	0
scalar IntersectionExampleScenario.node[30].nic.mac1609_4 	NumInternalContention 	0
scalar IntersectionExampleScenario.node[30].nic.mac1609_4 	totalBusyTime 	0
scalar IntersectionExampleScenario.node[30].veinsmobility 	startTime 	61.25
scalar IntersectionExampleScenario.node[30].veinsmobility 	totalTime 	39.75
scalar IntersectionExampleScenario.node[30].veinsmobility 	stopTime 	101.25
scalar IntersectionExampleScenario.node[30].veinsmobility 	minSpeed 	5.6500000953674
scalar IntersectionExampleScenario.node[30].veinsmobility 	maxSpeed 	15.02499961853
scalar IntersectionExampleScenario.node[30].veinsmobility 	totalDistance 	553.76252746582
scalar IntersectionExampleScenario.node[30].veinsmobility 	totalCO2Emission 	115.10865606655
scalar IntersectionExampleScenario.node[28].appl 	VehicleRemoved 	0
scalar IntersectionExampleScenario.node[28].appl 	ArrivedAtDest 	1
scalar IntersectionExampleScenario.node[28].appl 	IntersectionEnterTime 	50.75
scalar IntersectionExampleScenario.node[28].appl 	IntersectionExitTime 	87.549274749821
scalar IntersectionExampleScenario.node[28].appl 	NumberOfCollisions 	0
scalar IntersectionExampleScenario.node[28].nic.phy80211p 	busyTime 	0
scalar IntersectionExampleScenario.node[28].nic.mac1609_4 	ReceivedUnicastPackets 	0
scalar IntersectionExampleScenario.node[28].nic.mac1609_4 	ReceivedBroadcasts 	0
scalar IntersectionExampleScenario.node[28].nic.mac1609_4 	SentPackets 	0
scalar IntersectionExampleScenario.node[28].nic.mac1609_4 	SNIRLostPackets 	0
scalar IntersectionExampleScenario.node[28].nic.mac1609_4 	RXTXLostPackets 	0
scalar IntersectionExampleScenario.node[28].nic.mac1609_4 	TotalLostPackets 	0
scalar IntersectionExampleScenario.node[28].nic.mac1609_4 	DroppedPacketsInMac 	0
scalar IntersectionExampleScenario.node[28].nic.mac1609_4 	TooLittleTime 	0
scalar IntersectionExampleScenario.node[28].nic.mac1609_4 	TimesIntoBackoff 	0
scalar IntersectionExampleScenario.node[28].nic.mac1609_4 	SlotsBackoff 	0
scalar IntersectionExampleScenario.node[28].nic.mac1609_4 	NumInternalContention 	0
scalar IntersectionExampleScenario.node[28].nic.mac1609_4 	totalBusyTime 	0
scalar IntersectionExampleScenario.node[28].veinsmobility 	startTime 	50.75
scalar IntersectionExampleScenario.node[28].veinsmobility 	totalTime 	51.75
scalar IntersectionExampleScenario.node[28].veinsmobility 	stopTime 	102.75
scalar IntersectionExampleScenario.node[28].veinsmobility 	minSpeed 	0
scalar IntersectionExampleScenario.node[28].veinsmobility 	maxSpeed 	16.714403152466
scalar IntersectionExampleScenario.node[28].veinsmobility 	totalDistance 	543.47643280029
scalar IntersectionExampleScenario.node[28].veinsmobility 	totalCO2Emission 	152.7339079358
scalar IntersectionExampleScenario.node[24].appl 	VehicleRemoved 	0
scalar IntersectionExampleScenario.node[24].appl 	ArrivedAtDest 	1
scalar IntersectionExampleScenario.node[24].appl 	IntersectionEnterTime 	45
scalar IntersectionExampleScenario.node[24].appl 	IntersectionExitTime 	86.30541408647
scalar IntersectionExampleScenario.node[24].appl 	NumberOfCollisions 	0
scalar IntersectionExampleScenario.node[24].nic.phy80211p 	busyTime 	0
scalar IntersectionExampleScenario.node[24].nic.mac1609_4 	ReceivedUnicastPackets 	0
scalar IntersectionExampleScenario.node[24].nic.mac1609_4 	ReceivedBroadcasts 	0
scalar IntersectionExampleScenario.node[24].nic.mac1609_4 	SentPackets 	0
scalar IntersectionExampleScenario.node[24].nic.mac1609_4 	SNIRLostPackets 	0
scalar IntersectionExampleScenario.node[24].nic.mac1609_4 	RXTXLostPackets 	0
scalar IntersectionExampleScenario.node[24].nic.mac1609_4 	TotalLostPackets 	0
scalar IntersectionExampleScenario.node[24].nic.mac1609_4 	DroppedPacketsInMac 	0
scalar IntersectionExampleScenario.node[24].nic.mac1609_4 	TooLittleTime 	0
scalar IntersectionExampleScenario.node[24].nic.mac1609_4 	TimesIntoBackoff 	0
scalar IntersectionExampleScenario.node[24].nic.mac1609_4 	SlotsBackoff 	0
scalar IntersectionExampleScenario.node[24].nic.mac1609_4 	NumInternalContention 	0
scalar IntersectionExampleScenario.node[24].nic.mac1609_4 	totalBusyTime 	0
scalar IntersectionExampleScenario.node[24].veinsmobility 	startTime 	45
scalar IntersectionExampleScenario.node[24].veinsmobility 	totalTime 	57.75
scalar IntersectionExampleScenario.node[24].veinsmobility 	stopTime 	103
scalar IntersectionExampleScenario.node[24].veinsmobility 	minSpeed 	0
scalar IntersectionExampleScenario.node[24].veinsmobility 	maxSpeed 	15.375
scalar IntersectionExampleScenario.node[24].veinsmobility 	totalDistance 	580.77998527044
scalar IntersectionExampleScenario.node[24].veinsmobility 	totalCO2Emission 	155.66117217723
scalar IntersectionExampleScenario.node[31].appl 	VehicleRemoved 	0
scalar IntersectionExampleScenario.node[31].appl 	ArrivedAtDest 	1
scalar IntersectionExampleScenario.node[31].appl 	IntersectionEnterTime 	65
scalar IntersectionExampleScenario.node[31].appl 	IntersectionExitTime 	88.810905721941
scalar IntersectionExampleScenario.node[31].appl 	NumberOfCollisions 	0
scalar IntersectionExampleScenario.node[31].nic.phy80211p 	busyTime 	0
scalar IntersectionExampleScenario.node[31].nic.mac1609_4 	ReceivedUnicastPackets 	0
scalar IntersectionExampleScenario.node[31].nic.mac1609_4 	ReceivedBroadcasts 	0
scalar IntersectionExampleScenario.node[31].nic.mac1609_4 	SentPackets 	0
scalar IntersectionExampleScenario.node[31].nic.mac1609_4 	SNIRLostPackets 	0
scalar IntersectionExampleScenario.node[31].nic.mac1609_4 	RXTXLostPackets 	0
scalar IntersectionExampleScenario.node[31].nic.mac1609_4 	TotalLostPackets 	0
scalar IntersectionExampleScenario.node[31].nic.mac1609_4 	DroppedPacketsInMac 	0
scalar IntersectionExampleScenario.node[31].nic.mac1609_4 	TooLittleTime 	0
scalar IntersectionExampleScenario.node[31].nic.mac1609_4 	TimesIntoBackoff 	0
scalar IntersectionExampleScenario.node[31].nic.mac1609_4 	SlotsBackoff 	0
scalar IntersectionExampleScenario.node[31].nic.mac1609_4 	NumInternalContention 	0
scalar IntersectionExampleScenario.node[31].nic.mac1609_4 	totalBusyTime 	0
scalar IntersectionExampleScenario.node[31].veinsmobility 	startTime 	65
scalar IntersectionExampleScenario.node[31].veinsmobility 	totalTime 	40.25
scalar IntersectionExampleScenario.node[31].veinsmobility 	stopTime 	105.5
scalar IntersectionExampleScenario.node[31].veinsmobility 	minSpeed 	5.6500000953674
scalar IntersectionExampleScenario.node[31].veinsmobility 	maxSpeed 	15.596623420715
scalar IntersectionExampleScenario.node[31].veinsmobility 	totalDistance 	553.80523242803
scalar IntersectionExampleScenario.node[31].veinsmobility 	totalCO2Emission 	129.69612042391
scalar IntersectionExampleScenario.node[27].appl 	VehicleRemoved 	0
scalar IntersectionExampleScenario.node[27].appl 	ArrivedAtDest 	1
scalar IntersectionExampleScenario.node[27].appl 	IntersectionEnterTime 	50.25
scalar IntersectionExampleScenario.node[27].appl 	IntersectionExitTime 	89.569033019128
scalar IntersectionExampleScenario.node[27].appl 	NumberOfCollisions 	0
scalar IntersectionExampleScenario.node[27].nic.phy80211p 	busyTime 	0
scalar IntersectionExampleScenario.node[27].nic.mac1609_4 	ReceivedUnicastPackets 	0
scalar IntersectionExampleScenario.node[27].nic.mac1609_4 	ReceivedBroadcasts 	0
scalar IntersectionExampleScenario.node[27].nic.mac1609_4 	SentPackets 	0
scalar IntersectionExampleScenario.node[27].nic.mac1609_4 	SNIRLostPackets 	0
scalar IntersectionExampleScenario.node[27].nic.mac1609_4 	RXTXLostPackets 	0
scalar IntersectionExampleScenario.node[27].nic.mac1609_4 	TotalLostPackets 	0
scalar IntersectionExampleScenario.node[27].nic.mac1609_4 	DroppedPacketsInMac 	0
scalar IntersectionExampleScenario.node[27].nic.mac1609_4 	TooLittleTime 	0
scalar IntersectionExampleScenario.node[27].nic.mac1609_4 	TimesIntoBackoff 	0
scalar IntersectionExampleScenario.node[27].nic.mac1609_4 	SlotsBackoff 	0
scalar IntersectionExampleScenario.node[27].nic.mac1609_4 	NumInternalContention 	0
scalar IntersectionExampleScenario.node[27].nic.mac1609_4 	totalBusyTime 	0
scalar IntersectionExampleScenario.node[27].veinsmobility 	startTime 	50.25
scalar IntersectionExampleScenario.node[27].veinsmobility 	totalTime 	55.75
scalar IntersectionExampleScenario.node[27].veinsmobility 	stopTime 	106.25
scalar IntersectionExampleScenario.node[27].veinsmobility 	minSpeed 	1.6477866172791
scalar IntersectionExampleScenario.node[27].veinsmobility 	maxSpeed 	15.875
scalar IntersectionExampleScenario.node[27].veinsmobility 	totalDistance 	559.11025746668
scalar IntersectionExampleScenario.node[27].veinsmobility 	totalCO2Emission 	160.22625249048
scalar IntersectionExampleScenario.node[32].appl 	VehicleRemoved 	0
scalar IntersectionExampleScenario.node[32].appl 	ArrivedAtDest 	1
scalar IntersectionExampleScenario.node[32].appl 	IntersectionEnterTime 	66.75
scalar IntersectionExampleScenario.node[32].appl 	IntersectionExitTime 	91.122212197806
scalar IntersectionExampleScenario.node[32].appl 	NumberOfCollisions 	0
scalar IntersectionExampleScenario.node[32].nic.phy80211p 	busyTime 	0
scalar IntersectionExampleScenario.node[32].nic.mac1609_4 	ReceivedUnicastPackets 	0
scalar IntersectionExampleScenario.node[32].nic.mac1609_4 	ReceivedBroadcasts 	0
scalar IntersectionExampleScenario.node[32].nic.mac1609_4 	SentPackets 	0
scalar IntersectionExampleScenario.node[32].nic.mac1609_4 	SNIRLostPackets 	0
scalar IntersectionExampleScenario.node[32].nic.mac1609_4 	RXTXLostPackets 	0
scalar IntersectionExampleScenario.node[32].nic.mac1609_4 	TotalLostPackets 	0
scalar IntersectionExampleScenario.node[32].nic.mac1609_4 	DroppedPacketsInMac 	0
scalar IntersectionExampleScenario.node[32].nic.mac1609_4 	TooLittleTime 	0
scalar IntersectionExampleScenario.node[32].nic.mac1609_4 	TimesIntoBackoff 	0
scalar IntersectionExampleScenario.node[32].nic.mac1609_4 	SlotsBackoff 	0
scalar IntersectionExampleScenario.node[32].nic.mac1609_4 	NumInternalContention 	0
scalar IntersectionExampleScenario.node[32].nic.mac1609_4 	totalBusyTime 	0
scalar IntersectionExampleScenario.node[32].veinsmobility 	startTime 	66.75
scalar IntersectionExampleScenario.node[32].veinsmobility 	totalTime 	40
scalar IntersectionExampleScenario.node[32].veinsmobility 	stopTime 	107
scalar IntersectionExampleScenario.node[32].veinsmobility 	minSpeed 	5.6500000953674
scalar IntersectionExampleScenario.node[32].veinsmobility 	maxSpeed 	15.64999961853
scalar IntersectionExampleScenario.node[32].veinsmobility 	totalDistance 	575.53880310059
scalar IntersectionExampleScenario.node[32].veinsmobility 	totalCO2Emission 	130.59913915754
scalar IntersectionExampleScenario.node[29].appl 	VehicleRemoved 	0
scalar IntersectionExampleScenario.node[29].appl 	ArrivedAtDest 	1
scalar IntersectionExampleScenario.node[29].appl 	IntersectionEnterTime 	56
scalar IntersectionExampleScenario.node[29].appl 	IntersectionExitTime 	92.060585810832
scalar IntersectionExampleScenario.node[29].appl 	NumberOfCollisions 	0
scalar IntersectionExampleScenario.node[29].nic.phy80211p 	busyTime 	0
scalar IntersectionExampleScenario.node[29].nic.mac1609_4 	ReceivedUnicastPackets 	0
scalar IntersectionExampleScenario.node[29].nic.mac1609_4 	ReceivedBroadcasts 	0
scalar IntersectionExampleScenario.node[29].nic.mac1609_4 	SentPackets 	0
scalar IntersectionExampleScenario.node[29].nic.mac1609_4 	SNIRLostPackets 	0
scalar IntersectionExampleScenario.node[29].nic.mac1609_4 	RXTXLostPackets 	0
scalar IntersectionExampleScenario.node[29].nic.mac1609_4 	TotalLostPackets 	0
scalar IntersectionExampleScenario.node[29].nic.mac1609_4 	DroppedPacketsInMac 	0
scalar IntersectionExampleScenario.node[29].nic.mac1609_4 	TooLittleTime 	0
scalar IntersectionExampleScenario.node[29].nic.mac1609_4 	TimesIntoBackoff 	0
scalar IntersectionExampleScenario.node[29].nic.mac1609_4 	SlotsBackoff 	0
scalar IntersectionExampleScenario.node[29].nic.mac1609_4 	NumInternalContention 	0
scalar IntersectionExampleScenario.node[29].nic.mac1609_4 	totalBusyTime 	0
scalar IntersectionExampleScenario.node[29].veinsmobility 	startTime 	56
scalar IntersectionExampleScenario.node[29].veinsmobility 	totalTime 	53
scalar IntersectionExampleScenario.node[29].veinsmobility 	stopTime 	109.25
scalar IntersectionExampleScenario.node[29].veinsmobility 	minSpeed 	2.7234916687012
scalar IntersectionExampleScenario.node[29].veinsmobility 	maxSpeed 	15.25
scalar IntersectionExampleScenario.node[29].veinsmobility 	totalDistance 	551.72359472383
scalar IntersectionExampleScenario.node[29].veinsmobility 	totalCO2Emission 	147.00986963444
scalar IntersectionExampleScenario.node[35].appl 	VehicleRemoved 	0
scalar IntersectionExampleScenario.node[35].appl 	ArrivedAtDest 	1
scalar IntersectionExampleScenario.node[35].appl 	IntersectionEnterTime 	71.25
scalar IntersectionExampleScenario.node[35].appl 	IntersectionExitTime 	94.305275115301
scalar IntersectionExampleScenario.node[35].appl 	NumberOfCollisions 	0
scalar IntersectionExampleScenario.node[35].nic.phy80211p 	busyTime 	0
scalar IntersectionExampleScenario.node[35].nic.mac1609_4 	ReceivedUnicastPackets 	0
scalar IntersectionExampleScenario.node[35].nic.mac1609_4 	ReceivedBroadcasts 	0
scalar IntersectionExampleScenario.node[35].nic.mac1609_4 	SentPackets 	0
scalar IntersectionExampleScenario.node[35].nic.mac1609_4 	SNIRLostPackets 	0
scalar IntersectionExampleScenario.node[35].nic.mac1609_4 	RXTXLostPackets 	0
scalar IntersectionExampleScenario.node[35].nic.mac1609_4 	TotalLostPackets 	0
scalar IntersectionExampleScenario.node[35].nic.mac1609_4 	DroppedPacketsInMac 	0
scalar IntersectionExampleScenario.node[35].nic.mac1609_4 	TooLittleTime 	0
scalar IntersectionExampleScenario.node[35].nic.mac1609_4 	TimesIntoBackoff 	0
scalar IntersectionExampleScenario.node[35].nic.mac1609_4 	SlotsBackoff 	0
scalar IntersectionExampleScenario.node[35].nic.mac1609_4 	NumInternalContention 	0
scalar IntersectionExampleScenario.node[35].nic.mac1609_4 	totalBusyTime 	0
scalar IntersectionExampleScenario.node[35].veinsmobility 	startTime 	71.25
scalar IntersectionExampleScenario.node[35].veinsmobility 	totalTime 	39
scalar IntersectionExampleScenario.node[35].veinsmobility 	stopTime 	110.5
scalar IntersectionExampleScenario.node[35].veinsmobility 	minSpeed 	5.6500000953674
scalar IntersectionExampleScenario.node[35].veinsmobility 	maxSpeed 	15.816880226135
scalar IntersectionExampleScenario.node[35].veinsmobility 	totalDistance 	554.12015533447
scalar IntersectionExampleScenario.node[35].veinsmobility 	totalCO2Emission 	128.83884730658
scalar IntersectionExampleScenario.node[36].appl 	VehicleRemoved 	0
scalar IntersectionExampleScenario.node[36].appl 	ArrivedAtDest 	1
scalar IntersectionExampleScenario.node[36].appl 	IntersectionEnterTime 	72.5
scalar IntersectionExampleScenario.node[36].appl 	IntersectionExitTime 	96.596851576003
scalar IntersectionExampleScenario.node[36].appl 	NumberOfCollisions 	0
scalar IntersectionExampleScenario.node[36].nic.phy80211p 	busyTime 	0
scalar IntersectionExampleScenario.node[36].nic.mac1609_4 	ReceivedUnicastPackets 	0
scalar IntersectionExampleScenario.node[36].nic.mac1609_4 	ReceivedBroadcasts 	0
scalar IntersectionExampleScenario.node[36].nic.mac1609_4 	SentPackets 	0
scalar IntersectionExampleScenario.node[36].nic.mac1609_4 	SNIRLostPackets 	0
scalar IntersectionExampleScenario.node[36].nic.mac1609_4 	RXTXLostPackets 	0
scalar IntersectionExampleScenario.node[36].nic.mac1609_4 	TotalLostPackets 	0
scalar IntersectionExampleScenario.node[36].nic.mac1609_4 	DroppedPacketsInMac 	0
scalar IntersectionExampleScenario.node[36].nic.mac1609_4 	TooLittleTime 	0
scalar IntersectionExampleScenario.node[36].nic.mac1609_4 	TimesIntoBackoff 	0
scalar IntersectionExampleScenario.node[36].nic.mac1609_4 	SlotsBackoff 	0
scalar IntersectionExampleScenario.node[36].nic.mac1609_4 	NumInternalContention 	0
scalar IntersectionExampleScenario.node[36].nic.mac1609_4 	totalBusyTime 	0
scalar IntersectionExampleScenario.node[36].veinsmobility 	startTime 	72.5
scalar IntersectionExampleScenario.node[36].veinsmobility 	totalTime 	41
scalar IntersectionExampleScenario.node[36].veinsmobility 	stopTime 	113.75
scalar IntersectionExampleScenario.node[36].veinsmobility 	minSpeed 	5.6500000953674
scalar IntersectionExampleScenario.node[36].veinsmobility 	maxSpeed 	15.25
scalar IntersectionExampleScenario.node[36].veinsmobility 	totalDistance 	549.77152824626
scalar IntersectionExampleScenario.node[36].veinsmobility 	totalCO2Emission 	125.35118282647
scalar IntersectionExampleScenario.node[38].appl 	VehicleRemoved 	0
scalar IntersectionExampleScenario.node[38].appl 	ArrivedAtDest 	1
scalar IntersectionExampleScenario.node[38].appl 	IntersectionEnterTime 	76.5
scalar IntersectionExampleScenario.node[38].appl 	IntersectionExitTime 	100.84875449561
scalar IntersectionExampleScenario.node[38].appl 	NumberOfCollisions 	0
scalar IntersectionExampleScenario.node[38].nic.phy80211p 	busyTime 	0
scalar IntersectionExampleScenario.node[38].nic.mac1609_4 	ReceivedUnicastPackets 	0
scalar IntersectionExampleScenario.node[38].nic.mac1609_4 	ReceivedBroadcasts 	0
scalar IntersectionExampleScenario.node[38].nic.mac1609_4 	SentPackets 	0
scalar IntersectionExampleScenario.node[38].nic.mac1609_4 	SNIRLostPackets 	0
scalar IntersectionExampleScenario.node[38].nic.mac1609_4 	RXTXLostPackets 	0
scalar IntersectionExampleScenario.node[38].nic.mac1609_4 	TotalLostPackets 	0
scalar IntersectionExampleScenario.node[38].nic.mac1609_4 	DroppedPacketsInMac 	0
scalar IntersectionExampleScenario.node[38].nic.mac1609_4 	TooLittleTime 	0
scalar IntersectionExampleScenario.node[38].nic.mac1609_4 	TimesIntoBackoff 	0
scalar IntersectionExampleScenario.node[38].nic.mac1609_4 	SlotsBackoff 	0
scalar IntersectionExampleScenario.node[38].nic.mac1609_4 	NumInternalContention 	0
scalar IntersectionExampleScenario.node[38].nic.mac1609_4 	totalBusyTime 	0
scalar IntersectionExampleScenario.node[38].veinsmobility 	startTime 	76.5
scalar IntersectionExampleScenario.node[38].veinsmobility 	totalTime 	41.25
scalar IntersectionExampleScenario.node[38].veinsmobility 	stopTime 	118
scalar IntersectionExampleScenario.node[38].veinsmobility 	minSpeed 	5.6500000953674
scalar IntersectionExampleScenario.node[38].veinsmobility 	maxSpeed 	15.566209793091
scalar IntersectionExampleScenario.node[38].veinsmobility 	totalDistance 	553.73508405951
scalar IntersectionExampleScenario.node[38].veinsmobility 	totalCO2Emission 	128.05775992627
scalar IntersectionExampleScenario.node[34].appl 	VehicleRemoved 	0
scalar IntersectionExampleScenario.node[34].appl 	ArrivedAtDest 	1
scalar IntersectionExampleScenario.node[34].appl 	IntersectionEnterTime 	68.5
scalar IntersectionExampleScenario.node[34].appl 	IntersectionExitTime 	102.7834072939
scalar IntersectionExampleScenario.node[34].appl 	NumberOfCollisions 	0
scalar IntersectionExampleScenario.node[34].nic.phy80211p 	busyTime 	0
scalar IntersectionExampleScenario.node[34].nic.mac1609_4 	ReceivedUnicastPackets 	0
scalar IntersectionExampleScenario.node[34].nic.mac1609_4 	ReceivedBroadcasts 	0
scalar IntersectionExampleScenario.node[34].nic.mac1609_4 	SentPackets 	0
scalar IntersectionExampleScenario.node[34].nic.mac1609_4 	SNIRLostPackets 	0
scalar IntersectionExampleScenario.node[34].nic.mac1609_4 	RXTXLostPackets 	0
scalar IntersectionExampleScenario.node[34].nic.mac1609_4 	TotalLostPackets 	0
scalar IntersectionExampleScenario.node[34].nic.mac1609_4 	DroppedPacketsInMac 	0
scalar IntersectionExampleScenario.node[34].nic.mac1609_4 	TooLittleTime 	0
scalar IntersectionExampleScenario.node[34].nic.mac1609_4 	TimesIntoBackoff 	0
scalar IntersectionExampleScenario.node[34].nic.mac1609_4 	SlotsBackoff 	0
scalar IntersectionExampleScenario.node[34].nic.mac1609_4 	NumInternalContention 	0
scalar IntersectionExampleScenario.node[34].nic.mac1609_4 	totalBusyTime 	0
scalar IntersectionExampleScenario.node[34].veinsmobility 	startTime 	68.5
scalar IntersectionExampleScenario.node[34].veinsmobility 	totalTime 	50.75
scalar IntersectionExampleScenario.node[34].veinsmobility 	stopTime 	119.5
scalar IntersectionExampleScenario.node[34].veinsmobility 	minSpeed 	0
scalar IntersectionExampleScenario.node[34].veinsmobility 	maxSpeed 	15.64999961853
scalar IntersectionExampleScenario.node[34].veinsmobility 	totalDistance 	553.94956207275
scalar IntersectionExampleScenario.node[34].veinsmobility 	totalCO2Emission 	143.54945969312
scalar IntersectionExampleScenario.node[33].appl 	VehicleRemoved 	0
scalar IntersectionExampleScenario.node[33].appl 	ArrivedAtDest 	1
scalar IntersectionExampleScenario.node[33].appl 	IntersectionEnterTime 	67.25
scalar IntersectionExampleScenario.node[33].appl 	IntersectionExitTime 	102.28674543381
scalar IntersectionExampleScenario.node[33].appl 	NumberOfCollisions 	0
scalar IntersectionExampleScenario.node[33].nic.phy80211p 	busyTime 	0
scalar IntersectionExampleScenario.node[33].nic.mac1609_4 	ReceivedUnicastPackets 	0
scalar IntersectionExampleScenario.node[33].nic.mac1609_4 	ReceivedBroadcasts 	0
scalar IntersectionExampleScenario.node[33].nic.mac1609_4 	SentPackets 	0
scalar IntersectionExampleScenario.node[33].nic.mac1609_4 	SNIRLostPackets 	0
scalar IntersectionExampleScenario.node[33].nic.mac1609_4 	RXTXLostPackets 	0
scalar IntersectionExampleScenario.node[33].nic.mac1609_4 	TotalLostPackets 	0
scalar IntersectionExampleScenario.node[33].nic.mac1609_4 	DroppedPacketsInMac 	0
scalar IntersectionExampleScenario.node[33].nic.mac1609_4 	TooLittleTime 	0
scalar IntersectionExampleScenario.node[33].nic.mac1609_4 	TimesIntoBackoff 	0
scalar IntersectionExampleScenario.node[33].nic.mac1609_4 	SlotsBackoff 	0
scalar IntersectionExampleScenario.node[33].nic.mac1609_4 	NumInternalContention 	0
scalar IntersectionExampleScenario.node[33].nic.mac1609_4 	totalBusyTime 	0
scalar IntersectionExampleScenario.node[33].veinsmobility 	startTime 	67.25
scalar IntersectionExampleScenario.node[33].veinsmobility 	totalTime 	52.25
scalar IntersectionExampleScenario.node[33].veinsmobility 	stopTime 	119.75
scalar IntersectionExampleScenario.node[33].veinsmobility 	minSpeed 	0
scalar IntersectionExampleScenario.node[33].veinsmobility 	maxSpeed 	14.39999961853
scalar IntersectionExampleScenario.node[33].veinsmobility 	totalDistance 	551.98818969727
scalar IntersectionExampleScenario.node[33].veinsmobility 	totalCO2Emission 	134.98115953884
scalar IntersectionExampleScenario.node[37].appl 	VehicleRemoved 	0
scalar IntersectionExampleScenario.node[37].appl 	ArrivedAtDest 	1
scalar IntersectionExampleScenario.node[37].appl 	IntersectionEnterTime 	73.5
scalar IntersectionExampleScenario.node[37].appl 	IntersectionExitTime 	103.28512474836
scalar IntersectionExampleScenario.node[37].appl 	NumberOfCollisions 	0
scalar IntersectionExampleScenario.node[37].nic.phy80211p 	busyTime 	0
scalar IntersectionExampleScenario.node[37].nic.mac1609_4 	ReceivedUnicastPackets 	0
scalar IntersectionExampleScenario.node[37].nic.mac1609_4 	ReceivedBroadcasts 	0
scalar IntersectionExampleScenario.node[37].nic.mac1609_4 	SentPackets 	0
scalar IntersectionExampleScenario.node[37].nic.mac1609_4 	SNIRLostPackets 	0
scalar IntersectionExampleScenario.node[37].nic.mac1609_4 	RXTXLostPackets 	0
scalar IntersectionExampleScenario.node[37].nic.mac1609_4 	TotalLostPackets 	0
scalar IntersectionExampleScenario.node[37].nic.mac1609_4 	DroppedPacketsInMac 	0
scalar IntersectionExampleScenario.node[37].nic.mac1609_4 	TooLittleTime 	0
scalar IntersectionExampleScenario.node[37].nic.mac1609_4 	TimesIntoBackoff 	0
scalar IntersectionExampleScenario.node[37].nic.mac1609_4 	SlotsBackoff 	0
scalar IntersectionExampleScenario.node[37].nic.mac1609_4 	NumInternalContention 	0
scalar IntersectionExampleScenario.node[37].nic.mac1609_4 	totalBusyTime 	0
scalar IntersectionExampleScenario.node[37].veinsmobility 	startTime 	73.5
scalar IntersectionExampleScenario.node[37].veinsmobility 	totalTime 	46.25
scalar IntersectionExampleScenario.node[37].veinsmobility 	stopTime 	120
scalar IntersectionExampleScenario.node[37].veinsmobility 	minSpeed 	1.2398785352707
scalar IntersectionExampleScenario.node[37].veinsmobility 	maxSpeed 	15.875
scalar IntersectionExampleScenario.node[37].veinsmobility 	totalDistance 	543.19515081393
scalar IntersectionExampleScenario.node[37].veinsmobility 	totalCO2Emission 	135.38192388297
scalar IntersectionExampleScenario.node[39].appl 	VehicleRemoved 	0
scalar IntersectionExampleScenario.node[39].appl 	ArrivedAtDest 	1
scalar IntersectionExampleScenario.node[39].appl 	IntersectionEnterTime 	76.75
scalar IntersectionExampleScenario.node[39].appl 	IntersectionExitTime 	104.34039116226
scalar IntersectionExampleScenario.node[39].appl 	NumberOfCollisions 	0
scalar IntersectionExampleScenario.node[39].nic.phy80211p 	busyTime 	0
scalar IntersectionExampleScenario.node[39].nic.mac1609_4 	ReceivedUnicastPackets 	0
scalar IntersectionExampleScenario.node[39].nic.mac1609_4 	ReceivedBroadcasts 	0
scalar IntersectionExampleScenario.node[39].nic.mac1609_4 	SentPackets 	0
scalar IntersectionExampleScenario.node[39].nic.mac1609_4 	SNIRLostPackets 	0
scalar IntersectionExampleScenario.node[39].nic.mac1609_4 	RXTXLostPackets 	0
scalar IntersectionExampleScenario.node[39].nic.mac1609_4 	TotalLostPackets 	0
scalar IntersectionExampleScenario.node[39].nic.mac1609_4 	DroppedPacketsInMac 	0
scalar IntersectionExampleScenario.node[39].nic.mac1609_4 	TooLittleTime 	0
scalar IntersectionExampleScenario.node[39].nic.mac1609_4 	TimesIntoBackoff 	0
[...]
scalar IntersectionExampleScenario.node[778].veinsmobility 	totalCO2Emission 	71.618650494543
scalar IntersectionExampleScenario.node[779].appl 	VehicleRemoved 	0
scalar IntersectionExampleScenario.node[779].appl 	ArrivedAtDest 	0
scalar IntersectionExampleScenario.node[779].appl 	IntersectionEnterTime 	1775.75
scalar IntersectionExampleScenario.node[779].appl 	IntersectionExitTime 	-1
scalar IntersectionExampleScenario.node[779].appl 	NumberOfCollisions 	0
scalar IntersectionExampleScenario.node[779].nic.phy80211p 	busyTime 	0
scalar IntersectionExampleScenario.node[779].nic.mac1609_4 	ReceivedUnicastPackets 	0
scalar IntersectionExampleScenario.node[779].nic.mac1609_4 	ReceivedBroadcasts 	0
scalar IntersectionExampleScenario.node[779].nic.mac1609_4 	SentPackets 	0
scalar IntersectionExampleScenario.node[779].nic.mac1609_4 	SNIRLostPackets 	0
scalar IntersectionExampleScenario.node[779].nic.mac1609_4 	RXTXLostPackets 	0
scalar IntersectionExampleScenario.node[779].nic.mac1609_4 	TotalLostPackets 	0
scalar IntersectionExampleScenario.node[779].nic.mac1609_4 	DroppedPacketsInMac 	0
scalar IntersectionExampleScenario.node[779].nic.mac1609_4 	TooLittleTime 	0
scalar IntersectionExampleScenario.node[779].nic.mac1609_4 	TimesIntoBackoff 	0
scalar IntersectionExampleScenario.node[779].nic.mac1609_4 	SlotsBackoff 	0
scalar IntersectionExampleScenario.node[779].nic.mac1609_4 	NumInternalContention 	0
scalar IntersectionExampleScenario.node[779].nic.mac1609_4 	totalBusyTime 	0
scalar IntersectionExampleScenario.node[779].veinsmobility 	startTime 	1775.75
scalar IntersectionExampleScenario.node[779].veinsmobility 	totalTime 	24.25
scalar IntersectionExampleScenario.node[779].veinsmobility 	stopTime 	1800
scalar IntersectionExampleScenario.node[779].veinsmobility 	minSpeed 	5.6500000953674
scalar IntersectionExampleScenario.node[779].veinsmobility 	maxSpeed 	15.318076133728
scalar IntersectionExampleScenario.node[779].veinsmobility 	totalDistance 	294.24499511719
scalar IntersectionExampleScenario.node[779].veinsmobility 	totalCO2Emission 	80.748043885332
scalar IntersectionExampleScenario.node[780].appl 	VehicleRemoved 	0
scalar IntersectionExampleScenario.node[780].appl 	ArrivedAtDest 	0
scalar IntersectionExampleScenario.node[780].appl 	IntersectionEnterTime 	1776.5
scalar IntersectionExampleScenario.node[780].appl 	IntersectionExitTime 	-1
scalar IntersectionExampleScenario.node[780].appl 	NumberOfCollisions 	0
scalar IntersectionExampleScenario.node[780].nic.phy80211p 	busyTime 	0
scalar IntersectionExampleScenario.node[780].nic.mac1609_4 	ReceivedUnicastPackets 	0
scalar IntersectionExampleScenario.node[780].nic.mac1609_4 	ReceivedBroadcasts 	0
scalar IntersectionExampleScenario.node[780].nic.mac1609_4 	SentPackets 	0
scalar IntersectionExampleScenario.node[780].nic.mac1609_4 	SNIRLostPackets 	0
scalar IntersectionExampleScenario.node[780].nic.mac1609_4 	RXTXLostPackets 	0
scalar IntersectionExampleScenario.node[780].nic.mac1609_4 	TotalLostPackets 	0
scalar IntersectionExampleScenario.node[780].nic.mac1609_4 	DroppedPacketsInMac 	0
scalar IntersectionExampleScenario.node[780].nic.mac1609_4 	TooLittleTime 	0
scalar IntersectionExampleScenario.node[780].nic.mac1609_4 	TimesIntoBackoff 	0
scalar IntersectionExampleScenario.node[780].nic.mac1609_4 	SlotsBackoff 	0
scalar IntersectionExampleScenario.node[780].nic.mac1609_4 	NumInternalContention 	0
scalar IntersectionExampleScenario.node[780].nic.mac1609_4 	totalBusyTime 	0
scalar IntersectionExampleScenario.node[780].veinsmobility 	startTime 	1776.5
scalar IntersectionExampleScenario.node[780].veinsmobility 	totalTime 	23.5
scalar IntersectionExampleScenario.node[780].veinsmobility 	stopTime 	1800
scalar IntersectionExampleScenario.node[780].veinsmobility 	minSpeed 	3.549788236618
scalar IntersectionExampleScenario.node[780].veinsmobility 	maxSpeed 	15.64999961853
scalar IntersectionExampleScenario.node[780].veinsmobility 	totalDistance 	263.36936187744
scalar IntersectionExampleScenario.node[780].veinsmobility 	totalCO2Emission 	63.557209133728
scalar IntersectionExampleScenario.node[781].appl 	VehicleRemoved 	0
scalar IntersectionExampleScenario.node[781].appl 	ArrivedAtDest 	0
scalar IntersectionExampleScenario.node[781].appl 	IntersectionEnterTime 	1776.75
scalar IntersectionExampleScenario.node[781].appl 	IntersectionExitTime 	-1
scalar IntersectionExampleScenario.node[781].appl 	NumberOfCollisions 	0
scalar IntersectionExampleScenario.node[781].nic.phy80211p 	busyTime 	0
scalar IntersectionExampleScenario.node[781].nic.mac1609_4 	ReceivedUnicastPackets 	0
scalar IntersectionExampleScenario.node[781].nic.mac1609_4 	ReceivedBroadcasts 	0
scalar IntersectionExampleScenario.node[781].nic.mac1609_4 	SentPackets 	0
scalar IntersectionExampleScenario.node[781].nic.mac1609_4 	SNIRLostPackets 	0
scalar IntersectionExampleScenario.node[781].nic.mac1609_4 	RXTXLostPackets 	0
scalar IntersectionExampleScenario.node[781].nic.mac1609_4 	TotalLostPackets 	0
scalar IntersectionExampleScenario.node[781].nic.mac1609_4 	DroppedPacketsInMac 	0
scalar IntersectionExampleScenario.node[781].nic.mac1609_4 	TooLittleTime 	0
scalar IntersectionExampleScenario.node[781].nic.mac1609_4 	TimesIntoBackoff 	0
scalar IntersectionExampleScenario.node[781].nic.mac1609_4 	SlotsBackoff 	0
scalar IntersectionExampleScenario.node[781].nic.mac1609_4 	NumInternalContention 	0
scalar IntersectionExampleScenario.node[781].nic.mac1609_4 	totalBusyTime 	0
scalar IntersectionExampleScenario.node[781].veinsmobility 	startTime 	1776.75
scalar IntersectionExampleScenario.node[781].veinsmobility 	totalTime 	23.25
scalar IntersectionExampleScenario.node[781].veinsmobility 	stopTime 	1800
scalar IntersectionExampleScenario.node[781].veinsmobility 	minSpeed 	5.0630650520325
scalar IntersectionExampleScenario.node[781].veinsmobility 	maxSpeed 	15.02499961853
scalar IntersectionExampleScenario.node[781].veinsmobility 	totalDistance 	269.53872680664
scalar IntersectionExampleScenario.node[781].veinsmobility 	totalCO2Emission 	66.704172246656
scalar IntersectionExampleScenario.node[782].appl 	VehicleRemoved 	0
scalar IntersectionExampleScenario.node[782].appl 	ArrivedAtDest 	0
scalar IntersectionExampleScenario.node[782].appl 	IntersectionEnterTime 	1778.5
scalar IntersectionExampleScenario.node[782].appl 	IntersectionExitTime 	-1
scalar IntersectionExampleScenario.node[782].appl 	NumberOfCollisions 	0
scalar IntersectionExampleScenario.node[782].nic.phy80211p 	busyTime 	0
scalar IntersectionExampleScenario.node[782].nic.mac1609_4 	ReceivedUnicastPackets 	0
scalar IntersectionExampleScenario.node[782].nic.mac1609_4 	ReceivedBroadcasts 	0
scalar IntersectionExampleScenario.node[782].nic.mac1609_4 	SentPackets 	0
scalar IntersectionExampleScenario.node[782].nic.mac1609_4 	SNIRLostPackets 	0
scalar IntersectionExampleScenario.node[782].nic.mac1609_4 	RXTXLostPackets 	0
scalar IntersectionExampleScenario.node[782].nic.mac1609_4 	TotalLostPackets 	0
scalar IntersectionExampleScenario.node[782].nic.mac1609_4 	DroppedPacketsInMac 	0
scalar IntersectionExampleScenario.node[782].nic.mac1609_4 	TooLittleTime 	0
scalar IntersectionExampleScenario.node[782].nic.mac1609_4 	TimesIntoBackoff 	0
scalar IntersectionExampleScenario.node[782].nic.mac1609_4 	SlotsBackoff 	0
scalar IntersectionExampleScenario.node[782].nic.mac1609_4 	NumInternalContention 	0
scalar IntersectionExampleScenario.node[782].nic.mac1609_4 	totalBusyTime 	0
scalar IntersectionExampleScenario.node[782].veinsmobility 	startTime 	1778.5
scalar IntersectionExampleScenario.node[782].veinsmobility 	totalTime 	21.5
scalar IntersectionExampleScenario.node[782].veinsmobility 	stopTime 	1800
scalar IntersectionExampleScenario.node[782].veinsmobility 	minSpeed 	5.6500000953674
scalar IntersectionExampleScenario.node[782].veinsmobility 	maxSpeed 	15.380535125732
scalar IntersectionExampleScenario.node[782].veinsmobility 	totalDistance 	275.88357543945
scalar IntersectionExampleScenario.node[782].veinsmobility 	totalCO2Emission 	63.709587577823
scalar IntersectionExampleScenario.node[783].appl 	VehicleRemoved 	0
scalar IntersectionExampleScenario.node[783].appl 	ArrivedAtDest 	0
scalar IntersectionExampleScenario.node[783].appl 	IntersectionEnterTime 	1779
scalar IntersectionExampleScenario.node[783].appl 	IntersectionExitTime 	-1
scalar IntersectionExampleScenario.node[783].appl 	NumberOfCollisions 	0
scalar IntersectionExampleScenario.node[783].nic.phy80211p 	busyTime 	0
scalar IntersectionExampleScenario.node[783].nic.mac1609_4 	ReceivedUnicastPackets 	0
scalar IntersectionExampleScenario.node[783].nic.mac1609_4 	ReceivedBroadcasts 	0
scalar IntersectionExampleScenario.node[783].nic.mac1609_4 	SentPackets 	0
scalar IntersectionExampleScenario.node[783].nic.mac1609_4 	SNIRLostPackets 	0
scalar IntersectionExampleScenario.node[783].nic.mac1609_4 	RXTXLostPackets 	0
scalar IntersectionExampleScenario.node[783].nic.mac1609_4 	TotalLostPackets 	0
scalar IntersectionExampleScenario.node[783].nic.mac1609_4 	DroppedPacketsInMac 	0
scalar IntersectionExampleScenario.node[783].nic.mac1609_4 	TooLittleTime 	0
scalar IntersectionExampleScenario.node[783].nic.mac1609_4 	TimesIntoBackoff 	0
scalar IntersectionExampleScenario.node[783].nic.mac1609_4 	SlotsBackoff 	0
scalar IntersectionExampleScenario.node[783].nic.mac1609_4 	NumInternalContention 	0
scalar IntersectionExampleScenario.node[783].nic.mac1609_4 	totalBusyTime 	0
scalar IntersectionExampleScenario.node[783].veinsmobility 	startTime 	1779
scalar IntersectionExampleScenario.node[783].veinsmobility 	totalTime 	21
scalar IntersectionExampleScenario.node[783].veinsmobility 	stopTime 	1800
scalar IntersectionExampleScenario.node[783].veinsmobility 	minSpeed 	3.127774477005
scalar IntersectionExampleScenario.node[783].veinsmobility 	maxSpeed 	15.013161659241
scalar IntersectionExampleScenario.node[783].veinsmobility 	totalDistance 	270.26000976562
scalar IntersectionExampleScenario.node[783].veinsmobility 	totalCO2Emission 	61.952374008497
scalar IntersectionExampleScenario.node[784].appl 	VehicleRemoved 	0
scalar IntersectionExampleScenario.node[784].appl 	ArrivedAtDest 	0
scalar IntersectionExampleScenario.node[784].appl 	IntersectionEnterTime 	1780
scalar IntersectionExampleScenario.node[784].appl 	IntersectionExitTime 	-1
scalar IntersectionExampleScenario.node[784].appl 	NumberOfCollisions 	0
scalar IntersectionExampleScenario.node[784].nic.phy80211p 	busyTime 	0
scalar IntersectionExampleScenario.node[784].nic.mac1609_4 	ReceivedUnicastPackets 	0
scalar IntersectionExampleScenario.node[784].nic.mac1609_4 	ReceivedBroadcasts 	0
scalar IntersectionExampleScenario.node[784].nic.mac1609_4 	SentPackets 	0
scalar IntersectionExampleScenario.node[784].nic.mac1609_4 	SNIRLostPackets 	0
scalar IntersectionExampleScenario.node[784].nic.mac1609_4 	RXTXLostPackets 	0
scalar IntersectionExampleScenario.node[784].nic.mac1609_4 	TotalLostPackets 	0
scalar IntersectionExampleScenario.node[784].nic.mac1609_4 	DroppedPacketsInMac 	0
scalar IntersectionExampleScenario.node[784].nic.mac1609_4 	TooLittleTime 	0
scalar IntersectionExampleScenario.node[784].nic.mac1609_4 	TimesIntoBackoff 	0
scalar IntersectionExampleScenario.node[784].nic.mac1609_4 	SlotsBackoff 	0
scalar IntersectionExampleScenario.node[784].nic.mac1609_4 	NumInternalContention 	0
scalar IntersectionExampleScenario.node[784].nic.mac1609_4 	totalBusyTime 	0
scalar IntersectionExampleScenario.node[784].veinsmobility 	startTime 	1780
scalar IntersectionExampleScenario.node[784].veinsmobility 	totalTime 	20
scalar IntersectionExampleScenario.node[784].veinsmobility 	stopTime 	1800
scalar IntersectionExampleScenario.node[784].veinsmobility 	minSpeed 	5.6500000953674
scalar IntersectionExampleScenario.node[784].veinsmobility 	maxSpeed 	15.585287094116
scalar IntersectionExampleScenario.node[784].veinsmobility 	totalDistance 	251.39291381836
scalar IntersectionExampleScenario.node[784].veinsmobility 	totalCO2Emission 	67.579551437754
scalar IntersectionExampleScenario.node[785].appl 	VehicleRemoved 	0
scalar IntersectionExampleScenario.node[785].appl 	ArrivedAtDest 	0
scalar IntersectionExampleScenario.node[785].appl 	IntersectionEnterTime 	1786.5
scalar IntersectionExampleScenario.node[785].appl 	IntersectionExitTime 	-1
scalar IntersectionExampleScenario.node[785].appl 	NumberOfCollisions 	0
scalar IntersectionExampleScenario.node[785].nic.phy80211p 	busyTime 	0
scalar IntersectionExampleScenario.node[785].nic.mac1609_4 	ReceivedUnicastPackets 	0
scalar IntersectionExampleScenario.node[785].nic.mac1609_4 	ReceivedBroadcasts 	0
scalar IntersectionExampleScenario.node[785].nic.mac1609_4 	SentPackets 	0
scalar IntersectionExampleScenario.node[785].nic.mac1609_4 	SNIRLostPackets 	0
scalar IntersectionExampleScenario.node[785].nic.mac1609_4 	RXTXLostPackets 	0
scalar IntersectionExampleScenario.node[785].nic.mac1609_4 	TotalLostPackets 	0
scalar IntersectionExampleScenario.node[785].nic.mac1609_4 	DroppedPacketsInMac 	0
scalar IntersectionExampleScenario.node[785].nic.mac1609_4 	TooLittleTime 	0
scalar IntersectionExampleScenario.node[785].nic.mac1609_4 	TimesIntoBackoff 	0
scalar IntersectionExampleScenario.node[785].nic.mac1609_4 	SlotsBackoff 	0
scalar IntersectionExampleScenario.node[785].nic.mac1609_4 	NumInternalContention 	0
scalar IntersectionExampleScenario.node[785].nic.mac1609_4 	totalBusyTime 	0
scalar IntersectionExampleScenario.node[785].veinsmobility 	startTime 	1786.5
scalar IntersectionExampleScenario.node[785].veinsmobility 	totalTime 	13.5
scalar IntersectionExampleScenario.node[785].veinsmobility 	stopTime 	1800
scalar IntersectionExampleScenario.node[785].veinsmobility 	minSpeed 	5.6500000953674
scalar IntersectionExampleScenario.node[785].veinsmobility 	maxSpeed 	15.02499961853
scalar IntersectionExampleScenario.node[785].veinsmobility 	totalDistance 	180.08325195312
scalar IntersectionExampleScenario.node[785].veinsmobility 	totalCO2Emission 	51.913823432397
scalar IntersectionExampleScenario.node[786].appl 	VehicleRemoved 	0
scalar IntersectionExampleScenario.node[786].appl 	ArrivedAtDest 	0
scalar IntersectionExampleScenario.node[786].appl 	IntersectionEnterTime 	1787
scalar IntersectionExampleScenario.node[786].appl 	IntersectionExitTime 	-1
scalar IntersectionExampleScenario.node[786].appl 	NumberOfCollisions 	0
scalar IntersectionExampleScenario.node[786].nic.phy80211p 	busyTime 	0
scalar IntersectionExampleScenario.node[786].nic.mac1609_4 	ReceivedUnicastPackets 	0
scalar IntersectionExampleScenario.node[786].nic.mac1609_4 	ReceivedBroadcasts 	0
scalar IntersectionExampleScenario.node[786].nic.mac1609_4 	SentPackets 	0
scalar IntersectionExampleScenario.node[786].nic.mac1609_4 	SNIRLostPackets 	0
scalar IntersectionExampleScenario.node[786].nic.mac1609_4 	RXTXLostPackets 	0
scalar IntersectionExampleScenario.node[786].nic.mac1609_4 	TotalLostPackets 	0
scalar IntersectionExampleScenario.node[786].nic.mac1609_4 	DroppedPacketsInMac 	0
scalar IntersectionExampleScenario.node[786].nic.mac1609_4 	TooLittleTime 	0
scalar IntersectionExampleScenario.node[786].nic.mac1609_4 	TimesIntoBackoff 	0
scalar IntersectionExampleScenario.node[786].nic.mac1609_4 	SlotsBackoff 	0
scalar IntersectionExampleScenario.node[786].nic.mac1609_4 	NumInternalContention 	0
scalar IntersectionExampleScenario.node[786].nic.mac1609_4 	totalBusyTime 	0
scalar IntersectionExampleScenario.node[786].veinsmobility 	startTime 	1787
scalar IntersectionExampleScenario.node[786].veinsmobility 	totalTime 	13
scalar IntersectionExampleScenario.node[786].veinsmobility 	stopTime 	1800
scalar IntersectionExampleScenario.node[786].veinsmobility 	minSpeed 	5.6500000953674
scalar IntersectionExampleScenario.node[786].veinsmobility 	maxSpeed 	15.620594024658
scalar IntersectionExampleScenario.node[786].veinsmobility 	totalDistance 	177.66943359375
scalar IntersectionExampleScenario.node[786].veinsmobility 	totalCO2Emission 	52.497990416618
scalar IntersectionExampleScenario.node[787].appl 	VehicleRemoved 	0
scalar IntersectionExampleScenario.node[787].appl 	ArrivedAtDest 	0
scalar IntersectionExampleScenario.node[787].appl 	IntersectionEnterTime 	1790.5
scalar IntersectionExampleScenario.node[787].appl 	IntersectionExitTime 	-1
scalar IntersectionExampleScenario.node[787].appl 	NumberOfCollisions 	0
scalar IntersectionExampleScenario.node[787].nic.phy80211p 	busyTime 	0
scalar IntersectionExampleScenario.node[787].nic.mac1609_4 	ReceivedUnicastPackets 	0
scalar IntersectionExampleScenario.node[787].nic.mac1609_4 	ReceivedBroadcasts 	0
scalar IntersectionExampleScenario.node[787].nic.mac1609_4 	SentPackets 	0
scalar IntersectionExampleScenario.node[787].nic.mac1609_4 	SNIRLostPackets 	0
scalar IntersectionExampleScenario.node[787].nic.mac1609_4 	RXTXLostPackets 	0
scalar IntersectionExampleScenario.node[787].nic.mac1609_4 	TotalLostPackets 	0
scalar IntersectionExampleScenario.node[787].nic.mac1609_4 	DroppedPacketsInMac 	0
scalar IntersectionExampleScenario.node[787].nic.mac1609_4 	TooLittleTime 	0
scalar IntersectionExampleScenario.node[787].nic.mac1609_4 	TimesIntoBackoff 	0
scalar IntersectionExampleScenario.node[787].nic.mac1609_4 	SlotsBackoff 	0
scalar IntersectionExampleScenario.node[787].nic.mac1609_4 	NumInternalContention 	0
scalar IntersectionExampleScenario.node[787].nic.mac1609_4 	totalBusyTime 	0
scalar IntersectionExampleScenario.node[787].veinsmobility 	startTime 	1790.5
scalar IntersectionExampleScenario.node[787].veinsmobility 	totalTime 	9.5
scalar IntersectionExampleScenario.node[787].veinsmobility 	stopTime 	1800
scalar IntersectionExampleScenario.node[787].veinsmobility 	minSpeed 	5.6500000953674
scalar IntersectionExampleScenario.node[787].veinsmobility 	maxSpeed 	15.64999961853
scalar IntersectionExampleScenario.node[787].veinsmobility 	totalDistance 	124.25188446045
scalar IntersectionExampleScenario.node[787].veinsmobility 	totalCO2Emission 	43.542122783325
scalar IntersectionExampleScenario.node[788].appl 	VehicleRemoved 	0
scalar IntersectionExampleScenario.node[788].appl 	ArrivedAtDest 	0
scalar IntersectionExampleScenario.node[788].appl 	IntersectionEnterTime 	1799.25
scalar IntersectionExampleScenario.node[788].appl 	IntersectionExitTime 	-1
scalar IntersectionExampleScenario.node[788].appl 	NumberOfCollisions 	0
scalar IntersectionExampleScenario.node[788].nic.phy80211p 	busyTime 	0
scalar IntersectionExampleScenario.node[788].nic.mac1609_4 	ReceivedUnicastPackets 	0
scalar IntersectionExampleScenario.node[788].nic.mac1609_4 	ReceivedBroadcasts 	0
scalar IntersectionExampleScenario.node[788].nic.mac1609_4 	SentPackets 	0
scalar IntersectionExampleScenario.node[788].nic.mac1609_4 	SNIRLostPackets 	0
scalar IntersectionExampleScenario.node[788].nic.mac1609_4 	RXTXLostPackets 	0
scalar IntersectionExampleScenario.node[788].nic.mac1609_4 	TotalLostPackets 	0
scalar IntersectionExampleScenario.node[788].nic.mac1609_4 	DroppedPacketsInMac 	0
scalar IntersectionExampleScenario.node[788].nic.mac1609_4 	TooLittleTime 	0
scalar IntersectionExampleScenario.node[788].nic.mac1609_4 	TimesIntoBackoff 	0
scalar IntersectionExampleScenario.node[788].nic.mac1609_4 	SlotsBackoff 	0
scalar IntersectionExampleScenario.node[788].nic.mac1609_4 	NumInternalContention 	0
scalar IntersectionExampleScenario.node[788].nic.mac1609_4 	totalBusyTime 	0
scalar IntersectionExampleScenario.node[788].veinsmobility 	startTime 	1799.25
scalar IntersectionExampleScenario.node[788].veinsmobility 	totalTime 	0.75
scalar IntersectionExampleScenario.node[788].veinsmobility 	stopTime 	1800
scalar IntersectionExampleScenario.node[788].veinsmobility 	minSpeed 	5.6500000953674
scalar IntersectionExampleScenario.node[788].veinsmobility 	maxSpeed 	6.9000000953674
scalar IntersectionExampleScenario.node[788].veinsmobility 	totalDistance 	4.471923828125
scalar IntersectionExampleScenario.node[788].veinsmobility 	totalCO2Emission 	2.7116680206665
