version 2
run nodebug-21-20200606-09:43:41-21192
attr configname nodebug
attr datetime 20200606-09:43:41
attr experiment nodebug
attr inifile omnetpp.ini
attr iterationvars ""
attr iterationvars2 $repetition=21
attr measurement ""
attr network "\"org.car2x.veins.modules.application.ExtTraCIScenarioManagerLaunchd.IntersectionExampleScenario\""
attr processid 21192
attr repetition 21
attr replication #21
attr resultdir results
attr runnumber 21
attr seedset 21
param **.coreDebug false
param **.debug false
param *.**.nic.mac1609_4.bitrate 18Mbps
param *.**.nic.mac1609_4.txPower 20mW
param *.**.nic.mac1609_4.useServiceChannel false
param *.**.nic.phy80211p.analogueModels "xmldoc(\"config.xml\")"
param *.**.nic.phy80211p.decider "xmldoc(\"config.xml\")"
param *.**.nic.phy80211p.sensitivity -89dBm
param *.**.nic.phy80211p.thermalNoise -110dBm
param *.**.nic.phy80211p.usePropagationDelay true
param *.**.nic.phy80211p.useThermalNoise true
param *.annotations.draw false
param *.connectionManager.alpha 2.0
param *.connectionManager.carrierFrequency "5.890e9 Hz"
param *.connectionManager.pMax 20mW
param *.connectionManager.sat -89dBm
param *.connectionManager.sendDirect true
param *.manager.autoShutdown true
param *.manager.host "\"localhost\""
param *.manager.launchConfig "xmldoc(\"paramics.launchd.xml\")"
param *.manager.margin 25
param *.manager.moduleDisplayString "\"\""
param *.manager.moduleName "\"node\""
param *.manager.moduleType "\"org.car2x.veins.nodes.Car\""
param *.manager.port 9999
param *.manager.updateInterval 250ms
param *.node[*0].veinsmobility.accidentCount 0
param *.node[*0].veinsmobility.accidentDuration 30s
param *.node[*0].veinsmobility.accidentStart 75s
param *.node[*].appl.LiderSelectZoneRadio 55.0
param *.node[*].appl.ShareDataZoneRadio 110.0
param *.node[*].appl.TiempoSemaforo 30.0
param *.node[*].appl.beaconInterval 1s
param *.node[*].appl.beaconPriority 3
param *.node[*].appl.dataOnSch false
param *.node[*].appl.dataPriority 2
param *.node[*].appl.debug false
param *.node[*].appl.headerLength "256 bit"
param *.node[*].appl.maxOffset 0.005s
param *.node[*].appl.sendBeacons false
param *.node[*].appl.sendData true
param *.node[*].applType "\"Dummy\""
param *.node[*].mobilityType "\"TraCIMobility\""
param *.node[*].mobilityType.debug true
param *.node[*].veinsmobility.x 0
param *.node[*].veinsmobility.y 0
param *.node[*].veinsmobility.z 1.895
param *.node[*].veinsmobilityType "\"org.car2x.veins.modules.mobility.traci.TraCIMobility\""
param *.node[*].veinsmobilityType.debug true
param *.playgroundSizeX 8500m
param *.playgroundSizeY 8500m
param *.playgroundSizeZ 50m
param *.world.use2D false
param *.world.useTorus false

scalar IntersectionExampleScenario.node[0].appl 	VehicleRemoved 	0
scalar IntersectionExampleScenario.node[0].appl 	ArrivedAtDest 	1
scalar IntersectionExampleScenario.node[0].appl 	IntersectionEnterTime 	1.5
scalar IntersectionExampleScenario.node[0].appl 	IntersectionExitTime 	25.002702031052
scalar IntersectionExampleScenario.node[0].appl 	NumberOfCollisions 	0
scalar IntersectionExampleScenario.node[0].nic.phy80211p 	busyTime 	0
scalar IntersectionExampleScenario.node[0].nic.mac1609_4 	ReceivedUnicastPackets 	0
scalar IntersectionExampleScenario.node[0].nic.mac1609_4 	ReceivedBroadcasts 	0
scalar IntersectionExampleScenario.node[0].nic.mac1609_4 	SentPackets 	0
scalar IntersectionExampleScenario.node[0].nic.mac1609_4 	SNIRLostPackets 	0
scalar IntersectionExampleScenario.node[0].nic.mac1609_4 	RXTXLostPackets 	0
scalar IntersectionExampleScenario.node[0].nic.mac1609_4 	TotalLostPackets 	0
scalar IntersectionExampleScenario.node[0].nic.mac1609_4 	DroppedPacketsInMac 	0
scalar IntersectionExampleScenario.node[0].nic.mac1609_4 	TooLittleTime 	0
scalar IntersectionExampleScenario.node[0].nic.mac1609_4 	TimesIntoBackoff 	0
scalar IntersectionExampleScenario.node[0].nic.mac1609_4 	SlotsBackoff 	0
scalar IntersectionExampleScenario.node[0].nic.mac1609_4 	NumInternalContention 	0
scalar IntersectionExampleScenario.node[0].nic.mac1609_4 	totalBusyTime 	0
scalar IntersectionExampleScenario.node[0].veinsmobility 	startTime 	1.5
scalar IntersectionExampleScenario.node[0].veinsmobility 	totalTime 	40
scalar IntersectionExampleScenario.node[0].veinsmobility 	stopTime 	41.75
scalar IntersectionExampleScenario.node[0].veinsmobility 	minSpeed 	5.6500000953674
scalar IntersectionExampleScenario.node[0].veinsmobility 	maxSpeed 	15.02499961853
scalar IntersectionExampleScenario.node[0].veinsmobility 	totalDistance 	551.98734283447
scalar IntersectionExampleScenario.node[0].veinsmobility 	totalCO2Emission 	113.58977997837
scalar IntersectionExampleScenario.node[6].appl 	VehicleRemoved 	0
scalar IntersectionExampleScenario.node[6].appl 	ArrivedAtDest 	1
scalar IntersectionExampleScenario.node[6].appl 	IntersectionEnterTime 	9
scalar IntersectionExampleScenario.node[6].appl 	IntersectionExitTime 	32.770979471039
scalar IntersectionExampleScenario.node[6].appl 	NumberOfCollisions 	0
scalar IntersectionExampleScenario.node[6].nic.phy80211p 	busyTime 	0
scalar IntersectionExampleScenario.node[6].nic.mac1609_4 	ReceivedUnicastPackets 	0
scalar IntersectionExampleScenario.node[6].nic.mac1609_4 	ReceivedBroadcasts 	0
scalar IntersectionExampleScenario.node[6].nic.mac1609_4 	SentPackets 	0
scalar IntersectionExampleScenario.node[6].nic.mac1609_4 	SNIRLostPackets 	0
scalar IntersectionExampleScenario.node[6].nic.mac1609_4 	RXTXLostPackets 	0
scalar IntersectionExampleScenario.node[6].nic.mac1609_4 	TotalLostPackets 	0
scalar IntersectionExampleScenario.node[6].nic.mac1609_4 	DroppedPacketsInMac 	0
scalar IntersectionExampleScenario.node[6].nic.mac1609_4 	TooLittleTime 	0
scalar IntersectionExampleScenario.node[6].nic.mac1609_4 	TimesIntoBackoff 	0
scalar IntersectionExampleScenario.node[6].nic.mac1609_4 	SlotsBackoff 	0
scalar IntersectionExampleScenario.node[6].nic.mac1609_4 	NumInternalContention 	0
scalar IntersectionExampleScenario.node[6].nic.mac1609_4 	totalBusyTime 	0
scalar IntersectionExampleScenario.node[6].veinsmobility 	startTime 	9
scalar IntersectionExampleScenario.node[6].veinsmobility 	totalTime 	41
scalar IntersectionExampleScenario.node[6].veinsmobility 	stopTime 	50.25
scalar IntersectionExampleScenario.node[6].veinsmobility 	minSpeed 	5.6500000953674
scalar IntersectionExampleScenario.node[6].veinsmobility 	maxSpeed 	15.25
scalar IntersectionExampleScenario.node[6].veinsmobility 	totalDistance 	546.54577605313
scalar IntersectionExampleScenario.node[6].veinsmobility 	totalCO2Emission 	124.03129676257
scalar IntersectionExampleScenario.node[1].appl 	VehicleRemoved 	0
scalar IntersectionExampleScenario.node[1].appl 	ArrivedAtDest 	1
scalar IntersectionExampleScenario.node[1].appl 	IntersectionEnterTime 	3
scalar IntersectionExampleScenario.node[1].appl 	IntersectionExitTime 	40.332988786919
scalar IntersectionExampleScenario.node[1].appl 	NumberOfCollisions 	0
scalar IntersectionExampleScenario.node[1].nic.phy80211p 	busyTime 	0
scalar IntersectionExampleScenario.node[1].nic.mac1609_4 	ReceivedUnicastPackets 	0
scalar IntersectionExampleScenario.node[1].nic.mac1609_4 	ReceivedBroadcasts 	0
scalar IntersectionExampleScenario.node[1].nic.mac1609_4 	SentPackets 	0
scalar IntersectionExampleScenario.node[1].nic.mac1609_4 	SNIRLostPackets 	0
scalar IntersectionExampleScenario.node[1].nic.mac1609_4 	RXTXLostPackets 	0
scalar IntersectionExampleScenario.node[1].nic.mac1609_4 	TotalLostPackets 	0
scalar IntersectionExampleScenario.node[1].nic.mac1609_4 	DroppedPacketsInMac 	0
scalar IntersectionExampleScenario.node[1].nic.mac1609_4 	TooLittleTime 	0
scalar IntersectionExampleScenario.node[1].nic.mac1609_4 	TimesIntoBackoff 	0
scalar IntersectionExampleScenario.node[1].nic.mac1609_4 	SlotsBackoff 	0
scalar IntersectionExampleScenario.node[1].nic.mac1609_4 	NumInternalContention 	0
scalar IntersectionExampleScenario.node[1].nic.mac1609_4 	totalBusyTime 	0
scalar IntersectionExampleScenario.node[1].veinsmobility 	startTime 	3
scalar IntersectionExampleScenario.node[1].veinsmobility 	totalTime 	52.5
scalar IntersectionExampleScenario.node[1].veinsmobility 	stopTime 	55.75
scalar IntersectionExampleScenario.node[1].veinsmobility 	minSpeed 	0
scalar IntersectionExampleScenario.node[1].veinsmobility 	maxSpeed 	16.27499961853
scalar IntersectionExampleScenario.node[1].veinsmobility 	totalDistance 	552.12620544434
scalar IntersectionExampleScenario.node[1].veinsmobility 	totalCO2Emission 	152.01058413484
scalar IntersectionExampleScenario.node[3].appl 	VehicleRemoved 	0
scalar IntersectionExampleScenario.node[3].appl 	ArrivedAtDest 	1
scalar IntersectionExampleScenario.node[3].appl 	IntersectionEnterTime 	7.5
scalar IntersectionExampleScenario.node[3].appl 	IntersectionExitTime 	40.357962455339
scalar IntersectionExampleScenario.node[3].appl 	NumberOfCollisions 	0
scalar IntersectionExampleScenario.node[3].nic.phy80211p 	busyTime 	0
scalar IntersectionExampleScenario.node[3].nic.mac1609_4 	ReceivedUnicastPackets 	0
scalar IntersectionExampleScenario.node[3].nic.mac1609_4 	ReceivedBroadcasts 	0
scalar IntersectionExampleScenario.node[3].nic.mac1609_4 	SentPackets 	0
scalar IntersectionExampleScenario.node[3].nic.mac1609_4 	SNIRLostPackets 	0
scalar IntersectionExampleScenario.node[3].nic.mac1609_4 	RXTXLostPackets 	0
scalar IntersectionExampleScenario.node[3].nic.mac1609_4 	TotalLostPackets 	0
scalar IntersectionExampleScenario.node[3].nic.mac1609_4 	DroppedPacketsInMac 	0
scalar IntersectionExampleScenario.node[3].nic.mac1609_4 	TooLittleTime 	0
scalar IntersectionExampleScenario.node[3].nic.mac1609_4 	TimesIntoBackoff 	0
scalar IntersectionExampleScenario.node[3].nic.mac1609_4 	SlotsBackoff 	0
scalar IntersectionExampleScenario.node[3].nic.mac1609_4 	NumInternalContention 	0
scalar IntersectionExampleScenario.node[3].nic.mac1609_4 	totalBusyTime 	0
scalar IntersectionExampleScenario.node[3].veinsmobility 	startTime 	7.5
scalar IntersectionExampleScenario.node[3].veinsmobility 	totalTime 	49.5
scalar IntersectionExampleScenario.node[3].veinsmobility 	stopTime 	57.25
scalar IntersectionExampleScenario.node[3].veinsmobility 	minSpeed 	0
scalar IntersectionExampleScenario.node[3].veinsmobility 	maxSpeed 	15.02499961853
scalar IntersectionExampleScenario.node[3].veinsmobility 	totalDistance 	551.50496019473
scalar IntersectionExampleScenario.node[3].veinsmobility 	totalCO2Emission 	137.13361682839
scalar IntersectionExampleScenario.node[4].appl 	VehicleRemoved 	0
scalar IntersectionExampleScenario.node[4].appl 	ArrivedAtDest 	1
scalar IntersectionExampleScenario.node[4].appl 	IntersectionEnterTime 	8.25
scalar IntersectionExampleScenario.node[4].appl 	IntersectionExitTime 	41.548031253915
scalar IntersectionExampleScenario.node[4].appl 	NumberOfCollisions 	0
scalar IntersectionExampleScenario.node[4].nic.phy80211p 	busyTime 	0
scalar IntersectionExampleScenario.node[4].nic.mac1609_4 	ReceivedUnicastPackets 	0
scalar IntersectionExampleScenario.node[4].nic.mac1609_4 	ReceivedBroadcasts 	0
scalar IntersectionExampleScenario.node[4].nic.mac1609_4 	SentPackets 	0
scalar IntersectionExampleScenario.node[4].nic.mac1609_4 	SNIRLostPackets 	0
scalar IntersectionExampleScenario.node[4].nic.mac1609_4 	RXTXLostPackets 	0
scalar IntersectionExampleScenario.node[4].nic.mac1609_4 	TotalLostPackets 	0
scalar IntersectionExampleScenario.node[4].nic.mac1609_4 	DroppedPacketsInMac 	0
scalar IntersectionExampleScenario.node[4].nic.mac1609_4 	TooLittleTime 	0
scalar IntersectionExampleScenario.node[4].nic.mac1609_4 	TimesIntoBackoff 	0
scalar IntersectionExampleScenario.node[4].nic.mac1609_4 	SlotsBackoff 	0
scalar IntersectionExampleScenario.node[4].nic.mac1609_4 	NumInternalContention 	0
scalar IntersectionExampleScenario.node[4].nic.mac1609_4 	totalBusyTime 	0
scalar IntersectionExampleScenario.node[4].veinsmobility 	startTime 	8.25
scalar IntersectionExampleScenario.node[4].veinsmobility 	totalTime 	49.75
scalar IntersectionExampleScenario.node[4].veinsmobility 	stopTime 	58.25
scalar IntersectionExampleScenario.node[4].veinsmobility 	minSpeed 	0
scalar IntersectionExampleScenario.node[4].veinsmobility 	maxSpeed 	14.966135025024
scalar IntersectionExampleScenario.node[4].veinsmobility 	totalDistance 	576.95600128174
scalar IntersectionExampleScenario.node[4].veinsmobility 	totalCO2Emission 	139.29108216468
scalar IntersectionExampleScenario.node[2].appl 	VehicleRemoved 	0
scalar IntersectionExampleScenario.node[2].appl 	ArrivedAtDest 	1
scalar IntersectionExampleScenario.node[2].appl 	IntersectionEnterTime 	7
scalar IntersectionExampleScenario.node[2].appl 	IntersectionExitTime 	42.608425561164
scalar IntersectionExampleScenario.node[2].appl 	NumberOfCollisions 	0
scalar IntersectionExampleScenario.node[2].nic.phy80211p 	busyTime 	0
scalar IntersectionExampleScenario.node[2].nic.mac1609_4 	ReceivedUnicastPackets 	0
scalar IntersectionExampleScenario.node[2].nic.mac1609_4 	ReceivedBroadcasts 	0
scalar IntersectionExampleScenario.node[2].nic.mac1609_4 	SentPackets 	0
scalar IntersectionExampleScenario.node[2].nic.mac1609_4 	SNIRLostPackets 	0
scalar IntersectionExampleScenario.node[2].nic.mac1609_4 	RXTXLostPackets 	0
scalar IntersectionExampleScenario.node[2].nic.mac1609_4 	TotalLostPackets 	0
scalar IntersectionExampleScenario.node[2].nic.mac1609_4 	DroppedPacketsInMac 	0
scalar IntersectionExampleScenario.node[2].nic.mac1609_4 	TooLittleTime 	0
scalar IntersectionExampleScenario.node[2].nic.mac1609_4 	TimesIntoBackoff 	0
scalar IntersectionExampleScenario.node[2].nic.mac1609_4 	SlotsBackoff 	0
scalar IntersectionExampleScenario.node[2].nic.mac1609_4 	NumInternalContention 	0
scalar IntersectionExampleScenario.node[2].nic.mac1609_4 	totalBusyTime 	0
scalar IntersectionExampleScenario.node[2].veinsmobility 	startTime 	7
scalar IntersectionExampleScenario.node[2].veinsmobility 	totalTime 	51.5
scalar IntersectionExampleScenario.node[2].veinsmobility 	stopTime 	58.75
scalar IntersectionExampleScenario.node[2].veinsmobility 	minSpeed 	0
scalar IntersectionExampleScenario.node[2].veinsmobility 	maxSpeed 	15.64999961853
scalar IntersectionExampleScenario.node[2].veinsmobility 	totalDistance 	558.78143310547
scalar IntersectionExampleScenario.node[2].veinsmobility 	totalCO2Emission 	142.26852835558
scalar IntersectionExampleScenario.node[7].appl 	VehicleRemoved 	0
scalar IntersectionExampleScenario.node[7].appl 	ArrivedAtDest 	1
scalar IntersectionExampleScenario.node[7].appl 	IntersectionEnterTime 	12
scalar IntersectionExampleScenario.node[7].appl 	IntersectionExitTime 	43.307517542038
scalar IntersectionExampleScenario.node[7].appl 	NumberOfCollisions 	0
scalar IntersectionExampleScenario.node[7].nic.phy80211p 	busyTime 	0
scalar IntersectionExampleScenario.node[7].nic.mac1609_4 	ReceivedUnicastPackets 	0
scalar IntersectionExampleScenario.node[7].nic.mac1609_4 	ReceivedBroadcasts 	0
scalar IntersectionExampleScenario.node[7].nic.mac1609_4 	SentPackets 	0
scalar IntersectionExampleScenario.node[7].nic.mac1609_4 	SNIRLostPackets 	0
scalar IntersectionExampleScenario.node[7].nic.mac1609_4 	RXTXLostPackets 	0
scalar IntersectionExampleScenario.node[7].nic.mac1609_4 	TotalLostPackets 	0
scalar IntersectionExampleScenario.node[7].nic.mac1609_4 	DroppedPacketsInMac 	0
scalar IntersectionExampleScenario.node[7].nic.mac1609_4 	TooLittleTime 	0
scalar IntersectionExampleScenario.node[7].nic.mac1609_4 	TimesIntoBackoff 	0
scalar IntersectionExampleScenario.node[7].nic.mac1609_4 	SlotsBackoff 	0
scalar IntersectionExampleScenario.node[7].nic.mac1609_4 	NumInternalContention 	0
scalar IntersectionExampleScenario.node[7].nic.mac1609_4 	totalBusyTime 	0
scalar IntersectionExampleScenario.node[7].veinsmobility 	startTime 	12
scalar IntersectionExampleScenario.node[7].veinsmobility 	totalTime 	47.5
scalar IntersectionExampleScenario.node[7].veinsmobility 	stopTime 	59.75
scalar IntersectionExampleScenario.node[7].veinsmobility 	minSpeed 	1.8162336349487
scalar IntersectionExampleScenario.node[7].veinsmobility 	maxSpeed 	15.381018638611
scalar IntersectionExampleScenario.node[7].veinsmobility 	totalDistance 	569.92148505021
scalar IntersectionExampleScenario.node[7].veinsmobility 	totalCO2Emission 	139.98393740627
scalar IntersectionExampleScenario.node[5].appl 	VehicleRemoved 	0
scalar IntersectionExampleScenario.node[5].appl 	ArrivedAtDest 	1
scalar IntersectionExampleScenario.node[5].appl 	IntersectionEnterTime 	8.5
scalar IntersectionExampleScenario.node[5].appl 	IntersectionExitTime 	44.356762858573
scalar IntersectionExampleScenario.node[5].appl 	NumberOfCollisions 	0
scalar IntersectionExampleScenario.node[5].nic.phy80211p 	busyTime 	0
scalar IntersectionExampleScenario.node[5].nic.mac1609_4 	ReceivedUnicastPackets 	0
scalar IntersectionExampleScenario.node[5].nic.mac1609_4 	ReceivedBroadcasts 	0
scalar IntersectionExampleScenario.node[5].nic.mac1609_4 	SentPackets 	0
scalar IntersectionExampleScenario.node[5].nic.mac1609_4 	SNIRLostPackets 	0
scalar IntersectionExampleScenario.node[5].nic.mac1609_4 	RXTXLostPackets 	0
scalar IntersectionExampleScenario.node[5].nic.mac1609_4 	TotalLostPackets 	0
scalar IntersectionExampleScenario.node[5].nic.mac1609_4 	DroppedPacketsInMac 	0
scalar IntersectionExampleScenario.node[5].nic.mac1609_4 	TooLittleTime 	0
scalar IntersectionExampleScenario.node[5].nic.mac1609_4 	TimesIntoBackoff 	0
scalar IntersectionExampleScenario.node[5].nic.mac1609_4 	SlotsBackoff 	0
scalar IntersectionExampleScenario.node[5].nic.mac1609_4 	NumInternalContention 	0
scalar IntersectionExampleScenario.node[5].nic.mac1609_4 	totalBusyTime 	0
scalar IntersectionExampleScenario.node[5].veinsmobility 	startTime 	8.5
scalar IntersectionExampleScenario.node[5].veinsmobility 	totalTime 	52
scalar IntersectionExampleScenario.node[5].veinsmobility 	stopTime 	60.75
scalar IntersectionExampleScenario.node[5].veinsmobility 	minSpeed 	1.9062651395798
scalar IntersectionExampleScenario.node[5].veinsmobility 	maxSpeed 	15.64999961853
scalar IntersectionExampleScenario.node[5].veinsmobility 	totalDistance 	577.97192382812
scalar IntersectionExampleScenario.node[5].veinsmobility 	totalCO2Emission 	143.81901073093
scalar IntersectionExampleScenario.node[9].appl 	VehicleRemoved 	0
scalar IntersectionExampleScenario.node[9].appl 	ArrivedAtDest 	1
scalar IntersectionExampleScenario.node[9].appl 	IntersectionEnterTime 	22.75
scalar IntersectionExampleScenario.node[9].appl 	IntersectionExitTime 	46.081594509073
scalar IntersectionExampleScenario.node[9].appl 	NumberOfCollisions 	0
scalar IntersectionExampleScenario.node[9].nic.phy80211p 	busyTime 	0
scalar IntersectionExampleScenario.node[9].nic.mac1609_4 	ReceivedUnicastPackets 	0
scalar IntersectionExampleScenario.node[9].nic.mac1609_4 	ReceivedBroadcasts 	0
scalar IntersectionExampleScenario.node[9].nic.mac1609_4 	SentPackets 	0
scalar IntersectionExampleScenario.node[9].nic.mac1609_4 	SNIRLostPackets 	0
scalar IntersectionExampleScenario.node[9].nic.mac1609_4 	RXTXLostPackets 	0
scalar IntersectionExampleScenario.node[9].nic.mac1609_4 	TotalLostPackets 	0
scalar IntersectionExampleScenario.node[9].nic.mac1609_4 	DroppedPacketsInMac 	0
scalar IntersectionExampleScenario.node[9].nic.mac1609_4 	TooLittleTime 	0
scalar IntersectionExampleScenario.node[9].nic.mac1609_4 	TimesIntoBackoff 	0
scalar IntersectionExampleScenario.node[9].nic.mac1609_4 	SlotsBackoff 	0
scalar IntersectionExampleScenario.node[9].nic.mac1609_4 	NumInternalContention 	0
scalar IntersectionExampleScenario.node[9].nic.mac1609_4 	totalBusyTime 	0
scalar IntersectionExampleScenario.node[9].veinsmobility 	startTime 	22.75
scalar IntersectionExampleScenario.node[9].veinsmobility 	totalTime 	39
scalar IntersectionExampleScenario.node[9].veinsmobility 	stopTime 	62
scalar IntersectionExampleScenario.node[9].veinsmobility 	minSpeed 	5.6500000953674
scalar IntersectionExampleScenario.node[9].veinsmobility 	maxSpeed 	15.976786613464
scalar IntersectionExampleScenario.node[9].veinsmobility 	totalDistance 	552.94187164307
scalar IntersectionExampleScenario.node[9].veinsmobility 	totalCO2Emission 	132.54226887257
scalar IntersectionExampleScenario.node[8].appl 	VehicleRemoved 	0
scalar IntersectionExampleScenario.node[8].appl 	ArrivedAtDest 	1
scalar IntersectionExampleScenario.node[8].appl 	IntersectionEnterTime 	12.25
scalar IntersectionExampleScenario.node[8].appl 	IntersectionExitTime 	46.590835555544
scalar IntersectionExampleScenario.node[8].appl 	NumberOfCollisions 	0
scalar IntersectionExampleScenario.node[8].nic.phy80211p 	busyTime 	0
scalar IntersectionExampleScenario.node[8].nic.mac1609_4 	ReceivedUnicastPackets 	0
scalar IntersectionExampleScenario.node[8].nic.mac1609_4 	ReceivedBroadcasts 	0
scalar IntersectionExampleScenario.node[8].nic.mac1609_4 	SentPackets 	0
scalar IntersectionExampleScenario.node[8].nic.mac1609_4 	SNIRLostPackets 	0
scalar IntersectionExampleScenario.node[8].nic.mac1609_4 	RXTXLostPackets 	0
scalar IntersectionExampleScenario.node[8].nic.mac1609_4 	TotalLostPackets 	0
scalar IntersectionExampleScenario.node[8].nic.mac1609_4 	DroppedPacketsInMac 	0
scalar IntersectionExampleScenario.node[8].nic.mac1609_4 	TooLittleTime 	0
scalar IntersectionExampleScenario.node[8].nic.mac1609_4 	TimesIntoBackoff 	0
scalar IntersectionExampleScenario.node[8].nic.mac1609_4 	SlotsBackoff 	0
scalar IntersectionExampleScenario.node[8].nic.mac1609_4 	NumInternalContention 	0
scalar IntersectionExampleScenario.node[8].nic.mac1609_4 	totalBusyTime 	0
scalar IntersectionExampleScenario.node[8].veinsmobility 	startTime 	12.25
scalar IntersectionExampleScenario.node[8].veinsmobility 	totalTime 	51
scalar IntersectionExampleScenario.node[8].veinsmobility 	stopTime 	63.5
scalar IntersectionExampleScenario.node[8].veinsmobility 	minSpeed 	0.93360698223114
scalar IntersectionExampleScenario.node[8].veinsmobility 	maxSpeed 	15.64999961853
scalar IntersectionExampleScenario.node[8].veinsmobility 	totalDistance 	564.81774297267
scalar IntersectionExampleScenario.node[8].veinsmobility 	totalCO2Emission 	144.49678966217
scalar IntersectionExampleScenario.node[11].appl 	VehicleRemoved 	0
scalar IntersectionExampleScenario.node[11].appl 	ArrivedAtDest 	1
scalar IntersectionExampleScenario.node[11].appl 	IntersectionEnterTime 	24
scalar IntersectionExampleScenario.node[11].appl 	IntersectionExitTime 	48.845909118885
scalar IntersectionExampleScenario.node[11].appl 	NumberOfCollisions 	0
scalar IntersectionExampleScenario.node[11].nic.phy80211p 	busyTime 	0
scalar IntersectionExampleScenario.node[11].nic.mac1609_4 	ReceivedUnicastPackets 	0
scalar IntersectionExampleScenario.node[11].nic.mac1609_4 	ReceivedBroadcasts 	0
scalar IntersectionExampleScenario.node[11].nic.mac1609_4 	SentPackets 	0
scalar IntersectionExampleScenario.node[11].nic.mac1609_4 	SNIRLostPackets 	0
scalar IntersectionExampleScenario.node[11].nic.mac1609_4 	RXTXLostPackets 	0
scalar IntersectionExampleScenario.node[11].nic.mac1609_4 	TotalLostPackets 	0
scalar IntersectionExampleScenario.node[11].nic.mac1609_4 	DroppedPacketsInMac 	0
scalar IntersectionExampleScenario.node[11].nic.mac1609_4 	TooLittleTime 	0
scalar IntersectionExampleScenario.node[11].nic.mac1609_4 	TimesIntoBackoff 	0
scalar IntersectionExampleScenario.node[11].nic.mac1609_4 	SlotsBackoff 	0
scalar IntersectionExampleScenario.node[11].nic.mac1609_4 	NumInternalContention 	0
scalar IntersectionExampleScenario.node[11].nic.mac1609_4 	totalBusyTime 	0
scalar IntersectionExampleScenario.node[11].veinsmobility 	startTime 	24
scalar IntersectionExampleScenario.node[11].veinsmobility 	totalTime 	41.75
scalar IntersectionExampleScenario.node[11].veinsmobility 	stopTime 	66
scalar IntersectionExampleScenario.node[11].veinsmobility 	minSpeed 	5.6500000953674
scalar IntersectionExampleScenario.node[11].veinsmobility 	maxSpeed 	14.39999961853
scalar IntersectionExampleScenario.node[11].veinsmobility 	totalDistance 	552.05435180664
scalar IntersectionExampleScenario.node[11].veinsmobility 	totalCO2Emission 	131.17511037808
scalar IntersectionExampleScenario.node[10].appl 	VehicleRemoved 	0
scalar IntersectionExampleScenario.node[10].appl 	ArrivedAtDest 	1
scalar IntersectionExampleScenario.node[10].appl 	IntersectionEnterTime 	23.5
scalar IntersectionExampleScenario.node[10].appl 	IntersectionExitTime 	49.326868665201
scalar IntersectionExampleScenario.node[10].appl 	NumberOfCollisions 	0
scalar IntersectionExampleScenario.node[10].nic.phy80211p 	busyTime 	0
scalar IntersectionExampleScenario.node[10].nic.mac1609_4 	ReceivedUnicastPackets 	0
scalar IntersectionExampleScenario.node[10].nic.mac1609_4 	ReceivedBroadcasts 	0
scalar IntersectionExampleScenario.node[10].nic.mac1609_4 	SentPackets 	0
scalar IntersectionExampleScenario.node[10].nic.mac1609_4 	SNIRLostPackets 	0
scalar IntersectionExampleScenario.node[10].nic.mac1609_4 	RXTXLostPackets 	0
scalar IntersectionExampleScenario.node[10].nic.mac1609_4 	TotalLostPackets 	0
scalar IntersectionExampleScenario.node[10].nic.mac1609_4 	DroppedPacketsInMac 	0
scalar IntersectionExampleScenario.node[10].nic.mac1609_4 	TooLittleTime 	0
scalar IntersectionExampleScenario.node[10].nic.mac1609_4 	TimesIntoBackoff 	0
scalar IntersectionExampleScenario.node[10].nic.mac1609_4 	SlotsBackoff 	0
scalar IntersectionExampleScenario.node[10].nic.mac1609_4 	NumInternalContention 	0
scalar IntersectionExampleScenario.node[10].nic.mac1609_4 	totalBusyTime 	0
scalar IntersectionExampleScenario.node[10].veinsmobility 	startTime 	23.5
scalar IntersectionExampleScenario.node[10].veinsmobility 	totalTime 	42.5
scalar IntersectionExampleScenario.node[10].veinsmobility 	stopTime 	66.25
scalar IntersectionExampleScenario.node[10].veinsmobility 	minSpeed 	5.6500000953674
scalar IntersectionExampleScenario.node[10].veinsmobility 	maxSpeed 	15.389867782593
scalar IntersectionExampleScenario.node[10].veinsmobility 	totalDistance 	568.39022770044
scalar IntersectionExampleScenario.node[10].veinsmobility 	totalCO2Emission 	137.44277608214
scalar IntersectionExampleScenario.node[12].appl 	VehicleRemoved 	0
scalar IntersectionExampleScenario.node[12].appl 	ArrivedAtDest 	1
scalar IntersectionExampleScenario.node[12].appl 	IntersectionEnterTime 	25.75
scalar IntersectionExampleScenario.node[12].appl 	IntersectionExitTime 	51.285186308756
scalar IntersectionExampleScenario.node[12].appl 	NumberOfCollisions 	0
scalar IntersectionExampleScenario.node[12].nic.phy80211p 	busyTime 	0
scalar IntersectionExampleScenario.node[12].nic.mac1609_4 	ReceivedUnicastPackets 	0
scalar IntersectionExampleScenario.node[12].nic.mac1609_4 	ReceivedBroadcasts 	0
scalar IntersectionExampleScenario.node[12].nic.mac1609_4 	SentPackets 	0
scalar IntersectionExampleScenario.node[12].nic.mac1609_4 	SNIRLostPackets 	0
scalar IntersectionExampleScenario.node[12].nic.mac1609_4 	RXTXLostPackets 	0
scalar IntersectionExampleScenario.node[12].nic.mac1609_4 	TotalLostPackets 	0
scalar IntersectionExampleScenario.node[12].nic.mac1609_4 	DroppedPacketsInMac 	0
scalar IntersectionExampleScenario.node[12].nic.mac1609_4 	TooLittleTime 	0
scalar IntersectionExampleScenario.node[12].nic.mac1609_4 	TimesIntoBackoff 	0
scalar IntersectionExampleScenario.node[12].nic.mac1609_4 	SlotsBackoff 	0
scalar IntersectionExampleScenario.node[12].nic.mac1609_4 	NumInternalContention 	0
scalar IntersectionExampleScenario.node[12].nic.mac1609_4 	totalBusyTime 	0
scalar IntersectionExampleScenario.node[12].veinsmobility 	startTime 	25.75
scalar IntersectionExampleScenario.node[12].veinsmobility 	totalTime 	41.75
scalar IntersectionExampleScenario.node[12].veinsmobility 	stopTime 	67.75
scalar IntersectionExampleScenario.node[12].veinsmobility 	minSpeed 	5.6500000953674
scalar IntersectionExampleScenario.node[12].veinsmobility 	maxSpeed 	15.69487285614
scalar IntersectionExampleScenario.node[12].veinsmobility 	totalDistance 	562.29008720579
scalar IntersectionExampleScenario.node[12].veinsmobility 	totalCO2Emission 	135.19430849463
scalar IntersectionExampleScenario.node[16].appl 	VehicleRemoved 	0
scalar IntersectionExampleScenario.node[16].appl 	ArrivedAtDest 	1
scalar IntersectionExampleScenario.node[16].appl 	IntersectionEnterTime 	39.75
scalar IntersectionExampleScenario.node[16].appl 	IntersectionExitTime 	65.510097096383
scalar IntersectionExampleScenario.node[16].appl 	NumberOfCollisions 	0
scalar IntersectionExampleScenario.node[16].nic.phy80211p 	busyTime 	0
scalar IntersectionExampleScenario.node[16].nic.mac1609_4 	ReceivedUnicastPackets 	0
scalar IntersectionExampleScenario.node[16].nic.mac1609_4 	ReceivedBroadcasts 	0
scalar IntersectionExampleScenario.node[16].nic.mac1609_4 	SentPackets 	0
scalar IntersectionExampleScenario.node[16].nic.mac1609_4 	SNIRLostPackets 	0
scalar IntersectionExampleScenario.node[16].nic.mac1609_4 	RXTXLostPackets 	0
scalar IntersectionExampleScenario.node[16].nic.mac1609_4 	TotalLostPackets 	0
scalar IntersectionExampleScenario.node[16].nic.mac1609_4 	DroppedPacketsInMac 	0
scalar IntersectionExampleScenario.node[16].nic.mac1609_4 	TooLittleTime 	0
scalar IntersectionExampleScenario.node[16].nic.mac1609_4 	TimesIntoBackoff 	0
scalar IntersectionExampleScenario.node[16].nic.mac1609_4 	SlotsBackoff 	0
scalar IntersectionExampleScenario.node[16].nic.mac1609_4 	NumInternalContention 	0
scalar IntersectionExampleScenario.node[16].nic.mac1609_4 	totalBusyTime 	0
scalar IntersectionExampleScenario.node[16].veinsmobility 	startTime 	39.75
scalar IntersectionExampleScenario.node[16].veinsmobility 	totalTime 	42
scalar IntersectionExampleScenario.node[16].veinsmobility 	stopTime 	82
scalar IntersectionExampleScenario.node[16].veinsmobility 	minSpeed 	0
scalar IntersectionExampleScenario.node[16].veinsmobility 	maxSpeed 	16.5
scalar IntersectionExampleScenario.node[16].veinsmobility 	totalDistance 	546.5805502072
scalar IntersectionExampleScenario.node[16].veinsmobility 	totalCO2Emission 	140.39181081747
scalar IntersectionExampleScenario.node[13].appl 	VehicleRemoved 	0
scalar IntersectionExampleScenario.node[13].appl 	ArrivedAtDest 	1
scalar IntersectionExampleScenario.node[13].appl 	IntersectionEnterTime 	28.5
scalar IntersectionExampleScenario.node[13].appl 	IntersectionExitTime 	65.591614355653
scalar IntersectionExampleScenario.node[13].appl 	NumberOfCollisions 	0
scalar IntersectionExampleScenario.node[13].nic.phy80211p 	busyTime 	0
scalar IntersectionExampleScenario.node[13].nic.mac1609_4 	ReceivedUnicastPackets 	0
scalar IntersectionExampleScenario.node[13].nic.mac1609_4 	ReceivedBroadcasts 	0
scalar IntersectionExampleScenario.node[13].nic.mac1609_4 	SentPackets 	0
scalar IntersectionExampleScenario.node[13].nic.mac1609_4 	SNIRLostPackets 	0
scalar IntersectionExampleScenario.node[13].nic.mac1609_4 	RXTXLostPackets 	0
scalar IntersectionExampleScenario.node[13].nic.mac1609_4 	TotalLostPackets 	0
scalar IntersectionExampleScenario.node[13].nic.mac1609_4 	DroppedPacketsInMac 	0
scalar IntersectionExampleScenario.node[13].nic.mac1609_4 	TooLittleTime 	0
scalar IntersectionExampleScenario.node[13].nic.mac1609_4 	TimesIntoBackoff 	0
scalar IntersectionExampleScenario.node[13].nic.mac1609_4 	SlotsBackoff 	0
scalar IntersectionExampleScenario.node[13].nic.mac1609_4 	NumInternalContention 	0
scalar IntersectionExampleScenario.node[13].nic.mac1609_4 	totalBusyTime 	0
scalar IntersectionExampleScenario.node[13].veinsmobility 	startTime 	28.5
scalar IntersectionExampleScenario.node[13].veinsmobility 	totalTime 	53.75
scalar IntersectionExampleScenario.node[13].veinsmobility 	stopTime 	82.5
scalar IntersectionExampleScenario.node[13].veinsmobility 	minSpeed 	0
scalar IntersectionExampleScenario.node[13].veinsmobility 	maxSpeed 	15.875
scalar IntersectionExampleScenario.node[13].veinsmobility 	totalDistance 	545.64202023894
scalar IntersectionExampleScenario.node[13].veinsmobility 	totalCO2Emission 	146.25624830857
scalar IntersectionExampleScenario.node[14].appl 	VehicleRemoved 	0
scalar IntersectionExampleScenario.node[14].appl 	ArrivedAtDest 	1
scalar IntersectionExampleScenario.node[14].appl 	IntersectionEnterTime 	32
scalar IntersectionExampleScenario.node[14].appl 	IntersectionExitTime 	67.766878457332
scalar IntersectionExampleScenario.node[14].appl 	NumberOfCollisions 	0
scalar IntersectionExampleScenario.node[14].nic.phy80211p 	busyTime 	0
scalar IntersectionExampleScenario.node[14].nic.mac1609_4 	ReceivedUnicastPackets 	0
scalar IntersectionExampleScenario.node[14].nic.mac1609_4 	ReceivedBroadcasts 	0
scalar IntersectionExampleScenario.node[14].nic.mac1609_4 	SentPackets 	0
scalar IntersectionExampleScenario.node[14].nic.mac1609_4 	SNIRLostPackets 	0
scalar IntersectionExampleScenario.node[14].nic.mac1609_4 	RXTXLostPackets 	0
scalar IntersectionExampleScenario.node[14].nic.mac1609_4 	TotalLostPackets 	0
scalar IntersectionExampleScenario.node[14].nic.mac1609_4 	DroppedPacketsInMac 	0
scalar IntersectionExampleScenario.node[14].nic.mac1609_4 	TooLittleTime 	0
scalar IntersectionExampleScenario.node[14].nic.mac1609_4 	TimesIntoBackoff 	0
scalar IntersectionExampleScenario.node[14].nic.mac1609_4 	SlotsBackoff 	0
scalar IntersectionExampleScenario.node[14].nic.mac1609_4 	NumInternalContention 	0
scalar IntersectionExampleScenario.node[14].nic.mac1609_4 	totalBusyTime 	0
scalar IntersectionExampleScenario.node[14].veinsmobility 	startTime 	32
scalar IntersectionExampleScenario.node[14].veinsmobility 	totalTime 	51.5
scalar IntersectionExampleScenario.node[14].veinsmobility 	stopTime 	83.75
scalar IntersectionExampleScenario.node[14].veinsmobility 	minSpeed 	0
scalar IntersectionExampleScenario.node[14].veinsmobility 	maxSpeed 	16.167791366577
scalar IntersectionExampleScenario.node[14].veinsmobility 	totalDistance 	562.27639057906
scalar IntersectionExampleScenario.node[14].veinsmobility 	totalCO2Emission 	150.32847175378
scalar IntersectionExampleScenario.node[19].appl 	VehicleRemoved 	0
scalar IntersectionExampleScenario.node[19].appl 	ArrivedAtDest 	1
scalar IntersectionExampleScenario.node[19].appl 	IntersectionEnterTime 	45.75
scalar IntersectionExampleScenario.node[19].appl 	IntersectionExitTime 	68.55330902178
scalar IntersectionExampleScenario.node[19].appl 	NumberOfCollisions 	0
scalar IntersectionExampleScenario.node[19].nic.phy80211p 	busyTime 	0
scalar IntersectionExampleScenario.node[19].nic.mac1609_4 	ReceivedUnicastPackets 	0
scalar IntersectionExampleScenario.node[19].nic.mac1609_4 	ReceivedBroadcasts 	0
scalar IntersectionExampleScenario.node[19].nic.mac1609_4 	SentPackets 	0
scalar IntersectionExampleScenario.node[19].nic.mac1609_4 	SNIRLostPackets 	0
scalar IntersectionExampleScenario.node[19].nic.mac1609_4 	RXTXLostPackets 	0
scalar IntersectionExampleScenario.node[19].nic.mac1609_4 	TotalLostPackets 	0
scalar IntersectionExampleScenario.node[19].nic.mac1609_4 	DroppedPacketsInMac 	0
scalar IntersectionExampleScenario.node[19].nic.mac1609_4 	TooLittleTime 	0
scalar IntersectionExampleScenario.node[19].nic.mac1609_4 	TimesIntoBackoff 	0
scalar IntersectionExampleScenario.node[19].nic.mac1609_4 	SlotsBackoff 	0
scalar IntersectionExampleScenario.node[19].nic.mac1609_4 	NumInternalContention 	0
scalar IntersectionExampleScenario.node[19].nic.mac1609_4 	totalBusyTime 	0
scalar IntersectionExampleScenario.node[19].veinsmobility 	startTime 	45.75
scalar IntersectionExampleScenario.node[19].veinsmobility 	totalTime 	38
scalar IntersectionExampleScenario.node[19].veinsmobility 	stopTime 	84
scalar IntersectionExampleScenario.node[19].veinsmobility 	minSpeed 	5.6500000953674
scalar IntersectionExampleScenario.node[19].veinsmobility 	maxSpeed 	16.27499961853
scalar IntersectionExampleScenario.node[19].veinsmobility 	totalDistance 	552.24796295166
scalar IntersectionExampleScenario.node[19].veinsmobility 	totalCO2Emission 	134.98409105842
scalar IntersectionExampleScenario.node[15].appl 	VehicleRemoved 	0
scalar IntersectionExampleScenario.node[15].appl 	ArrivedAtDest 	1
scalar IntersectionExampleScenario.node[15].appl 	IntersectionEnterTime 	34
scalar IntersectionExampleScenario.node[15].appl 	IntersectionExitTime 	69.618535587186
scalar IntersectionExampleScenario.node[15].appl 	NumberOfCollisions 	0
scalar IntersectionExampleScenario.node[15].nic.phy80211p 	busyTime 	0
scalar IntersectionExampleScenario.node[15].nic.mac1609_4 	ReceivedUnicastPackets 	0
scalar IntersectionExampleScenario.node[15].nic.mac1609_4 	ReceivedBroadcasts 	0
scalar IntersectionExampleScenario.node[15].nic.mac1609_4 	SentPackets 	0
scalar IntersectionExampleScenario.node[15].nic.mac1609_4 	SNIRLostPackets 	0
scalar IntersectionExampleScenario.node[15].nic.mac1609_4 	RXTXLostPackets 	0
scalar IntersectionExampleScenario.node[15].nic.mac1609_4 	TotalLostPackets 	0
scalar IntersectionExampleScenario.node[15].nic.mac1609_4 	DroppedPacketsInMac 	0
scalar IntersectionExampleScenario.node[15].nic.mac1609_4 	TooLittleTime 	0
scalar IntersectionExampleScenario.node[15].nic.mac1609_4 	TimesIntoBackoff 	0
scalar IntersectionExampleScenario.node[15].nic.mac1609_4 	SlotsBackoff 	0
scalar IntersectionExampleScenario.node[15].nic.mac1609_4 	NumInternalContention 	0
scalar IntersectionExampleScenario.node[15].nic.mac1609_4 	totalBusyTime 	0
scalar IntersectionExampleScenario.node[15].veinsmobility 	startTime 	34
scalar IntersectionExampleScenario.node[15].veinsmobility 	totalTime 	51.5
scalar IntersectionExampleScenario.node[15].veinsmobility 	stopTime 	85.75
scalar IntersectionExampleScenario.node[15].veinsmobility 	minSpeed 	1.224672794342
scalar IntersectionExampleScenario.node[15].veinsmobility 	maxSpeed 	15.64999961853
scalar IntersectionExampleScenario.node[15].veinsmobility 	totalDistance 	577.78799438477
scalar IntersectionExampleScenario.node[15].veinsmobility 	totalCO2Emission 	144.0382025963
scalar IntersectionExampleScenario.node[17].appl 	VehicleRemoved 	0
scalar IntersectionExampleScenario.node[17].appl 	ArrivedAtDest 	1
scalar IntersectionExampleScenario.node[17].appl 	IntersectionEnterTime 	40.25
scalar IntersectionExampleScenario.node[17].appl 	IntersectionExitTime 	71.839600579842
scalar IntersectionExampleScenario.node[17].appl 	NumberOfCollisions 	0
scalar IntersectionExampleScenario.node[17].nic.phy80211p 	busyTime 	0
scalar IntersectionExampleScenario.node[17].nic.mac1609_4 	ReceivedUnicastPackets 	0
scalar IntersectionExampleScenario.node[17].nic.mac1609_4 	ReceivedBroadcasts 	0
scalar IntersectionExampleScenario.node[17].nic.mac1609_4 	SentPackets 	0
scalar IntersectionExampleScenario.node[17].nic.mac1609_4 	SNIRLostPackets 	0
scalar IntersectionExampleScenario.node[17].nic.mac1609_4 	RXTXLostPackets 	0
scalar IntersectionExampleScenario.node[17].nic.mac1609_4 	TotalLostPackets 	0
scalar IntersectionExampleScenario.node[17].nic.mac1609_4 	DroppedPacketsInMac 	0
scalar IntersectionExampleScenario.node[17].nic.mac1609_4 	TooLittleTime 	0
scalar IntersectionExampleScenario.node[17].nic.mac1609_4 	TimesIntoBackoff 	0
scalar IntersectionExampleScenario.node[17].nic.mac1609_4 	SlotsBackoff 	0
scalar IntersectionExampleScenario.node[17].nic.mac1609_4 	NumInternalContention 	0
scalar IntersectionExampleScenario.node[17].nic.mac1609_4 	totalBusyTime 	0
scalar IntersectionExampleScenario.node[17].veinsmobility 	startTime 	40.25
scalar IntersectionExampleScenario.node[17].veinsmobility 	totalTime 	48.5
scalar IntersectionExampleScenario.node[17].veinsmobility 	stopTime 	89
scalar IntersectionExampleScenario.node[17].veinsmobility 	minSpeed 	1.9043400287628
scalar IntersectionExampleScenario.node[17].veinsmobility 	maxSpeed 	15.25
scalar IntersectionExampleScenario.node[17].veinsmobility 	totalDistance 	544.62563737641
scalar IntersectionExampleScenario.node[17].veinsmobility 	totalCO2Emission 	135.79868810156
scalar IntersectionExampleScenario.node[18].appl 	VehicleRemoved 	0
scalar IntersectionExampleScenario.node[18].appl 	ArrivedAtDest 	1
scalar IntersectionExampleScenario.node[18].appl 	IntersectionEnterTime 	43.75
scalar IntersectionExampleScenario.node[18].appl 	IntersectionExitTime 	73.837486393459
scalar IntersectionExampleScenario.node[18].appl 	NumberOfCollisions 	0
scalar IntersectionExampleScenario.node[18].nic.phy80211p 	busyTime 	0
scalar IntersectionExampleScenario.node[18].nic.mac1609_4 	ReceivedUnicastPackets 	0
scalar IntersectionExampleScenario.node[18].nic.mac1609_4 	ReceivedBroadcasts 	0
scalar IntersectionExampleScenario.node[18].nic.mac1609_4 	SentPackets 	0
scalar IntersectionExampleScenario.node[18].nic.mac1609_4 	SNIRLostPackets 	0
scalar IntersectionExampleScenario.node[18].nic.mac1609_4 	RXTXLostPackets 	0
scalar IntersectionExampleScenario.node[18].nic.mac1609_4 	TotalLostPackets 	0
scalar IntersectionExampleScenario.node[18].nic.mac1609_4 	DroppedPacketsInMac 	0
scalar IntersectionExampleScenario.node[18].nic.mac1609_4 	TooLittleTime 	0
scalar IntersectionExampleScenario.node[18].nic.mac1609_4 	TimesIntoBackoff 	0
scalar IntersectionExampleScenario.node[18].nic.mac1609_4 	SlotsBackoff 	0
scalar IntersectionExampleScenario.node[18].nic.mac1609_4 	NumInternalContention 	0
scalar IntersectionExampleScenario.node[18].nic.mac1609_4 	totalBusyTime 	0
scalar IntersectionExampleScenario.node[18].veinsmobility 	startTime 	43.75
scalar IntersectionExampleScenario.node[18].veinsmobility 	totalTime 	47
scalar IntersectionExampleScenario.node[18].veinsmobility 	stopTime 	91
scalar IntersectionExampleScenario.node[18].veinsmobility 	minSpeed 	3.1072652339935
scalar IntersectionExampleScenario.node[18].veinsmobility 	maxSpeed 	14.875
scalar IntersectionExampleScenario.node[18].veinsmobility 	totalDistance 	563.42057800293
scalar IntersectionExampleScenario.node[18].veinsmobility 	totalCO2Emission 	127.26312930889
scalar IntersectionExampleScenario.node[21].appl 	VehicleRemoved 	0
scalar IntersectionExampleScenario.node[21].appl 	ArrivedAtDest 	1
scalar IntersectionExampleScenario.node[21].appl 	IntersectionEnterTime 	54.25
scalar IntersectionExampleScenario.node[21].appl 	IntersectionExitTime 	76.816134663764
scalar IntersectionExampleScenario.node[21].appl 	NumberOfCollisions 	0
scalar IntersectionExampleScenario.node[21].nic.phy80211p 	busyTime 	0
scalar IntersectionExampleScenario.node[21].nic.mac1609_4 	ReceivedUnicastPackets 	0
scalar IntersectionExampleScenario.node[21].nic.mac1609_4 	ReceivedBroadcasts 	0
scalar IntersectionExampleScenario.node[21].nic.mac1609_4 	SentPackets 	0
scalar IntersectionExampleScenario.node[21].nic.mac1609_4 	SNIRLostPackets 	0
scalar IntersectionExampleScenario.node[21].nic.mac1609_4 	RXTXLostPackets 	0
scalar IntersectionExampleScenario.node[21].nic.mac1609_4 	TotalLostPackets 	0
scalar IntersectionExampleScenario.node[21].nic.mac1609_4 	DroppedPacketsInMac 	0
scalar IntersectionExampleScenario.node[21].nic.mac1609_4 	TooLittleTime 	0
scalar IntersectionExampleScenario.node[21].nic.mac1609_4 	TimesIntoBackoff 	0
scalar IntersectionExampleScenario.node[21].nic.mac1609_4 	SlotsBackoff 	0
scalar IntersectionExampleScenario.node[21].nic.mac1609_4 	NumInternalContention 	0
scalar IntersectionExampleScenario.node[21].nic.mac1609_4 	totalBusyTime 	0
scalar IntersectionExampleScenario.node[21].veinsmobility 	startTime 	54.25
scalar IntersectionExampleScenario.node[21].veinsmobility 	totalTime 	38.25
scalar IntersectionExampleScenario.node[21].veinsmobility 	stopTime 	92.75
scalar IntersectionExampleScenario.node[21].veinsmobility 	minSpeed 	5.6500000953674
scalar IntersectionExampleScenario.node[21].veinsmobility 	maxSpeed 	16.125
scalar IntersectionExampleScenario.node[21].veinsmobility 	totalDistance 	553.92374420166
scalar IntersectionExampleScenario.node[21].veinsmobility 	totalCO2Emission 	120.06356894873
scalar IntersectionExampleScenario.node[22].appl 	VehicleRemoved 	0
scalar IntersectionExampleScenario.node[22].appl 	ArrivedAtDest 	1
scalar IntersectionExampleScenario.node[22].appl 	IntersectionEnterTime 	54.75
scalar IntersectionExampleScenario.node[22].appl 	IntersectionExitTime 	78.276037881413
scalar IntersectionExampleScenario.node[22].appl 	NumberOfCollisions 	0
scalar IntersectionExampleScenario.node[22].nic.phy80211p 	busyTime 	0
scalar IntersectionExampleScenario.node[22].nic.mac1609_4 	ReceivedUnicastPackets 	0
scalar IntersectionExampleScenario.node[22].nic.mac1609_4 	ReceivedBroadcasts 	0
scalar IntersectionExampleScenario.node[22].nic.mac1609_4 	SentPackets 	0
scalar IntersectionExampleScenario.node[22].nic.mac1609_4 	SNIRLostPackets 	0
scalar IntersectionExampleScenario.node[22].nic.mac1609_4 	RXTXLostPackets 	0
scalar IntersectionExampleScenario.node[22].nic.mac1609_4 	TotalLostPackets 	0
scalar IntersectionExampleScenario.node[22].nic.mac1609_4 	DroppedPacketsInMac 	0
scalar IntersectionExampleScenario.node[22].nic.mac1609_4 	TooLittleTime 	0
scalar IntersectionExampleScenario.node[22].nic.mac1609_4 	TimesIntoBackoff 	0
scalar IntersectionExampleScenario.node[22].nic.mac1609_4 	SlotsBackoff 	0
scalar IntersectionExampleScenario.node[22].nic.mac1609_4 	NumInternalContention 	0
scalar IntersectionExampleScenario.node[22].nic.mac1609_4 	totalBusyTime 	0
scalar IntersectionExampleScenario.node[22].veinsmobility 	startTime 	54.75
scalar IntersectionExampleScenario.node[22].veinsmobility 	totalTime 	40.25
scalar IntersectionExampleScenario.node[22].veinsmobility 	stopTime 	95.25
scalar IntersectionExampleScenario.node[22].veinsmobility 	minSpeed 	5.6500000953674
scalar IntersectionExampleScenario.node[22].veinsmobility 	maxSpeed 	15.375
scalar IntersectionExampleScenario.node[22].veinsmobility 	totalDistance 	551.50460602545
scalar IntersectionExampleScenario.node[22].veinsmobility 	totalCO2Emission 	123.48881474937
scalar IntersectionExampleScenario.node[23].appl 	VehicleRemoved 	0
scalar IntersectionExampleScenario.node[23].appl 	ArrivedAtDest 	1
scalar IntersectionExampleScenario.node[23].appl 	IntersectionEnterTime 	55.25
scalar IntersectionExampleScenario.node[23].appl 	IntersectionExitTime 	80.115457256266
scalar IntersectionExampleScenario.node[23].appl 	NumberOfCollisions 	0
scalar IntersectionExampleScenario.node[23].nic.phy80211p 	busyTime 	0
scalar IntersectionExampleScenario.node[23].nic.mac1609_4 	ReceivedUnicastPackets 	0
scalar IntersectionExampleScenario.node[23].nic.mac1609_4 	ReceivedBroadcasts 	0
scalar IntersectionExampleScenario.node[23].nic.mac1609_4 	SentPackets 	0
scalar IntersectionExampleScenario.node[23].nic.mac1609_4 	SNIRLostPackets 	0
scalar IntersectionExampleScenario.node[23].nic.mac1609_4 	RXTXLostPackets 	0
scalar IntersectionExampleScenario.node[23].nic.mac1609_4 	TotalLostPackets 	0
scalar IntersectionExampleScenario.node[23].nic.mac1609_4 	DroppedPacketsInMac 	0
scalar IntersectionExampleScenario.node[23].nic.mac1609_4 	TooLittleTime 	0
scalar IntersectionExampleScenario.node[23].nic.mac1609_4 	TimesIntoBackoff 	0
scalar IntersectionExampleScenario.node[23].nic.mac1609_4 	SlotsBackoff 	0
scalar IntersectionExampleScenario.node[23].nic.mac1609_4 	NumInternalContention 	0
scalar IntersectionExampleScenario.node[23].nic.mac1609_4 	totalBusyTime 	0
scalar IntersectionExampleScenario.node[23].veinsmobility 	startTime 	55.25
scalar IntersectionExampleScenario.node[23].veinsmobility 	totalTime 	41
scalar IntersectionExampleScenario.node[23].veinsmobility 	stopTime 	96.5
scalar IntersectionExampleScenario.node[23].veinsmobility 	minSpeed 	5.6500000953674
scalar IntersectionExampleScenario.node[23].veinsmobility 	maxSpeed 	15.736057281494
scalar IntersectionExampleScenario.node[23].veinsmobility 	totalDistance 	572.24745577184
scalar IntersectionExampleScenario.node[23].veinsmobility 	totalCO2Emission 	132.62378608164
scalar IntersectionExampleScenario.node[24].appl 	VehicleRemoved 	0
scalar IntersectionExampleScenario.node[24].appl 	ArrivedAtDest 	1
scalar IntersectionExampleScenario.node[24].appl 	IntersectionEnterTime 	57.25
scalar IntersectionExampleScenario.node[24].appl 	IntersectionExitTime 	81.313634957885
scalar IntersectionExampleScenario.node[24].appl 	NumberOfCollisions 	0
scalar IntersectionExampleScenario.node[24].nic.phy80211p 	busyTime 	0
scalar IntersectionExampleScenario.node[24].nic.mac1609_4 	ReceivedUnicastPackets 	0
scalar IntersectionExampleScenario.node[24].nic.mac1609_4 	ReceivedBroadcasts 	0
scalar IntersectionExampleScenario.node[24].nic.mac1609_4 	SentPackets 	0
scalar IntersectionExampleScenario.node[24].nic.mac1609_4 	SNIRLostPackets 	0
scalar IntersectionExampleScenario.node[24].nic.mac1609_4 	RXTXLostPackets 	0
scalar IntersectionExampleScenario.node[24].nic.mac1609_4 	TotalLostPackets 	0
scalar IntersectionExampleScenario.node[24].nic.mac1609_4 	DroppedPacketsInMac 	0
scalar IntersectionExampleScenario.node[24].nic.mac1609_4 	TooLittleTime 	0
scalar IntersectionExampleScenario.node[24].nic.mac1609_4 	TimesIntoBackoff 	0
scalar IntersectionExampleScenario.node[24].nic.mac1609_4 	SlotsBackoff 	0
scalar IntersectionExampleScenario.node[24].nic.mac1609_4 	NumInternalContention 	0
scalar IntersectionExampleScenario.node[24].nic.mac1609_4 	totalBusyTime 	0
scalar IntersectionExampleScenario.node[24].veinsmobility 	startTime 	57.25
scalar IntersectionExampleScenario.node[24].veinsmobility 	totalTime 	39.5
scalar IntersectionExampleScenario.node[24].veinsmobility 	stopTime 	97
scalar IntersectionExampleScenario.node[24].veinsmobility 	minSpeed 	5.6500000953674
scalar IntersectionExampleScenario.node[24].veinsmobility 	maxSpeed 	16.125
scalar IntersectionExampleScenario.node[24].veinsmobility 	totalDistance 	582.55125427246
scalar IntersectionExampleScenario.node[24].veinsmobility 	totalCO2Emission 	126.58273386525
scalar IntersectionExampleScenario.node[25].appl 	VehicleRemoved 	0
scalar IntersectionExampleScenario.node[25].appl 	ArrivedAtDest 	1
scalar IntersectionExampleScenario.node[25].appl 	IntersectionEnterTime 	67.5
scalar IntersectionExampleScenario.node[25].appl 	IntersectionExitTime 	91.25590364146
scalar IntersectionExampleScenario.node[25].appl 	NumberOfCollisions 	0
scalar IntersectionExampleScenario.node[25].nic.phy80211p 	busyTime 	0
scalar IntersectionExampleScenario.node[25].nic.mac1609_4 	ReceivedUnicastPackets 	0
scalar IntersectionExampleScenario.node[25].nic.mac1609_4 	ReceivedBroadcasts 	0
scalar IntersectionExampleScenario.node[25].nic.mac1609_4 	SentPackets 	0
scalar IntersectionExampleScenario.node[25].nic.mac1609_4 	SNIRLostPackets 	0
scalar IntersectionExampleScenario.node[25].nic.mac1609_4 	RXTXLostPackets 	0
scalar IntersectionExampleScenario.node[25].nic.mac1609_4 	TotalLostPackets 	0
scalar IntersectionExampleScenario.node[25].nic.mac1609_4 	DroppedPacketsInMac 	0
scalar IntersectionExampleScenario.node[25].nic.mac1609_4 	TooLittleTime 	0
scalar IntersectionExampleScenario.node[25].nic.mac1609_4 	TimesIntoBackoff 	0
scalar IntersectionExampleScenario.node[25].nic.mac1609_4 	SlotsBackoff 	0
scalar IntersectionExampleScenario.node[25].nic.mac1609_4 	NumInternalContention 	0
scalar IntersectionExampleScenario.node[25].nic.mac1609_4 	totalBusyTime 	0
scalar IntersectionExampleScenario.node[25].veinsmobility 	startTime 	67.5
scalar IntersectionExampleScenario.node[25].veinsmobility 	totalTime 	40.75
scalar IntersectionExampleScenario.node[25].veinsmobility 	stopTime 	108.5
scalar IntersectionExampleScenario.node[25].veinsmobility 	minSpeed 	5.6500000953674
scalar IntersectionExampleScenario.node[25].veinsmobility 	maxSpeed 	15.25
scalar IntersectionExampleScenario.node[25].veinsmobility 	totalDistance 	544.57385868503
scalar IntersectionExampleScenario.node[25].veinsmobility 	totalCO2Emission 	124.39965242606
scalar IntersectionExampleScenario.node[26].appl 	VehicleRemoved 	0
scalar IntersectionExampleScenario.node[26].appl 	ArrivedAtDest 	1
scalar IntersectionExampleScenario.node[26].appl 	IntersectionEnterTime 	74
scalar IntersectionExampleScenario.node[26].appl 	IntersectionExitTime 	97.518846818566
scalar IntersectionExampleScenario.node[26].appl 	NumberOfCollisions 	0
scalar IntersectionExampleScenario.node[26].nic.phy80211p 	busyTime 	0
scalar IntersectionExampleScenario.node[26].nic.mac1609_4 	ReceivedUnicastPackets 	0
scalar IntersectionExampleScenario.node[26].nic.mac1609_4 	ReceivedBroadcasts 	0
scalar IntersectionExampleScenario.node[26].nic.mac1609_4 	SentPackets 	0
scalar IntersectionExampleScenario.node[26].nic.mac1609_4 	SNIRLostPackets 	0
scalar IntersectionExampleScenario.node[26].nic.mac1609_4 	RXTXLostPackets 	0
scalar IntersectionExampleScenario.node[26].nic.mac1609_4 	TotalLostPackets 	0
scalar IntersectionExampleScenario.node[26].nic.mac1609_4 	DroppedPacketsInMac 	0
scalar IntersectionExampleScenario.node[26].nic.mac1609_4 	TooLittleTime 	0
scalar IntersectionExampleScenario.node[26].nic.mac1609_4 	TimesIntoBackoff 	0
scalar IntersectionExampleScenario.node[26].nic.mac1609_4 	SlotsBackoff 	0
scalar IntersectionExampleScenario.node[26].nic.mac1609_4 	NumInternalContention 	0
scalar IntersectionExampleScenario.node[26].nic.mac1609_4 	totalBusyTime 	0
scalar IntersectionExampleScenario.node[26].veinsmobility 	startTime 	74
scalar IntersectionExampleScenario.node[26].veinsmobility 	totalTime 	40
scalar IntersectionExampleScenario.node[26].veinsmobility 	stopTime 	114.25
scalar IntersectionExampleScenario.node[26].veinsmobility 	minSpeed 	5.6500000953674
scalar IntersectionExampleScenario.node[26].veinsmobility 	maxSpeed 	15.02499961853
scalar IntersectionExampleScenario.node[26].veinsmobility 	totalDistance 	551.98734283447
scalar IntersectionExampleScenario.node[26].veinsmobility 	totalCO2Emission 	113.58977997837
scalar IntersectionExampleScenario.node[20].appl 	VehicleRemoved 	0
scalar IntersectionExampleScenario.node[20].appl 	ArrivedAtDest 	1
scalar IntersectionExampleScenario.node[20].appl 	IntersectionEnterTime 	51.5
scalar IntersectionExampleScenario.node[20].appl 	IntersectionExitTime 	102.2966901373
scalar IntersectionExampleScenario.node[20].appl 	NumberOfCollisions 	0
scalar IntersectionExampleScenario.node[20].nic.phy80211p 	busyTime 	0
scalar IntersectionExampleScenario.node[20].nic.mac1609_4 	ReceivedUnicastPackets 	0
scalar IntersectionExampleScenario.node[20].nic.mac1609_4 	ReceivedBroadcasts 	0
scalar IntersectionExampleScenario.node[20].nic.mac1609_4 	SentPackets 	0
scalar IntersectionExampleScenario.node[20].nic.mac1609_4 	SNIRLostPackets 	0
scalar IntersectionExampleScenario.node[20].nic.mac1609_4 	RXTXLostPackets 	0
scalar IntersectionExampleScenario.node[20].nic.mac1609_4 	TotalLostPackets 	0
scalar IntersectionExampleScenario.node[20].nic.mac1609_4 	DroppedPacketsInMac 	0
scalar IntersectionExampleScenario.node[20].nic.mac1609_4 	TooLittleTime 	0
scalar IntersectionExampleScenario.node[20].nic.mac1609_4 	TimesIntoBackoff 	0
scalar IntersectionExampleScenario.node[20].nic.mac1609_4 	SlotsBackoff 	0
scalar IntersectionExampleScenario.node[20].nic.mac1609_4 	NumInternalContention 	0
scalar IntersectionExampleScenario.node[20].nic.mac1609_4 	totalBusyTime 	0
scalar IntersectionExampleScenario.node[20].veinsmobility 	startTime 	51.5
scalar IntersectionExampleScenario.node[20].veinsmobility 	totalTime 	67
scalar IntersectionExampleScenario.node[20].veinsmobility 	stopTime 	118.75
scalar IntersectionExampleScenario.node[20].veinsmobility 	minSpeed 	0
scalar IntersectionExampleScenario.node[20].veinsmobility 	maxSpeed 	15.02499961853
scalar IntersectionExampleScenario.node[20].veinsmobility 	totalDistance 	548.35270036807
scalar IntersectionExampleScenario.node[20].veinsmobility 	totalCO2Emission 	155.93386821746
scalar IntersectionExampleScenario.node[27].appl 	VehicleRemoved 	0
scalar IntersectionExampleScenario.node[27].appl 	ArrivedAtDest 	1
scalar IntersectionExampleScenario.node[27].appl 	IntersectionEnterTime 	75
scalar IntersectionExampleScenario.node[27].appl 	IntersectionExitTime 	103.62253291026
scalar IntersectionExampleScenario.node[27].appl 	NumberOfCollisions 	0
scalar IntersectionExampleScenario.node[27].nic.phy80211p 	busyTime 	0
scalar IntersectionExampleScenario.node[27].nic.mac1609_4 	ReceivedUnicastPackets 	0
scalar IntersectionExampleScenario.node[27].nic.mac1609_4 	ReceivedBroadcasts 	0
scalar IntersectionExampleScenario.node[27].nic.mac1609_4 	SentPackets 	0
scalar IntersectionExampleScenario.node[27].nic.mac1609_4 	SNIRLostPackets 	0
scalar IntersectionExampleScenario.node[27].nic.mac1609_4 	RXTXLostPackets 	0
scalar IntersectionExampleScenario.node[27].nic.mac1609_4 	TotalLostPackets 	0
scalar IntersectionExampleScenario.node[27].nic.mac1609_4 	DroppedPacketsInMac 	0
scalar IntersectionExampleScenario.node[27].nic.mac1609_4 	TooLittleTime 	0
scalar IntersectionExampleScenario.node[27].nic.mac1609_4 	TimesIntoBackoff 	0
scalar IntersectionExampleScenario.node[27].nic.mac1609_4 	SlotsBackoff 	0
scalar IntersectionExampleScenario.node[27].nic.mac1609_4 	NumInternalContention 	0
scalar IntersectionExampleScenario.node[27].nic.mac1609_4 	totalBusyTime 	0
scalar IntersectionExampleScenario.node[27].veinsmobility 	startTime 	75
scalar IntersectionExampleScenario.node[27].veinsmobility 	totalTime 	44
scalar IntersectionExampleScenario.node[27].veinsmobility 	stopTime 	119.25
scalar IntersectionExampleScenario.node[27].veinsmobility 	minSpeed 	3.1923477649689
scalar IntersectionExampleScenario.node[27].veinsmobility 	maxSpeed 	16.27499961853
scalar IntersectionExampleScenario.node[27].veinsmobility 	totalDistance 	554.61094665527
scalar IntersectionExampleScenario.node[27].veinsmobility 	totalCO2Emission 	138.47959437031
scalar IntersectionExampleScenario.node[30].appl 	VehicleRemoved 	0
scalar IntersectionExampleScenario.node[30].appl 	ArrivedAtDest 	1
scalar IntersectionExampleScenario.node[30].appl 	IntersectionEnterTime 	82.5
scalar IntersectionExampleScenario.node[30].appl 	IntersectionExitTime 	105.58320854895
scalar IntersectionExampleScenario.node[30].appl 	NumberOfCollisions 	0
scalar IntersectionExampleScenario.node[30].nic.phy80211p 	busyTime 	0
scalar IntersectionExampleScenario.node[30].nic.mac1609_4 	ReceivedUnicastPackets 	0
scalar IntersectionExampleScenario.node[30].nic.mac1609_4 	ReceivedBroadcasts 	0
scalar IntersectionExampleScenario.node[30].nic.mac1609_4 	SentPackets 	0
scalar IntersectionExampleScenario.node[30].nic.mac1609_4 	SNIRLostPackets 	0
scalar IntersectionExampleScenario.node[30].nic.mac1609_4 	RXTXLostPackets 	0
scalar IntersectionExampleScenario.node[30].nic.mac1609_4 	TotalLostPackets 	0
scalar IntersectionExampleScenario.node[30].nic.mac1609_4 	DroppedPacketsInMac 	0
scalar IntersectionExampleScenario.node[30].nic.mac1609_4 	TooLittleTime 	0
scalar IntersectionExampleScenario.node[30].nic.mac1609_4 	TimesIntoBackoff 	0
scalar IntersectionExampleScenario.node[30].nic.mac1609_4 	SlotsBackoff 	0
scalar IntersectionExampleScenario.node[30].nic.mac1609_4 	NumInternalContention 	0
scalar IntersectionExampleScenario.node[30].nic.mac1609_4 	totalBusyTime 	0
scalar IntersectionExampleScenario.node[30].veinsmobility 	startTime 	82.5
scalar IntersectionExampleScenario.node[30].veinsmobility 	totalTime 	39.25
scalar IntersectionExampleScenario.node[30].veinsmobility 	stopTime 	122
scalar IntersectionExampleScenario.node[30].veinsmobility 	minSpeed 	5.6500000953674
scalar IntersectionExampleScenario.node[30].veinsmobility 	maxSpeed 	15.5
scalar IntersectionExampleScenario.node[30].veinsmobility 	totalDistance 	552.79508209229
scalar IntersectionExampleScenario.node[30].veinsmobility 	totalCO2Emission 	116.15807789636
scalar IntersectionExampleScenario.node[28].appl 	VehicleRemoved 	0
scalar IntersectionExampleScenario.node[28].appl 	ArrivedAtDest 	1
scalar IntersectionExampleScenario.node[28].appl 	IntersectionEnterTime 	80.25
scalar IntersectionExampleScenario.node[28].appl 	IntersectionExitTime 	106.36459670257
scalar IntersectionExampleScenario.node[28].appl 	NumberOfCollisions 	0
scalar IntersectionExampleScenario.node[28].nic.phy80211p 	busyTime 	0
scalar IntersectionExampleScenario.node[28].nic.mac1609_4 	ReceivedUnicastPackets 	0
scalar IntersectionExampleScenario.node[28].nic.mac1609_4 	ReceivedBroadcasts 	0
scalar IntersectionExampleScenario.node[28].nic.mac1609_4 	SentPackets 	0
scalar IntersectionExampleScenario.node[28].nic.mac1609_4 	SNIRLostPackets 	0
scalar IntersectionExampleScenario.node[28].nic.mac1609_4 	RXTXLostPackets 	0
scalar IntersectionExampleScenario.node[28].nic.mac1609_4 	TotalLostPackets 	0
scalar IntersectionExampleScenario.node[28].nic.mac1609_4 	DroppedPacketsInMac 	0
scalar IntersectionExampleScenario.node[28].nic.mac1609_4 	TooLittleTime 	0
scalar IntersectionExampleScenario.node[28].nic.mac1609_4 	TimesIntoBackoff 	0
scalar IntersectionExampleScenario.node[28].nic.mac1609_4 	SlotsBackoff 	0
scalar IntersectionExampleScenario.node[28].nic.mac1609_4 	NumInternalContention 	0
scalar IntersectionExampleScenario.node[28].nic.mac1609_4 	totalBusyTime 	0
scalar IntersectionExampleScenario.node[28].veinsmobility 	startTime 	80.25
scalar IntersectionExampleScenario.node[28].veinsmobility 	totalTime 	42.25
scalar IntersectionExampleScenario.node[28].veinsmobility 	stopTime 	122.75
scalar IntersectionExampleScenario.node[28].veinsmobility 	minSpeed 	5.6500000953674
scalar IntersectionExampleScenario.node[28].veinsmobility 	maxSpeed 	15.5
scalar IntersectionExampleScenario.node[28].veinsmobility 	totalDistance 	553.22770690918
scalar IntersectionExampleScenario.node[28].veinsmobility 	totalCO2Emission 	128.58493392003
scalar IntersectionExampleScenario.node[31].appl 	VehicleRemoved 	0
scalar IntersectionExampleScenario.node[31].appl 	ArrivedAtDest 	1
scalar IntersectionExampleScenario.node[31].appl 	IntersectionEnterTime 	86.5
scalar IntersectionExampleScenario.node[31].appl 	IntersectionExitTime 	110.80318254718
scalar IntersectionExampleScenario.node[31].appl 	NumberOfCollisions 	0
scalar IntersectionExampleScenario.node[31].nic.phy80211p 	busyTime 	0
scalar IntersectionExampleScenario.node[31].nic.mac1609_4 	ReceivedUnicastPackets 	0
scalar IntersectionExampleScenario.node[31].nic.mac1609_4 	ReceivedBroadcasts 	0
scalar IntersectionExampleScenario.node[31].nic.mac1609_4 	SentPackets 	0
scalar IntersectionExampleScenario.node[31].nic.mac1609_4 	SNIRLostPackets 	0
scalar IntersectionExampleScenario.node[31].nic.mac1609_4 	RXTXLostPackets 	0
scalar IntersectionExampleScenario.node[31].nic.mac1609_4 	TotalLostPackets 	0
scalar IntersectionExampleScenario.node[31].nic.mac1609_4 	DroppedPacketsInMac 	0
scalar IntersectionExampleScenario.node[31].nic.mac1609_4 	TooLittleTime 	0
scalar IntersectionExampleScenario.node[31].nic.mac1609_4 	TimesIntoBackoff 	0
scalar IntersectionExampleScenario.node[31].nic.mac1609_4 	SlotsBackoff 	0
scalar IntersectionExampleScenario.node[31].nic.mac1609_4 	NumInternalContention 	0
scalar IntersectionExampleScenario.node[31].nic.mac1609_4 	totalBusyTime 	0
scalar IntersectionExampleScenario.node[31].veinsmobility 	startTime 	86.5
scalar IntersectionExampleScenario.node[31].veinsmobility 	totalTime 	41.5
scalar IntersectionExampleScenario.node[31].veinsmobility 	stopTime 	128.25
scalar IntersectionExampleScenario.node[31].veinsmobility 	minSpeed 	5.6500000953674
scalar IntersectionExampleScenario.node[31].veinsmobility 	maxSpeed 	14.75
scalar IntersectionExampleScenario.node[31].veinsmobility 	totalDistance 	552.37640968987
scalar IntersectionExampleScenario.node[31].veinsmobility 	totalCO2Emission 	117.61169577223
scalar IntersectionExampleScenario.node[38].appl 	VehicleRemoved 	0
scalar IntersectionExampleScenario.node[38].appl 	ArrivedAtDest 	1
scalar IntersectionExampleScenario.node[38].appl 	IntersectionEnterTime 	103
scalar IntersectionExampleScenario.node[38].appl 	IntersectionExitTime 	126.03555887061
scalar IntersectionExampleScenario.node[38].appl 	NumberOfCollisions 	0
scalar IntersectionExampleScenario.node[38].nic.phy80211p 	busyTime 	0
scalar IntersectionExampleScenario.node[38].nic.mac1609_4 	ReceivedUnicastPackets 	0
scalar IntersectionExampleScenario.node[38].nic.mac1609_4 	ReceivedBroadcasts 	0
scalar IntersectionExampleScenario.node[38].nic.mac1609_4 	SentPackets 	0
scalar IntersectionExampleScenario.node[38].nic.mac1609_4 	SNIRLostPackets 	0
scalar IntersectionExampleScenario.node[38].nic.mac1609_4 	RXTXLostPackets 	0
scalar IntersectionExampleScenario.node[38].nic.mac1609_4 	TotalLostPackets 	0
scalar IntersectionExampleScenario.node[38].nic.mac1609_4 	DroppedPacketsInMac 	0
scalar IntersectionExampleScenario.node[38].nic.mac1609_4 	TooLittleTime 	0
scalar IntersectionExampleScenario.node[38].nic.mac1609_4 	TimesIntoBackoff 	0
scalar IntersectionExampleScenario.node[38].nic.mac1609_4 	SlotsBackoff 	0
scalar IntersectionExampleScenario.node[38].nic.mac1609_4 	NumInternalContention 	0
scalar IntersectionExampleScenario.node[38].nic.mac1609_4 	totalBusyTime 	0
scalar IntersectionExampleScenario.node[38].veinsmobility 	startTime 	103
scalar IntersectionExampleScenario.node[38].veinsmobility 	totalTime 	39.5
scalar IntersectionExampleScenario.node[38].veinsmobility 	stopTime 	142.75
scalar IntersectionExampleScenario.node[38].veinsmobility 	minSpeed 	5.6500000953674
scalar IntersectionExampleScenario.node[38].veinsmobility 	maxSpeed 	15.875
scalar IntersectionExampleScenario.node[38].veinsmobility 	totalDistance 	545.86136006005
scalar IntersectionExampleScenario.node[38].veinsmobility 	totalCO2Emission 	128.85763965315
scalar IntersectionExampleScenario.node[34].appl 	VehicleRemoved 	0
scalar IntersectionExampleScenario.node[34].appl 	ArrivedAtDest 	1
scalar IntersectionExampleScenario.node[34].appl 	IntersectionEnterTime 	94.5
scalar IntersectionExampleScenario.node[34].appl 	IntersectionExitTime 	127.56879055366
scalar IntersectionExampleScenario.node[34].appl 	NumberOfCollisions 	0
scalar IntersectionExampleScenario.node[34].nic.phy80211p 	busyTime 	0
scalar IntersectionExampleScenario.node[34].nic.mac1609_4 	ReceivedUnicastPackets 	0
scalar IntersectionExampleScenario.node[34].nic.mac1609_4 	ReceivedBroadcasts 	0
scalar IntersectionExampleScenario.node[34].nic.mac1609_4 	SentPackets 	0
scalar IntersectionExampleScenario.node[34].nic.mac1609_4 	SNIRLostPackets 	0
scalar IntersectionExampleScenario.node[34].nic.mac1609_4 	RXTXLostPackets 	0
scalar IntersectionExampleScenario.node[34].nic.mac1609_4 	TotalLostPackets 	0
scalar IntersectionExampleScenario.node[34].nic.mac1609_4 	DroppedPacketsInMac 	0
scalar IntersectionExampleScenario.node[34].nic.mac1609_4 	TooLittleTime 	0
scalar IntersectionExampleScenario.node[34].nic.mac1609_4 	TimesIntoBackoff 	0
scalar IntersectionExampleScenario.node[34].nic.mac1609_4 	SlotsBackoff 	0
scalar IntersectionExampleScenario.node[34].nic.mac1609_4 	NumInternalContention 	0
scalar IntersectionExampleScenario.node[34].nic.mac1609_4 	totalBusyTime 	0
scalar IntersectionExampleScenario.node[34].veinsmobility 	startTime 	94.5
scalar IntersectionExampleScenario.node[34].veinsmobility 	totalTime 	49.5
scalar IntersectionExampleScenario.node[34].veinsmobility 	stopTime 	144.25
scalar IntersectionExampleScenario.node[34].veinsmobility 	minSpeed 	0
scalar IntersectionExampleScenario.node[34].veinsmobility 	maxSpeed 	15.875
scalar IntersectionExampleScenario.node[34].veinsmobility 	totalDistance 	545.34077359587
scalar IntersectionExampleScenario.node[34].veinsmobility 	totalCO2Emission 	144.18512286764
scalar IntersectionExampleScenario.node[29].appl 	VehicleRemoved 	0
scalar IntersectionExampleScenario.node[29].appl 	ArrivedAtDest 	1
scalar IntersectionExampleScenario.node[29].appl 	IntersectionEnterTime 	81.75
scalar IntersectionExampleScenario.node[29].appl 	IntersectionExitTime 	128.57234325449
scalar IntersectionExampleScenario.node[29].appl 	NumberOfCollisions 	0
scalar IntersectionExampleScenario.node[29].nic.phy80211p 	busyTime 	0
scalar IntersectionExampleScenario.node[29].nic.mac1609_4 	ReceivedUnicastPackets 	0
scalar IntersectionExampleScenario.node[29].nic.mac1609_4 	ReceivedBroadcasts 	0
scalar IntersectionExampleScenario.node[29].nic.mac1609_4 	SentPackets 	0
scalar IntersectionExampleScenario.node[29].nic.mac1609_4 	SNIRLostPackets 	0
scalar IntersectionExampleScenario.node[29].nic.mac1609_4 	RXTXLostPackets 	0
scalar IntersectionExampleScenario.node[29].nic.mac1609_4 	TotalLostPackets 	0
scalar IntersectionExampleScenario.node[29].nic.mac1609_4 	DroppedPacketsInMac 	0
scalar IntersectionExampleScenario.node[29].nic.mac1609_4 	TooLittleTime 	0
scalar IntersectionExampleScenario.node[29].nic.mac1609_4 	TimesIntoBackoff 	0
scalar IntersectionExampleScenario.node[29].nic.mac1609_4 	SlotsBackoff 	0
scalar IntersectionExampleScenario.node[29].nic.mac1609_4 	NumInternalContention 	0
scalar IntersectionExampleScenario.node[29].nic.mac1609_4 	totalBusyTime 	0
scalar IntersectionExampleScenario.node[29].veinsmobility 	startTime 	81.75
scalar IntersectionExampleScenario.node[29].veinsmobility 	totalTime 	63
scalar IntersectionExampleScenario.node[29].veinsmobility 	stopTime 	145
scalar IntersectionExampleScenario.node[29].veinsmobility 	minSpeed 	0
scalar IntersectionExampleScenario.node[29].veinsmobility 	maxSpeed 	15.64999961853
scalar IntersectionExampleScenario.node[29].veinsmobility 	totalDistance 	554.1505279541
scalar IntersectionExampleScenario.node[29].veinsmobility 	totalCO2Emission 	155.49660996805
scalar IntersectionExampleScenario.node[36].appl 	VehicleRemoved 	0
scalar IntersectionExampleScenario.node[36].appl 	ArrivedAtDest 	1
scalar IntersectionExampleScenario.node[36].appl 	IntersectionEnterTime 	98
scalar IntersectionExampleScenario.node[36].appl 	IntersectionExitTime 	129.28683830888
scalar IntersectionExampleScenario.node[36].appl 	NumberOfCollisions 	0
scalar IntersectionExampleScenario.node[36].nic.phy80211p 	busyTime 	0
scalar IntersectionExampleScenario.node[36].nic.mac1609_4 	ReceivedUnicastPackets 	0
scalar IntersectionExampleScenario.node[36].nic.mac1609_4 	ReceivedBroadcasts 	0
scalar IntersectionExampleScenario.node[36].nic.mac1609_4 	SentPackets 	0
scalar IntersectionExampleScenario.node[36].nic.mac1609_4 	SNIRLostPackets 	0
scalar IntersectionExampleScenario.node[36].nic.mac1609_4 	RXTXLostPackets 	0
scalar IntersectionExampleScenario.node[36].nic.mac1609_4 	TotalLostPackets 	0
scalar IntersectionExampleScenario.node[36].nic.mac1609_4 	DroppedPacketsInMac 	0
scalar IntersectionExampleScenario.node[36].nic.mac1609_4 	TooLittleTime 	0
scalar IntersectionExampleScenario.node[36].nic.mac1609_4 	TimesIntoBackoff 	0
scalar IntersectionExampleScenario.node[36].nic.mac1609_4 	SlotsBackoff 	0
scalar IntersectionExampleScenario.node[36].nic.mac1609_4 	NumInternalContention 	0
scalar IntersectionExampleScenario.node[36].nic.mac1609_4 	totalBusyTime 	0
scalar IntersectionExampleScenario.node[36].veinsmobility 	startTime 	98
scalar IntersectionExampleScenario.node[36].veinsmobility 	totalTime 	47.25
scalar IntersectionExampleScenario.node[36].veinsmobility 	stopTime 	145.5
scalar IntersectionExampleScenario.node[36].veinsmobility 	minSpeed 	0
scalar IntersectionExampleScenario.node[36].veinsmobility 	maxSpeed 	15.64999961853
scalar IntersectionExampleScenario.node[36].veinsmobility 	totalDistance 	542.24459075928
scalar IntersectionExampleScenario.node[36].veinsmobility 	totalCO2Emission 	138.97149688311
scalar IntersectionExampleScenario.node[32].appl 	VehicleRemoved 	0
scalar IntersectionExampleScenario.node[32].appl 	ArrivedAtDest 	1
scalar IntersectionExampleScenario.node[32].appl 	IntersectionEnterTime 	86.5
scalar IntersectionExampleScenario.node[32].appl 	IntersectionExitTime 	129.04836969712
scalar IntersectionExampleScenario.node[32].appl 	NumberOfCollisions 	0
scalar IntersectionExampleScenario.node[32].nic.phy80211p 	busyTime 	0
scalar IntersectionExampleScenario.node[32].nic.mac1609_4 	ReceivedUnicastPackets 	0
scalar IntersectionExampleScenario.node[32].nic.mac1609_4 	ReceivedBroadcasts 	0
scalar IntersectionExampleScenario.node[32].nic.mac1609_4 	SentPackets 	0
scalar IntersectionExampleScenario.node[32].nic.mac1609_4 	SNIRLostPackets 	0
scalar IntersectionExampleScenario.node[32].nic.mac1609_4 	RXTXLostPackets 	0
scalar IntersectionExampleScenario.node[32].nic.mac1609_4 	TotalLostPackets 	0
scalar IntersectionExampleScenario.node[32].nic.mac1609_4 	DroppedPacketsInMac 	0
scalar IntersectionExampleScenario.node[32].nic.mac1609_4 	TooLittleTime 	0
scalar IntersectionExampleScenario.node[32].nic.mac1609_4 	TimesIntoBackoff 	0
scalar IntersectionExampleScenario.node[32].nic.mac1609_4 	SlotsBackoff 	0
scalar IntersectionExampleScenario.node[32].nic.mac1609_4 	NumInternalContention 	0
scalar IntersectionExampleScenario.node[32].nic.mac1609_4 	totalBusyTime 	0
scalar IntersectionExampleScenario.node[32].veinsmobility 	startTime 	86.5
scalar IntersectionExampleScenario.node[32].veinsmobility 	totalTime 	59
scalar IntersectionExampleScenario.node[32].veinsmobility 	stopTime 	145.75
scalar IntersectionExampleScenario.node[32].veinsmobility 	minSpeed 	0
scalar IntersectionExampleScenario.node[32].veinsmobility 	maxSpeed 	15.875
scalar IntersectionExampleScenario.node[32].veinsmobility 	totalDistance 	545.55138006544
scalar IntersectionExampleScenario.node[32].veinsmobility 	totalCO2Emission 	152.42472922679
scalar IntersectionExampleScenario.node[35].appl 	VehicleRemoved 	0
scalar IntersectionExampleScenario.node[35].appl 	ArrivedAtDest 	1
scalar IntersectionExampleScenario.node[35].appl 	IntersectionEnterTime 	97.5
scalar IntersectionExampleScenario.node[35].appl 	IntersectionExitTime 	131.58598894108
scalar IntersectionExampleScenario.node[35].appl 	NumberOfCollisions 	0
scalar IntersectionExampleScenario.node[35].nic.phy80211p 	busyTime 	0
scalar IntersectionExampleScenario.node[35].nic.mac1609_4 	ReceivedUnicastPackets 	0
scalar IntersectionExampleScenario.node[35].nic.mac1609_4 	ReceivedBroadcasts 	0
scalar IntersectionExampleScenario.node[35].nic.mac1609_4 	SentPackets 	0
scalar IntersectionExampleScenario.node[35].nic.mac1609_4 	SNIRLostPackets 	0
scalar IntersectionExampleScenario.node[35].nic.mac1609_4 	RXTXLostPackets 	0
scalar IntersectionExampleScenario.node[35].nic.mac1609_4 	TotalLostPackets 	0
scalar IntersectionExampleScenario.node[35].nic.mac1609_4 	DroppedPacketsInMac 	0
scalar IntersectionExampleScenario.node[35].nic.mac1609_4 	TooLittleTime 	0
scalar IntersectionExampleScenario.node[35].nic.mac1609_4 	TimesIntoBackoff 	0
scalar IntersectionExampleScenario.node[35].nic.mac1609_4 	SlotsBackoff 	0
scalar IntersectionExampleScenario.node[35].nic.mac1609_4 	NumInternalContention 	0
scalar IntersectionExampleScenario.node[35].nic.mac1609_4 	totalBusyTime 	0
scalar IntersectionExampleScenario.node[35].veinsmobility 	startTime 	97.5
scalar IntersectionExampleScenario.node[35].veinsmobility 	totalTime 	50.25
scalar IntersectionExampleScenario.node[35].veinsmobility 	stopTime 	148
scalar IntersectionExampleScenario.node[35].veinsmobility 	minSpeed 	1.6244877576828
scalar IntersectionExampleScenario.node[35].veinsmobility 	maxSpeed 	15.352896690369
scalar IntersectionExampleScenario.node[35].veinsmobility 	totalDistance 	567.02919006348
scalar IntersectionExampleScenario.node[35].veinsmobility 	totalCO2Emission 	140.9975129244
scalar IntersectionExampleScenario.node[33].appl 	VehicleRemoved 	0
scalar IntersectionExampleScenario.node[33].appl 	ArrivedAtDest 	1
scalar IntersectionExampleScenario.node[33].appl 	IntersectionEnterTime 	93.25
scalar IntersectionExampleScenario.node[33].appl 	IntersectionExitTime 	131.56290163106
scalar IntersectionExampleScenario.node[33].appl 	NumberOfCollisions 	0
scalar IntersectionExampleScenario.node[33].nic.phy80211p 	busyTime 	0
scalar IntersectionExampleScenario.node[33].nic.mac1609_4 	ReceivedUnicastPackets 	0
scalar IntersectionExampleScenario.node[33].nic.mac1609_4 	ReceivedBroadcasts 	0
scalar IntersectionExampleScenario.node[33].nic.mac1609_4 	SentPackets 	0
scalar IntersectionExampleScenario.node[33].nic.mac1609_4 	SNIRLostPackets 	0
scalar IntersectionExampleScenario.node[33].nic.mac1609_4 	RXTXLostPackets 	0
scalar IntersectionExampleScenario.node[33].nic.mac1609_4 	TotalLostPackets 	0
scalar IntersectionExampleScenario.node[33].nic.mac1609_4 	DroppedPacketsInMac 	0
scalar IntersectionExampleScenario.node[33].nic.mac1609_4 	TooLittleTime 	0
scalar IntersectionExampleScenario.node[33].nic.mac1609_4 	TimesIntoBackoff 	0
scalar IntersectionExampleScenario.node[33].nic.mac1609_4 	SlotsBackoff 	0
scalar IntersectionExampleScenario.node[33].nic.mac1609_4 	NumInternalContention 	0
scalar IntersectionExampleScenario.node[33].nic.mac1609_4 	totalBusyTime 	0
scalar IntersectionExampleScenario.node[33].veinsmobility 	startTime 	93.25
scalar IntersectionExampleScenario.node[33].veinsmobility 	totalTime 	55
scalar IntersectionExampleScenario.node[33].veinsmobility 	stopTime 	148.5
scalar IntersectionExampleScenario.node[33].veinsmobility 	minSpeed 	0
scalar IntersectionExampleScenario.node[33].veinsmobility 	maxSpeed 	15.875
scalar IntersectionExampleScenario.node[33].veinsmobility 	totalDistance 	545.83534318413
scalar IntersectionExampleScenario.node[33].veinsmobility 	totalCO2Emission 	145.07431296826
scalar IntersectionExampleScenario.node[40].appl 	VehicleRemoved 	0
scalar IntersectionExampleScenario.node[40].appl 	ArrivedAtDest 	1
scalar IntersectionExampleScenario.node[40].appl 	IntersectionEnterTime 	107.5
scalar IntersectionExampleScenario.node[40].appl 	IntersectionExitTime 	133.78538930579
scalar IntersectionExampleScenario.node[40].appl 	NumberOfCollisions 	0
scalar IntersectionExampleScenario.node[40].nic.phy80211p 	busyTime 	0
scalar IntersectionExampleScenario.node[40].nic.mac1609_4 	ReceivedUnicastPackets 	0
scalar IntersectionExampleScenario.node[40].nic.mac1609_4 	ReceivedBroadcasts 	0
scalar IntersectionExampleScenario.node[40].nic.mac1609_4 	SentPackets 	0
scalar IntersectionExampleScenario.node[40].nic.mac1609_4 	SNIRLostPackets 	0
scalar IntersectionExampleScenario.node[40].nic.mac1609_4 	RXTXLostPackets 	0
scalar IntersectionExampleScenario.node[40].nic.mac1609_4 	TotalLostPackets 	0
scalar IntersectionExampleScenario.node[40].nic.mac1609_4 	DroppedPacketsInMac 	0
scalar IntersectionExampleScenario.node[40].nic.mac1609_4 	TooLittleTime 	0
scalar IntersectionExampleScenario.node[40].nic.mac1609_4 	TimesIntoBackoff 	0
scalar IntersectionExampleScenario.node[40].nic.mac1609_4 	SlotsBackoff 	0
scalar IntersectionExampleScenario.node[40].nic.mac1609_4 	NumInternalContention 	0
scalar IntersectionExampleScenario.node[40].nic.mac1609_4 	totalBusyTime 	0
scalar IntersectionExampleScenario.node[40].veinsmobility 	startTime 	107.5
scalar IntersectionExampleScenario.node[40].veinsmobility 	totalTime 	41.5
scalar IntersectionExampleScenario.node[40].veinsmobility 	stopTime 	149.25
scalar IntersectionExampleScenario.node[40].veinsmobility 	minSpeed 	5.6500000953674
scalar IntersectionExampleScenario.node[40].veinsmobility 	maxSpeed 	16.27499961853
scalar IntersectionExampleScenario.node[40].veinsmobility 	totalDistance 	551.4358291626
scalar IntersectionExampleScenario.node[40].veinsmobility 	totalCO2Emission 	130.33844076164
scalar IntersectionExampleScenario.node[37].appl 	VehicleRemoved 	0
scalar IntersectionExampleScenario.node[37].appl 	ArrivedAtDest 	1
scalar IntersectionExampleScenario.node[37].appl 	IntersectionEnterTime 	98.75
scalar IntersectionExampleScenario.node[37].appl 	IntersectionExitTime 	134.05320585397
scalar IntersectionExampleScenario.node[37].appl 	NumberOfCollisions 	0
scalar IntersectionExampleScenario.node[37].nic.phy80211p 	busyTime 	0
scalar IntersectionExampleScenario.node[37].nic.mac1609_4 	ReceivedUnicastPackets 	0
scalar IntersectionExampleScenario.node[37].nic.mac1609_4 	ReceivedBroadcasts 	0
scalar IntersectionExampleScenario.node[37].nic.mac1609_4 	SentPackets 	0
scalar IntersectionExampleScenario.node[37].nic.mac1609_4 	SNIRLostPackets 	0
scalar IntersectionExampleScenario.node[37].nic.mac1609_4 	RXTXLostPackets 	0
scalar IntersectionExampleScenario.node[37].nic.mac1609_4 	TotalLostPackets 	0
scalar IntersectionExampleScenario.node[37].nic.mac1609_4 	DroppedPacketsInMac 	0
scalar IntersectionExampleScenario.node[37].nic.mac1609_4 	TooLittleTime 	0
scalar IntersectionExampleScenario.node[37].nic.mac1609_4 	TimesIntoBackoff 	0
[...]
scalar IntersectionExampleScenario.node[813].veinsmobility 	minSpeed 	5.6500000953674
scalar IntersectionExampleScenario.node[813].veinsmobility 	maxSpeed 	15.908403396606
scalar IntersectionExampleScenario.node[813].veinsmobility 	totalDistance 	323.0723968398
scalar IntersectionExampleScenario.node[813].veinsmobility 	totalCO2Emission 	83.640667687068
scalar IntersectionExampleScenario.node[814].appl 	VehicleRemoved 	0
scalar IntersectionExampleScenario.node[814].appl 	ArrivedAtDest 	0
scalar IntersectionExampleScenario.node[814].appl 	IntersectionEnterTime 	1778.75
scalar IntersectionExampleScenario.node[814].appl 	IntersectionExitTime 	-1
scalar IntersectionExampleScenario.node[814].appl 	NumberOfCollisions 	0
scalar IntersectionExampleScenario.node[814].nic.phy80211p 	busyTime 	0
scalar IntersectionExampleScenario.node[814].nic.mac1609_4 	ReceivedUnicastPackets 	0
scalar IntersectionExampleScenario.node[814].nic.mac1609_4 	ReceivedBroadcasts 	0
scalar IntersectionExampleScenario.node[814].nic.mac1609_4 	SentPackets 	0
scalar IntersectionExampleScenario.node[814].nic.mac1609_4 	SNIRLostPackets 	0
scalar IntersectionExampleScenario.node[814].nic.mac1609_4 	RXTXLostPackets 	0
scalar IntersectionExampleScenario.node[814].nic.mac1609_4 	TotalLostPackets 	0
scalar IntersectionExampleScenario.node[814].nic.mac1609_4 	DroppedPacketsInMac 	0
scalar IntersectionExampleScenario.node[814].nic.mac1609_4 	TooLittleTime 	0
scalar IntersectionExampleScenario.node[814].nic.mac1609_4 	TimesIntoBackoff 	0
scalar IntersectionExampleScenario.node[814].nic.mac1609_4 	SlotsBackoff 	0
scalar IntersectionExampleScenario.node[814].nic.mac1609_4 	NumInternalContention 	0
scalar IntersectionExampleScenario.node[814].nic.mac1609_4 	totalBusyTime 	0
scalar IntersectionExampleScenario.node[814].veinsmobility 	startTime 	1778.75
scalar IntersectionExampleScenario.node[814].veinsmobility 	totalTime 	21.25
scalar IntersectionExampleScenario.node[814].veinsmobility 	stopTime 	1800
scalar IntersectionExampleScenario.node[814].veinsmobility 	minSpeed 	0
scalar IntersectionExampleScenario.node[814].veinsmobility 	maxSpeed 	16.27499961853
scalar IntersectionExampleScenario.node[814].veinsmobility 	totalDistance 	287.42188262939
scalar IntersectionExampleScenario.node[814].veinsmobility 	totalCO2Emission 	67.450349676115
scalar IntersectionExampleScenario.node[815].appl 	VehicleRemoved 	0
scalar IntersectionExampleScenario.node[815].appl 	ArrivedAtDest 	0
scalar IntersectionExampleScenario.node[815].appl 	IntersectionEnterTime 	1780.5
scalar IntersectionExampleScenario.node[815].appl 	IntersectionExitTime 	-1
scalar IntersectionExampleScenario.node[815].appl 	NumberOfCollisions 	0
scalar IntersectionExampleScenario.node[815].nic.phy80211p 	busyTime 	0
scalar IntersectionExampleScenario.node[815].nic.mac1609_4 	ReceivedUnicastPackets 	0
scalar IntersectionExampleScenario.node[815].nic.mac1609_4 	ReceivedBroadcasts 	0
scalar IntersectionExampleScenario.node[815].nic.mac1609_4 	SentPackets 	0
scalar IntersectionExampleScenario.node[815].nic.mac1609_4 	SNIRLostPackets 	0
scalar IntersectionExampleScenario.node[815].nic.mac1609_4 	RXTXLostPackets 	0
scalar IntersectionExampleScenario.node[815].nic.mac1609_4 	TotalLostPackets 	0
scalar IntersectionExampleScenario.node[815].nic.mac1609_4 	DroppedPacketsInMac 	0
scalar IntersectionExampleScenario.node[815].nic.mac1609_4 	TooLittleTime 	0
scalar IntersectionExampleScenario.node[815].nic.mac1609_4 	TimesIntoBackoff 	0
scalar IntersectionExampleScenario.node[815].nic.mac1609_4 	SlotsBackoff 	0
scalar IntersectionExampleScenario.node[815].nic.mac1609_4 	NumInternalContention 	0
scalar IntersectionExampleScenario.node[815].nic.mac1609_4 	totalBusyTime 	0
scalar IntersectionExampleScenario.node[815].veinsmobility 	startTime 	1780.5
scalar IntersectionExampleScenario.node[815].veinsmobility 	totalTime 	19.5
scalar IntersectionExampleScenario.node[815].veinsmobility 	stopTime 	1800
scalar IntersectionExampleScenario.node[815].veinsmobility 	minSpeed 	5.6500000953674
scalar IntersectionExampleScenario.node[815].veinsmobility 	maxSpeed 	15.64999961853
scalar IntersectionExampleScenario.node[815].veinsmobility 	totalDistance 	276.45903778076
scalar IntersectionExampleScenario.node[815].veinsmobility 	totalCO2Emission 	64.23175222162
scalar IntersectionExampleScenario.node[816].appl 	VehicleRemoved 	0
scalar IntersectionExampleScenario.node[816].appl 	ArrivedAtDest 	0
scalar IntersectionExampleScenario.node[816].appl 	IntersectionEnterTime 	1783.25
scalar IntersectionExampleScenario.node[816].appl 	IntersectionExitTime 	-1
scalar IntersectionExampleScenario.node[816].appl 	NumberOfCollisions 	0
scalar IntersectionExampleScenario.node[816].nic.phy80211p 	busyTime 	0
scalar IntersectionExampleScenario.node[816].nic.mac1609_4 	ReceivedUnicastPackets 	0
scalar IntersectionExampleScenario.node[816].nic.mac1609_4 	ReceivedBroadcasts 	0
scalar IntersectionExampleScenario.node[816].nic.mac1609_4 	SentPackets 	0
scalar IntersectionExampleScenario.node[816].nic.mac1609_4 	SNIRLostPackets 	0
scalar IntersectionExampleScenario.node[816].nic.mac1609_4 	RXTXLostPackets 	0
scalar IntersectionExampleScenario.node[816].nic.mac1609_4 	TotalLostPackets 	0
scalar IntersectionExampleScenario.node[816].nic.mac1609_4 	DroppedPacketsInMac 	0
scalar IntersectionExampleScenario.node[816].nic.mac1609_4 	TooLittleTime 	0
scalar IntersectionExampleScenario.node[816].nic.mac1609_4 	TimesIntoBackoff 	0
scalar IntersectionExampleScenario.node[816].nic.mac1609_4 	SlotsBackoff 	0
scalar IntersectionExampleScenario.node[816].nic.mac1609_4 	NumInternalContention 	0
scalar IntersectionExampleScenario.node[816].nic.mac1609_4 	totalBusyTime 	0
scalar IntersectionExampleScenario.node[816].veinsmobility 	startTime 	1783.25
scalar IntersectionExampleScenario.node[816].veinsmobility 	totalTime 	16.75
scalar IntersectionExampleScenario.node[816].veinsmobility 	stopTime 	1800
scalar IntersectionExampleScenario.node[816].veinsmobility 	minSpeed 	5.6500000953674
scalar IntersectionExampleScenario.node[816].veinsmobility 	maxSpeed 	15.64999961853
scalar IntersectionExampleScenario.node[816].veinsmobility 	totalDistance 	217.97672271729
scalar IntersectionExampleScenario.node[816].veinsmobility 	totalCO2Emission 	54.4779057938
scalar IntersectionExampleScenario.node[817].appl 	VehicleRemoved 	0
scalar IntersectionExampleScenario.node[817].appl 	ArrivedAtDest 	0
scalar IntersectionExampleScenario.node[817].appl 	IntersectionEnterTime 	1788
scalar IntersectionExampleScenario.node[817].appl 	IntersectionExitTime 	-1
scalar IntersectionExampleScenario.node[817].appl 	NumberOfCollisions 	0
scalar IntersectionExampleScenario.node[817].nic.phy80211p 	busyTime 	0
scalar IntersectionExampleScenario.node[817].nic.mac1609_4 	ReceivedUnicastPackets 	0
scalar IntersectionExampleScenario.node[817].nic.mac1609_4 	ReceivedBroadcasts 	0
scalar IntersectionExampleScenario.node[817].nic.mac1609_4 	SentPackets 	0
scalar IntersectionExampleScenario.node[817].nic.mac1609_4 	SNIRLostPackets 	0
scalar IntersectionExampleScenario.node[817].nic.mac1609_4 	RXTXLostPackets 	0
scalar IntersectionExampleScenario.node[817].nic.mac1609_4 	TotalLostPackets 	0
scalar IntersectionExampleScenario.node[817].nic.mac1609_4 	DroppedPacketsInMac 	0
scalar IntersectionExampleScenario.node[817].nic.mac1609_4 	TooLittleTime 	0
scalar IntersectionExampleScenario.node[817].nic.mac1609_4 	TimesIntoBackoff 	0
scalar IntersectionExampleScenario.node[817].nic.mac1609_4 	SlotsBackoff 	0
scalar IntersectionExampleScenario.node[817].nic.mac1609_4 	NumInternalContention 	0
scalar IntersectionExampleScenario.node[817].nic.mac1609_4 	totalBusyTime 	0
scalar IntersectionExampleScenario.node[817].veinsmobility 	startTime 	1788
scalar IntersectionExampleScenario.node[817].veinsmobility 	totalTime 	12
scalar IntersectionExampleScenario.node[817].veinsmobility 	stopTime 	1800
scalar IntersectionExampleScenario.node[817].veinsmobility 	minSpeed 	5.6500000953674
scalar IntersectionExampleScenario.node[817].veinsmobility 	maxSpeed 	15.64999961853
scalar IntersectionExampleScenario.node[817].veinsmobility 	totalDistance 	161.4677734375
scalar IntersectionExampleScenario.node[817].veinsmobility 	totalCO2Emission 	48.56788283069
scalar IntersectionExampleScenario.node[818].appl 	VehicleRemoved 	0
scalar IntersectionExampleScenario.node[818].appl 	ArrivedAtDest 	0
scalar IntersectionExampleScenario.node[818].appl 	IntersectionEnterTime 	1790
scalar IntersectionExampleScenario.node[818].appl 	IntersectionExitTime 	-1
scalar IntersectionExampleScenario.node[818].appl 	NumberOfCollisions 	0
scalar IntersectionExampleScenario.node[818].nic.phy80211p 	busyTime 	0
scalar IntersectionExampleScenario.node[818].nic.mac1609_4 	ReceivedUnicastPackets 	0
scalar IntersectionExampleScenario.node[818].nic.mac1609_4 	ReceivedBroadcasts 	0
scalar IntersectionExampleScenario.node[818].nic.mac1609_4 	SentPackets 	0
scalar IntersectionExampleScenario.node[818].nic.mac1609_4 	SNIRLostPackets 	0
scalar IntersectionExampleScenario.node[818].nic.mac1609_4 	RXTXLostPackets 	0
scalar IntersectionExampleScenario.node[818].nic.mac1609_4 	TotalLostPackets 	0
scalar IntersectionExampleScenario.node[818].nic.mac1609_4 	DroppedPacketsInMac 	0
scalar IntersectionExampleScenario.node[818].nic.mac1609_4 	TooLittleTime 	0
scalar IntersectionExampleScenario.node[818].nic.mac1609_4 	TimesIntoBackoff 	0
scalar IntersectionExampleScenario.node[818].nic.mac1609_4 	SlotsBackoff 	0
scalar IntersectionExampleScenario.node[818].nic.mac1609_4 	NumInternalContention 	0
scalar IntersectionExampleScenario.node[818].nic.mac1609_4 	totalBusyTime 	0
scalar IntersectionExampleScenario.node[818].veinsmobility 	startTime 	1790
scalar IntersectionExampleScenario.node[818].veinsmobility 	totalTime 	10
scalar IntersectionExampleScenario.node[818].veinsmobility 	stopTime 	1800
scalar IntersectionExampleScenario.node[818].veinsmobility 	minSpeed 	5.6500000953674
scalar IntersectionExampleScenario.node[818].veinsmobility 	maxSpeed 	15.64999961853
scalar IntersectionExampleScenario.node[818].veinsmobility 	totalDistance 	132.05541229248
scalar IntersectionExampleScenario.node[818].veinsmobility 	totalCO2Emission 	44.53641221205
scalar IntersectionExampleScenario.node[819].appl 	VehicleRemoved 	0
scalar IntersectionExampleScenario.node[819].appl 	ArrivedAtDest 	0
scalar IntersectionExampleScenario.node[819].appl 	IntersectionEnterTime 	1790.5
scalar IntersectionExampleScenario.node[819].appl 	IntersectionExitTime 	-1
scalar IntersectionExampleScenario.node[819].appl 	NumberOfCollisions 	0
scalar IntersectionExampleScenario.node[819].nic.phy80211p 	busyTime 	0
scalar IntersectionExampleScenario.node[819].nic.mac1609_4 	ReceivedUnicastPackets 	0
scalar IntersectionExampleScenario.node[819].nic.mac1609_4 	ReceivedBroadcasts 	0
scalar IntersectionExampleScenario.node[819].nic.mac1609_4 	SentPackets 	0
scalar IntersectionExampleScenario.node[819].nic.mac1609_4 	SNIRLostPackets 	0
scalar IntersectionExampleScenario.node[819].nic.mac1609_4 	RXTXLostPackets 	0
scalar IntersectionExampleScenario.node[819].nic.mac1609_4 	TotalLostPackets 	0
scalar IntersectionExampleScenario.node[819].nic.mac1609_4 	DroppedPacketsInMac 	0
scalar IntersectionExampleScenario.node[819].nic.mac1609_4 	TooLittleTime 	0
scalar IntersectionExampleScenario.node[819].nic.mac1609_4 	TimesIntoBackoff 	0
scalar IntersectionExampleScenario.node[819].nic.mac1609_4 	SlotsBackoff 	0
scalar IntersectionExampleScenario.node[819].nic.mac1609_4 	NumInternalContention 	0
scalar IntersectionExampleScenario.node[819].nic.mac1609_4 	totalBusyTime 	0
scalar IntersectionExampleScenario.node[819].veinsmobility 	startTime 	1790.5
scalar IntersectionExampleScenario.node[819].veinsmobility 	totalTime 	9.5
scalar IntersectionExampleScenario.node[819].veinsmobility 	stopTime 	1800
scalar IntersectionExampleScenario.node[819].veinsmobility 	minSpeed 	5.6500000953674
scalar IntersectionExampleScenario.node[819].veinsmobility 	maxSpeed 	15.64999961853
scalar IntersectionExampleScenario.node[819].veinsmobility 	totalDistance 	124.64581298828
scalar IntersectionExampleScenario.node[819].veinsmobility 	totalCO2Emission 	43.816203296853
scalar IntersectionExampleScenario.node[820].appl 	VehicleRemoved 	0
scalar IntersectionExampleScenario.node[820].appl 	ArrivedAtDest 	0
scalar IntersectionExampleScenario.node[820].appl 	IntersectionEnterTime 	1793.25
scalar IntersectionExampleScenario.node[820].appl 	IntersectionExitTime 	-1
scalar IntersectionExampleScenario.node[820].appl 	NumberOfCollisions 	0
scalar IntersectionExampleScenario.node[820].nic.phy80211p 	busyTime 	0
scalar IntersectionExampleScenario.node[820].nic.mac1609_4 	ReceivedUnicastPackets 	0
scalar IntersectionExampleScenario.node[820].nic.mac1609_4 	ReceivedBroadcasts 	0
scalar IntersectionExampleScenario.node[820].nic.mac1609_4 	SentPackets 	0
scalar IntersectionExampleScenario.node[820].nic.mac1609_4 	SNIRLostPackets 	0
scalar IntersectionExampleScenario.node[820].nic.mac1609_4 	RXTXLostPackets 	0
scalar IntersectionExampleScenario.node[820].nic.mac1609_4 	TotalLostPackets 	0
scalar IntersectionExampleScenario.node[820].nic.mac1609_4 	DroppedPacketsInMac 	0
scalar IntersectionExampleScenario.node[820].nic.mac1609_4 	TooLittleTime 	0
scalar IntersectionExampleScenario.node[820].nic.mac1609_4 	TimesIntoBackoff 	0
scalar IntersectionExampleScenario.node[820].nic.mac1609_4 	SlotsBackoff 	0
scalar IntersectionExampleScenario.node[820].nic.mac1609_4 	NumInternalContention 	0
scalar IntersectionExampleScenario.node[820].nic.mac1609_4 	totalBusyTime 	0
scalar IntersectionExampleScenario.node[820].veinsmobility 	startTime 	1793.25
scalar IntersectionExampleScenario.node[820].veinsmobility 	totalTime 	6.75
scalar IntersectionExampleScenario.node[820].veinsmobility 	stopTime 	1800
scalar IntersectionExampleScenario.node[820].veinsmobility 	minSpeed 	5.6500000953674
scalar IntersectionExampleScenario.node[820].veinsmobility 	maxSpeed 	16.349529266357
scalar IntersectionExampleScenario.node[820].veinsmobility 	totalDistance 	83.96996307373
scalar IntersectionExampleScenario.node[820].veinsmobility 	totalCO2Emission 	41.928421967827
scalar IntersectionExampleScenario.node[821].appl 	VehicleRemoved 	0
scalar IntersectionExampleScenario.node[821].appl 	ArrivedAtDest 	0
scalar IntersectionExampleScenario.node[821].appl 	IntersectionEnterTime 	1794.75
scalar IntersectionExampleScenario.node[821].appl 	IntersectionExitTime 	-1
scalar IntersectionExampleScenario.node[821].appl 	NumberOfCollisions 	0
scalar IntersectionExampleScenario.node[821].nic.phy80211p 	busyTime 	0
scalar IntersectionExampleScenario.node[821].nic.mac1609_4 	ReceivedUnicastPackets 	0
scalar IntersectionExampleScenario.node[821].nic.mac1609_4 	ReceivedBroadcasts 	0
scalar IntersectionExampleScenario.node[821].nic.mac1609_4 	SentPackets 	0
scalar IntersectionExampleScenario.node[821].nic.mac1609_4 	SNIRLostPackets 	0
scalar IntersectionExampleScenario.node[821].nic.mac1609_4 	RXTXLostPackets 	0
scalar IntersectionExampleScenario.node[821].nic.mac1609_4 	TotalLostPackets 	0
scalar IntersectionExampleScenario.node[821].nic.mac1609_4 	DroppedPacketsInMac 	0
scalar IntersectionExampleScenario.node[821].nic.mac1609_4 	TooLittleTime 	0
scalar IntersectionExampleScenario.node[821].nic.mac1609_4 	TimesIntoBackoff 	0
scalar IntersectionExampleScenario.node[821].nic.mac1609_4 	SlotsBackoff 	0
scalar IntersectionExampleScenario.node[821].nic.mac1609_4 	NumInternalContention 	0
scalar IntersectionExampleScenario.node[821].nic.mac1609_4 	totalBusyTime 	0
scalar IntersectionExampleScenario.node[821].veinsmobility 	startTime 	1794.75
scalar IntersectionExampleScenario.node[821].veinsmobility 	totalTime 	5.25
scalar IntersectionExampleScenario.node[821].veinsmobility 	stopTime 	1800
scalar IntersectionExampleScenario.node[821].veinsmobility 	minSpeed 	5.6500000953674
scalar IntersectionExampleScenario.node[821].veinsmobility 	maxSpeed 	15.02499961853
scalar IntersectionExampleScenario.node[821].veinsmobility 	totalDistance 	58.880065917969
scalar IntersectionExampleScenario.node[821].veinsmobility 	totalCO2Emission 	33.330524295194
scalar IntersectionExampleScenario.node[822].appl 	VehicleRemoved 	0
scalar IntersectionExampleScenario.node[822].appl 	ArrivedAtDest 	0
scalar IntersectionExampleScenario.node[822].appl 	IntersectionEnterTime 	1798.5
scalar IntersectionExampleScenario.node[822].appl 	IntersectionExitTime 	-1
scalar IntersectionExampleScenario.node[822].appl 	NumberOfCollisions 	0
scalar IntersectionExampleScenario.node[822].nic.phy80211p 	busyTime 	0
scalar IntersectionExampleScenario.node[822].nic.mac1609_4 	ReceivedUnicastPackets 	0
scalar IntersectionExampleScenario.node[822].nic.mac1609_4 	ReceivedBroadcasts 	0
scalar IntersectionExampleScenario.node[822].nic.mac1609_4 	SentPackets 	0
scalar IntersectionExampleScenario.node[822].nic.mac1609_4 	SNIRLostPackets 	0
scalar IntersectionExampleScenario.node[822].nic.mac1609_4 	RXTXLostPackets 	0
scalar IntersectionExampleScenario.node[822].nic.mac1609_4 	TotalLostPackets 	0
scalar IntersectionExampleScenario.node[822].nic.mac1609_4 	DroppedPacketsInMac 	0
scalar IntersectionExampleScenario.node[822].nic.mac1609_4 	TooLittleTime 	0
scalar IntersectionExampleScenario.node[822].nic.mac1609_4 	TimesIntoBackoff 	0
scalar IntersectionExampleScenario.node[822].nic.mac1609_4 	SlotsBackoff 	0
scalar IntersectionExampleScenario.node[822].nic.mac1609_4 	NumInternalContention 	0
scalar IntersectionExampleScenario.node[822].nic.mac1609_4 	totalBusyTime 	0
scalar IntersectionExampleScenario.node[822].veinsmobility 	startTime 	1798.5
scalar IntersectionExampleScenario.node[822].veinsmobility 	totalTime 	1.5
scalar IntersectionExampleScenario.node[822].veinsmobility 	stopTime 	1800
scalar IntersectionExampleScenario.node[822].veinsmobility 	minSpeed 	5.6500000953674
scalar IntersectionExampleScenario.node[822].veinsmobility 	maxSpeed 	8.7749996185303
scalar IntersectionExampleScenario.node[822].veinsmobility 	totalDistance 	10.350036621094
scalar IntersectionExampleScenario.node[822].veinsmobility 	totalCO2Emission 	7.5597628883124
scalar IntersectionExampleScenario.node[823].appl 	VehicleRemoved 	0
scalar IntersectionExampleScenario.node[823].appl 	ArrivedAtDest 	0
scalar IntersectionExampleScenario.node[823].appl 	IntersectionEnterTime 	1800
scalar IntersectionExampleScenario.node[823].appl 	IntersectionExitTime 	-1
scalar IntersectionExampleScenario.node[823].appl 	NumberOfCollisions 	0
scalar IntersectionExampleScenario.node[823].nic.phy80211p 	busyTime 	nan
scalar IntersectionExampleScenario.node[823].nic.mac1609_4 	ReceivedUnicastPackets 	0
scalar IntersectionExampleScenario.node[823].nic.mac1609_4 	ReceivedBroadcasts 	0
scalar IntersectionExampleScenario.node[823].nic.mac1609_4 	SentPackets 	0
scalar IntersectionExampleScenario.node[823].nic.mac1609_4 	SNIRLostPackets 	0
scalar IntersectionExampleScenario.node[823].nic.mac1609_4 	RXTXLostPackets 	0
scalar IntersectionExampleScenario.node[823].nic.mac1609_4 	TotalLostPackets 	0
scalar IntersectionExampleScenario.node[823].nic.mac1609_4 	DroppedPacketsInMac 	0
scalar IntersectionExampleScenario.node[823].nic.mac1609_4 	TooLittleTime 	0
scalar IntersectionExampleScenario.node[823].nic.mac1609_4 	TimesIntoBackoff 	0
scalar IntersectionExampleScenario.node[823].nic.mac1609_4 	SlotsBackoff 	0
scalar IntersectionExampleScenario.node[823].nic.mac1609_4 	NumInternalContention 	0
scalar IntersectionExampleScenario.node[823].nic.mac1609_4 	totalBusyTime 	0
scalar IntersectionExampleScenario.node[823].veinsmobility 	startTime 	1800
scalar IntersectionExampleScenario.node[823].veinsmobility 	totalTime 	0
scalar IntersectionExampleScenario.node[823].veinsmobility 	stopTime 	1800
scalar IntersectionExampleScenario.node[823].veinsmobility 	totalDistance 	0
scalar IntersectionExampleScenario.node[823].veinsmobility 	totalCO2Emission 	0
