file 28888568 1591451811                                        
version 2
run nodebug-26-20200606-09:52:47-21192
attr configname nodebug
attr datetime 20200606-09:52:47
attr experiment nodebug
attr inifile omnetpp.ini
attr iterationvars ""
attr iterationvars2 $repetition=26
attr measurement ""
attr network "\"org.car2x.veins.modules.application.ExtTraCIScenarioManagerLaunchd.IntersectionExampleScenario\""
attr processid 21192
attr repetition 26
attr replication #26
attr resultdir results
attr runnumber 26
attr seedset 26
param **.coreDebug false
param **.debug false
param *.**.nic.mac1609_4.bitrate 18Mbps
param *.**.nic.mac1609_4.txPower 20mW
param *.**.nic.mac1609_4.useServiceChannel false
param *.**.nic.phy80211p.analogueModels "xmldoc(\"config.xml\")"
param *.**.nic.phy80211p.decider "xmldoc(\"config.xml\")"
param *.**.nic.phy80211p.sensitivity -89dBm
param *.**.nic.phy80211p.thermalNoise -110dBm
param *.**.nic.phy80211p.usePropagationDelay true
param *.**.nic.phy80211p.useThermalNoise true
param *.annotations.draw false
param *.connectionManager.alpha 2.0
param *.connectionManager.carrierFrequency "5.890e9 Hz"
param *.connectionManager.pMax 20mW
param *.connectionManager.sat -89dBm
param *.connectionManager.sendDirect true
param *.manager.autoShutdown true
param *.manager.host "\"localhost\""
param *.manager.launchConfig "xmldoc(\"paramics.launchd.xml\")"
param *.manager.margin 25
param *.manager.moduleDisplayString "\"\""
param *.manager.moduleName "\"node\""
param *.manager.moduleType "\"org.car2x.veins.nodes.Car\""
param *.manager.port 9999
param *.manager.updateInterval 250ms
param *.node[*0].veinsmobility.accidentCount 0
param *.node[*0].veinsmobility.accidentDuration 30s
param *.node[*0].veinsmobility.accidentStart 75s
param *.node[*].appl.LiderSelectZoneRadio 55.0
param *.node[*].appl.ShareDataZoneRadio 110.0
param *.node[*].appl.TiempoSemaforo 30.0
param *.node[*].appl.beaconInterval 1s
param *.node[*].appl.beaconPriority 3
param *.node[*].appl.dataOnSch false
param *.node[*].appl.dataPriority 2
param *.node[*].appl.debug false
param *.node[*].appl.headerLength "256 bit"
param *.node[*].appl.maxOffset 0.005s
param *.node[*].appl.sendBeacons false
param *.node[*].appl.sendData true
param *.node[*].applType "\"Dummy\""
param *.node[*].mobilityType "\"TraCIMobility\""
param *.node[*].mobilityType.debug true
param *.node[*].veinsmobility.x 0
param *.node[*].veinsmobility.y 0
param *.node[*].veinsmobility.z 1.895
param *.node[*].veinsmobilityType "\"org.car2x.veins.modules.mobility.traci.TraCIMobility\""
param *.node[*].veinsmobilityType.debug true
param *.playgroundSizeX 8500m
param *.playgroundSizeY 8500m
param *.playgroundSizeZ 50m
param *.world.use2D false
param *.world.useTorus false

vector 33484  IntersectionExampleScenario.manager  vehiclesinsim  ETV
attr type  int
vector 33485  IntersectionExampleScenario.manager  realtime  ETV
attr type  int
attr unit  s
vector 33488  IntersectionExampleScenario.node[0].veinsmobility  posx  ETV
vector 33489  IntersectionExampleScenario.node[0].veinsmobility  posy  ETV
vector 33495  IntersectionExampleScenario.node[1].veinsmobility  posx  ETV
vector 33496  IntersectionExampleScenario.node[1].veinsmobility  posy  ETV
vector 33490  IntersectionExampleScenario.node[0].veinsmobility  speed  ETV
vector 33491  IntersectionExampleScenario.node[0].veinsmobility  acceleration  ETV
vector 33492  IntersectionExampleScenario.node[0].veinsmobility  co2emission  ETV
vector 33497  IntersectionExampleScenario.node[1].veinsmobility  speed  ETV
vector 33498  IntersectionExampleScenario.node[1].veinsmobility  acceleration  ETV
vector 33499  IntersectionExampleScenario.node[1].veinsmobility  co2emission  ETV
vector 33502  IntersectionExampleScenario.node[2].veinsmobility  posx  ETV
vector 33503  IntersectionExampleScenario.node[2].veinsmobility  posy  ETV
vector 33504  IntersectionExampleScenario.node[2].veinsmobility  speed  ETV
vector 33505  IntersectionExampleScenario.node[2].veinsmobility  acceleration  ETV
vector 33506  IntersectionExampleScenario.node[2].veinsmobility  co2emission  ETV
vector 33509  IntersectionExampleScenario.node[3].veinsmobility  posx  ETV
vector 33510  IntersectionExampleScenario.node[3].veinsmobility  posy  ETV
vector 33511  IntersectionExampleScenario.node[3].veinsmobility  speed  ETV
vector 33512  IntersectionExampleScenario.node[3].veinsmobility  acceleration  ETV
vector 33513  IntersectionExampleScenario.node[3].veinsmobility  co2emission  ETV
vector 33516  IntersectionExampleScenario.node[4].veinsmobility  posx  ETV
vector 33517  IntersectionExampleScenario.node[4].veinsmobility  posy  ETV
vector 33518  IntersectionExampleScenario.node[4].veinsmobility  speed  ETV
vector 33519  IntersectionExampleScenario.node[4].veinsmobility  acceleration  ETV
vector 33520  IntersectionExampleScenario.node[4].veinsmobility  co2emission  ETV
vector 33523  IntersectionExampleScenario.node[5].veinsmobility  posx  ETV
vector 33524  IntersectionExampleScenario.node[5].veinsmobility  posy  ETV
vector 33525  IntersectionExampleScenario.node[5].veinsmobility  speed  ETV
vector 33526  IntersectionExampleScenario.node[5].veinsmobility  acceleration  ETV
vector 33527  IntersectionExampleScenario.node[5].veinsmobility  co2emission  ETV
vector 33530  IntersectionExampleScenario.node[6].veinsmobility  posx  ETV
vector 33531  IntersectionExampleScenario.node[6].veinsmobility  posy  ETV
vector 33532  IntersectionExampleScenario.node[6].veinsmobility  speed  ETV
vector 33533  IntersectionExampleScenario.node[6].veinsmobility  acceleration  ETV
vector 33534  IntersectionExampleScenario.node[6].veinsmobility  co2emission  ETV
vector 33537  IntersectionExampleScenario.node[7].veinsmobility  posx  ETV
vector 33538  IntersectionExampleScenario.node[7].veinsmobility  posy  ETV
vector 33539  IntersectionExampleScenario.node[7].veinsmobility  speed  ETV
vector 33540  IntersectionExampleScenario.node[7].veinsmobility  acceleration  ETV
vector 33541  IntersectionExampleScenario.node[7].veinsmobility  co2emission  ETV
vector 33544  IntersectionExampleScenario.node[8].veinsmobility  posx  ETV
vector 33545  IntersectionExampleScenario.node[8].veinsmobility  posy  ETV
vector 33551  IntersectionExampleScenario.node[9].veinsmobility  posx  ETV
vector 33552  IntersectionExampleScenario.node[9].veinsmobility  posy  ETV
vector 33546  IntersectionExampleScenario.node[8].veinsmobility  speed  ETV
vector 33553  IntersectionExampleScenario.node[9].veinsmobility  speed  ETV
vector 33558  IntersectionExampleScenario.node[10].veinsmobility  posx  ETV
vector 33559  IntersectionExampleScenario.node[10].veinsmobility  posy  ETV
vector 33547  IntersectionExampleScenario.node[8].veinsmobility  acceleration  ETV
vector 33548  IntersectionExampleScenario.node[8].veinsmobility  co2emission  ETV
vector 33554  IntersectionExampleScenario.node[9].veinsmobility  acceleration  ETV
vector 33555  IntersectionExampleScenario.node[9].veinsmobility  co2emission  ETV
vector 33560  IntersectionExampleScenario.node[10].veinsmobility  speed  ETV
vector 33561  IntersectionExampleScenario.node[10].veinsmobility  acceleration  ETV
vector 33562  IntersectionExampleScenario.node[10].veinsmobility  co2emission  ETV
vector 33565  IntersectionExampleScenario.node[11].veinsmobility  posx  ETV
vector 33566  IntersectionExampleScenario.node[11].veinsmobility  posy  ETV
vector 33567  IntersectionExampleScenario.node[11].veinsmobility  speed  ETV
vector 33568  IntersectionExampleScenario.node[11].veinsmobility  acceleration  ETV
vector 33569  IntersectionExampleScenario.node[11].veinsmobility  co2emission  ETV
vector 33572  IntersectionExampleScenario.node[12].veinsmobility  posx  ETV
vector 33573  IntersectionExampleScenario.node[12].veinsmobility  posy  ETV
vector 33574  IntersectionExampleScenario.node[12].veinsmobility  speed  ETV
vector 33575  IntersectionExampleScenario.node[12].veinsmobility  acceleration  ETV
vector 33576  IntersectionExampleScenario.node[12].veinsmobility  co2emission  ETV
vector 33579  IntersectionExampleScenario.node[13].veinsmobility  posx  ETV
vector 33580  IntersectionExampleScenario.node[13].veinsmobility  posy  ETV
vector 33581  IntersectionExampleScenario.node[13].veinsmobility  speed  ETV
vector 33582  IntersectionExampleScenario.node[13].veinsmobility  acceleration  ETV
vector 33583  IntersectionExampleScenario.node[13].veinsmobility  co2emission  ETV
vector 33586  IntersectionExampleScenario.node[14].veinsmobility  posx  ETV
vector 33587  IntersectionExampleScenario.node[14].veinsmobility  posy  ETV
vector 33588  IntersectionExampleScenario.node[14].veinsmobility  speed  ETV
vector 33589  IntersectionExampleScenario.node[14].veinsmobility  acceleration  ETV
vector 33590  IntersectionExampleScenario.node[14].veinsmobility  co2emission  ETV
vector 33593  IntersectionExampleScenario.node[15].veinsmobility  posx  ETV
vector 33594  IntersectionExampleScenario.node[15].veinsmobility  posy  ETV
vector 33595  IntersectionExampleScenario.node[15].veinsmobility  speed  ETV
vector 33596  IntersectionExampleScenario.node[15].veinsmobility  acceleration  ETV
vector 33597  IntersectionExampleScenario.node[15].veinsmobility  co2emission  ETV
vector 33600  IntersectionExampleScenario.node[16].veinsmobility  posx  ETV
vector 33601  IntersectionExampleScenario.node[16].veinsmobility  posy  ETV
vector 33602  IntersectionExampleScenario.node[16].veinsmobility  speed  ETV
vector 33603  IntersectionExampleScenario.node[16].veinsmobility  acceleration  ETV
vector 33604  IntersectionExampleScenario.node[16].veinsmobility  co2emission  ETV
vector 33607  IntersectionExampleScenario.node[17].veinsmobility  posx  ETV
vector 33608  IntersectionExampleScenario.node[17].veinsmobility  posy  ETV
vector 33614  IntersectionExampleScenario.node[18].veinsmobility  posx  ETV
vector 33615  IntersectionExampleScenario.node[18].veinsmobility  posy  ETV
vector 33609  IntersectionExampleScenario.node[17].veinsmobility  speed  ETV
vector 33621  IntersectionExampleScenario.node[19].veinsmobility  posx  ETV
vector 33622  IntersectionExampleScenario.node[19].veinsmobility  posy  ETV
vector 33610  IntersectionExampleScenario.node[17].veinsmobility  acceleration  ETV
vector 33611  IntersectionExampleScenario.node[17].veinsmobility  co2emission  ETV
vector 33616  IntersectionExampleScenario.node[18].veinsmobility  speed  ETV
vector 33617  IntersectionExampleScenario.node[18].veinsmobility  acceleration  ETV
vector 33618  IntersectionExampleScenario.node[18].veinsmobility  co2emission  ETV
vector 33623  IntersectionExampleScenario.node[19].veinsmobility  speed  ETV
33492	10737 4679 12 2902 1.25 38.75 151 0.973 12.099024792222 484.63932310442 2737.0470039873
33491	15416 4409 12 2902 1.25 38.75 151 -3.3015441894531 2.5 40.038900375366 214.29066054663
33490	19825 4645 7 2902 1 38.75 152 5.6500000953674 16.27499961853 2222.9441194534 33242.732746531
33489	24470 4914 4 2902 0.75 38.75 153 486.85000610352 486.85000610352 74488.050933838 36264508.051778
33488	29384 4893 4 2902 0.75 38.75 153 235.4130859375 785.82187652588 79763.297737122 45666266.722443
vector 33624  IntersectionExampleScenario.node[19].veinsmobility  acceleration  ETV
vector 33625  IntersectionExampleScenario.node[19].veinsmobility  co2emission  ETV
33499	34446 5223 17 3348 1.5 43 167 0.973 11.468795983774 515.92608964287 2750.098494397
33498	39669 4854 17 3348 1.5 43 167 -4.5 2.5 37.32285118103 253.05369747212
33497	44523 5138 12 3348 1.25 43 168 5.6500000953674 15.400011062622 2306.1339988708 32570.693479461
33496	49661 5441 7 3348 1 43 169 236.76898193359 486.85000610352 73730.340240479 33159009.035975
33495	55102 5428 7 3348 1 43 169 483.14999389648 810.23281097412 98482.635444641 59615561.455606
33506	60530 4995 96 3479 5.25 44.5 158 0.973 12.0150145414 532.40770048199 3071.8170899323
33505	65525 4555 96 3479 5.25 44.5 158 -4.5 2.5 39.699392318726 281.82134729569
33504	70080 4913 89 3479 5 44.5 159 5.6500000953674 16.158903121948 2307.9218769073 34211.85497502
33503	74993 5194 82 3479 4.75 44.5 160 486.85000610352 486.85000610352 77896.000976562 37923668.550879
33502	80187 5184 82 3479 4.75 44.5 160 235.7490234375 807.14191436768 85154.347694397 49904137.360329
33513	85371 4890 156 3542 7.25 45.25 153 0.97223939240464 11.648172402475 471.80125096764 2469.8143218926
33512	90261 4412 156 3542 7.25 45.25 153 -3.5467834472656 2.5 38.680875778198 197.15959754627
33511	94673 4787 147 3542 7 45.25 154 5.6500000953674 15.64999961853 2210.3583860397 32381.156427409
33510	99460 5048 138 3542 6.75 45.25 155 483.14999389648 483.14999389648 74888.249053955 36182257.073337
33509	104508 5016 138 3542 6.75 45.25 155 184.17810058594 731.58805847168 69392.785324097 35155219.959426
vector 33628  IntersectionExampleScenario.node[20].veinsmobility  posx  ETV
vector 33629  IntersectionExampleScenario.node[20].veinsmobility  posy  ETV
vector 33630  IntersectionExampleScenario.node[20].veinsmobility  speed  ETV
vector 33631  IntersectionExampleScenario.node[20].veinsmobility  acceleration  ETV
vector 33632  IntersectionExampleScenario.node[20].veinsmobility  co2emission  ETV
vector 33635  IntersectionExampleScenario.node[21].veinsmobility  posx  ETV
vector 33636  IntersectionExampleScenario.node[21].veinsmobility  posy  ETV
vector 33637  IntersectionExampleScenario.node[21].veinsmobility  speed  ETV
33520	110157 5335 205 3936 8.5 50.25 168 0.973 11.36141391502 512.62423475392 2639.7058723656
33519	115492 4714 205 3936 8.5 50.25 168 -3.3894176483154 2.5 37.32285118103 267.58175937022
33518	120206 5203 194 3936 8.25 50.25 169 5.6500000953674 15.25 2278.0921730995 31996.845586249
33517	125409 5529 183 3936 8 50.25 170 486.85000610352 734.83889770508 91198.872573853 49896508.763705
33516	130938 5541 183 3936 8 50.25 170 486.81030273438 807.73033905029 98710.708488464 59428406.74696
vector 33638  IntersectionExampleScenario.node[21].veinsmobility  acceleration  ETV
vector 33639  IntersectionExampleScenario.node[21].veinsmobility  co2emission  ETV
vector 33642  IntersectionExampleScenario.node[22].veinsmobility  posx  ETV
vector 33643  IntersectionExampleScenario.node[22].veinsmobility  posy  ETV
vector 33644  IntersectionExampleScenario.node[22].veinsmobility  speed  ETV
vector 33645  IntersectionExampleScenario.node[22].veinsmobility  acceleration  ETV
vector 33646  IntersectionExampleScenario.node[22].veinsmobility  co2emission  ETV
33534	137049 5135 415 4181 12.5 53 163 0.973 11.36141391502 520.0753260849 2719.7547683419
33533	142184 4913 415 4181 12.5 53 163 -4.3543128967285 2.5 39.869146347046 267.68299674947
33532	147097 5061 400 4181 12.25 53 164 5.6500000953674 15.672202110291 2259.0493850708 32596.671857194
33531	152158 5404 385 4181 12 53 165 486.85000610352 734.57913208008 88428.843139648 48325608.197276
33530	157562 5388 385 4181 12 53 165 486.85000610352 802.97611999512 95520.0027771 57294550.361909
vector 33649  IntersectionExampleScenario.node[23].veinsmobility  posx  ETV
vector 33650  IntersectionExampleScenario.node[23].veinsmobility  posy  ETV
vector 33651  IntersectionExampleScenario.node[23].veinsmobility  speed  ETV
vector 33652  IntersectionExampleScenario.node[23].veinsmobility  acceleration  ETV
vector 33653  IntersectionExampleScenario.node[23].veinsmobility  co2emission  ETV
33527	163351 5673 242 4450 9.25 55.75 187 0.973 12.099024792222 579.87431668002 3214.8168427659
33526	169024 5353 242 4450 9.25 55.75 187 -9.4888124465942 4 40.887662887573 531.85534693118
33525	174377 5513 229 4450 9 55.75 188 0 16.27499961853 2204.4083185196 32227.446895405
33524	179890 6165 216 4450 8.75 55.75 189 184.17810058594 486.85000610352 77675.664520264 33811466.560329
33523	186055 6184 216 4450 8.75 55.75 189 236.69555664062 486.85000610352 83918.810546875 38262347.798928
33541	192239 5477 464 4625 13.25 57.5 178 0.973 11.54047740176 530.71364063802 2764.7853487957
33540	197716 5287 464 4625 13.25 57.5 178 -2.9248809814453 2.5000019073486 37.492597579956 309.18498506597
33539	203003 5709 447 4625 13 57.5 179 2.5597310066223 15.5 2242.3927412033 30728.182800054
33538	208712 5870 430 4625 12.75 57.5 180 177.97814941406 733.55590820312 80383.181488037 40230803.032496
33537	214582 5910 430 4625 12.75 57.5 180 486.85000610352 486.85000610352 87633.001098633 42664127.119739
vector 33656  IntersectionExampleScenario.node[24].veinsmobility  posx  ETV
vector 33657  IntersectionExampleScenario.node[24].veinsmobility  posy  ETV
33548	220646 5119 795 4675 18 58 161 0.973 11.648172402475 523.49735240784 2845.5874138261
33547	225765 4837 795 4675 18 58 161 -4.5 2.5 38.511121749878 343.12366055969
33546	230602 5119 774 4675 17.75 58 162 4.6473360061646 15.64999961853 2183.1256594658 30988.654130068
33545	235721 5356 753 4675 17.5 58 163 486.5549621582 785.82187652588 93192.445594788 55029473.567353
33544	241077 5362 753 4675 17.5 58 163 235.87115478516 483.14999389648 70526.464996338 31452108.883176
vector 33658  IntersectionExampleScenario.node[24].veinsmobility  speed  ETV
vector 33659  IntersectionExampleScenario.node[24].veinsmobility  acceleration  ETV
vector 33660  IntersectionExampleScenario.node[24].veinsmobility  co2emission  ETV
33555	246686 5215 795 4783 18 59 165 0.973 11.54047740176 543.22658017885 2868.474081218
33554	251901 5031 795 4783 18 59 165 -4.5 2.5000019073486 41.396924972534 303.59178945457
33553	256932 5239 774 4783 17.75 59 166 5.6500000953674 16.021757125854 2224.6185717583 31684.262370776
33552	262171 5471 753 4783 17.5 59 167 184.17810058594 735.11166381836 74473.602371216 37279793.749848
33551	267642 5499 753 4783 17.5 59 167 486.85000610352 486.85000610352 81303.951019287 39582829.04998
vector 33663  IntersectionExampleScenario.node[25].veinsmobility  posx  ETV
vector 33664  IntersectionExampleScenario.node[25].veinsmobility  posy  ETV
vector 33665  IntersectionExampleScenario.node[25].veinsmobility  speed  ETV
vector 33666  IntersectionExampleScenario.node[25].veinsmobility  acceleration  ETV
vector 33667  IntersectionExampleScenario.node[25].veinsmobility  co2emission  ETV
33576	273542 5006 1262 5210 22.75 62.75 161 0.973 11.810082123732 534.098783144 3217.1355134349
33575	278548 4963 1262 5210 22.75 62.75 161 -4.1429824829102 2.5 39.699392318726 328.74279052971
33574	283511 5021 1235 5210 22.5 62.75 162 5.6500000953674 15.875 2189.0213403702 30950.681420279
33573	288532 5354 1208 5210 22.25 62.75 163 184.17810058594 483.14999389648 64804.741729736 27494944.083093
33572	293886 5374 1208 5210 22.25 62.75 163 486.85000610352 734.42839050293 87458.13772583 47855139.873825
vector 33670  IntersectionExampleScenario.node[26].veinsmobility  posx  ETV
vector 33671  IntersectionExampleScenario.node[26].veinsmobility  posy  ETV
vector 33672  IntersectionExampleScenario.node[26].veinsmobility  speed  ETV
vector 33673  IntersectionExampleScenario.node[26].veinsmobility  acceleration  ETV
vector 33674  IntersectionExampleScenario.node[26].veinsmobility  co2emission  ETV
vector 33677  IntersectionExampleScenario.node[27].veinsmobility  posx  ETV
vector 33678  IntersectionExampleScenario.node[27].veinsmobility  posy  ETV
vector 33679  IntersectionExampleScenario.node[27].veinsmobility  speed  ETV
vector 33680  IntersectionExampleScenario.node[27].veinsmobility  acceleration  ETV
vector 33681  IntersectionExampleScenario.node[27].veinsmobility  co2emission  ETV
33583	300062 5011 1619 5543 26.25 65.75 159 0.973 11.810082123732 511.30836839416 2915.2271037543
33582	305073 4983 1619 5543 26.25 65.75 159 -3.6911506652832 2.5 38.511121749878 295.64348743603
33581	310056 4949 1592 5543 26 65.75 160 5.6500000953674 15.875 2187.1744232178 31238.25986114
33580	315005 5305 1565 5543 25.75 65.75 161 486.66293334961 785.82187652588 92183.409126282 54520887.426889
33579	320310 5308 1565 5543 25.75 65.75 161 236.06665039062 483.14999389648 69583.398742676 31003944.231476
vector 33684  IntersectionExampleScenario.node[28].veinsmobility  posx  ETV
vector 33685  IntersectionExampleScenario.node[28].veinsmobility  posy  ETV
vector 33686  IntersectionExampleScenario.node[28].veinsmobility  speed  ETV
vector 33687  IntersectionExampleScenario.node[28].veinsmobility  acceleration  ETV
vector 33688  IntersectionExampleScenario.node[28].veinsmobility  co2emission  ETV
vector 33691  IntersectionExampleScenario.node[29].veinsmobility  posx  ETV
vector 33692  IntersectionExampleScenario.node[29].veinsmobility  posy  ETV
vector 33693  IntersectionExampleScenario.node[29].veinsmobility  speed  ETV
vector 33694  IntersectionExampleScenario.node[29].veinsmobility  acceleration  ETV
vector 33695  IntersectionExampleScenario.node[29].veinsmobility  co2emission  ETV
vector 33698  IntersectionExampleScenario.node[30].veinsmobility  posx  ETV
vector 33699  IntersectionExampleScenario.node[30].veinsmobility  posy  ETV
vector 33700  IntersectionExampleScenario.node[30].veinsmobility  speed  ETV
vector 33701  IntersectionExampleScenario.node[30].veinsmobility  acceleration  ETV
vector 33702  IntersectionExampleScenario.node[30].veinsmobility  co2emission  ETV
vector 33705  IntersectionExampleScenario.node[31].veinsmobility  posx  ETV
vector 33706  IntersectionExampleScenario.node[31].veinsmobility  posy  ETV
vector 33707  IntersectionExampleScenario.node[31].veinsmobility  speed  ETV
vector 33708  IntersectionExampleScenario.node[31].veinsmobility  acceleration  ETV
vector 33709  IntersectionExampleScenario.node[31].veinsmobility  co2emission  ETV
33618	327222 5143 2902 6672 38.75 78.25 159 0.973 11.200708441096 456.73025792377 2199.7707180944
33617	332365 4598 2902 6672 38.75 78.25 159 -3.609977722168 2.5 35.964826583862 173.546437922
33616	336963 5048 2873 6672 38.5 78.25 160 5.6500000953674 15.02499961853 2217.4476184845 31251.739127246
33615	342011 5259 2846 6672 38.25 78.25 161 184.17810058594 733.53187561035 72390.111404419 36815025.135914
33614	347270 5314 2846 6672 38.25 78.25 161 486.85000610352 486.85000610352 78382.850982666 38160691.479322
vector 33712  IntersectionExampleScenario.node[32].veinsmobility  posx  ETV
vector 33713  IntersectionExampleScenario.node[32].veinsmobility  posy  ETV
vector 33714  IntersectionExampleScenario.node[32].veinsmobility  speed  ETV
vector 33715  IntersectionExampleScenario.node[32].veinsmobility  acceleration  ETV
vector 33716  IntersectionExampleScenario.node[32].veinsmobility  co2emission  ETV
33625	352985 5337 2931 6843 39 80 165 0.973 10.787506050403 476.15587981303 2113.8566541951
33624	358322 4783 2931 6843 39 80 165 -3.3171691894531 2.5 37.15309715271 157.54830116383
33623	363105 5271 2902 6843 38.75 80 166 5.6500000953674 14.994411468506 2317.4589099884 32999.785349284
33622	368376 5488 2873 6843 38.5 80 167 159.76721191406 734.05921936035 72720.699539185 36539391.187217
33621	373864 5510 2873 6843 38.5 80 167 486.85000610352 486.85000610352 81303.951019287 39582829.04998
vector 33719  IntersectionExampleScenario.node[33].veinsmobility  posx  ETV
vector 33720  IntersectionExampleScenario.node[33].veinsmobility  posy  ETV
vector 33721  IntersectionExampleScenario.node[33].veinsmobility  speed  ETV
vector 33722  IntersectionExampleScenario.node[33].veinsmobility  acceleration  ETV
vector 33723  IntersectionExampleScenario.node[33].veinsmobility  co2emission  ETV
33562	379775 7322 841 7051 18.5 82 255 0.973 11.90022389248 640.52844710907 3168.3233953739
33561	387097 6525 841 7051 18.5 82 255 -7.6176958084106 4 39.699392318726 554.93067298788
33560	393622 6881 818 7051 18.25 82 256 0 16 2217.3342788219 32250.131256801
33559	400503 8470 795 7051 18 82 257 483.14999389648 483.14999389648 124169.5484314 59992516.566758
33558	408973 8439 795 7051 18 82 257 184.17810058594 734.53973388672 117655.71655273 58001308.480306
33590	417412 6511 1701 7051 27 82 221 0.973 11.90022389248 603.83209580111 3135.0281252298
33589	423923 6241 1701 7051 27 82 221 -6.9778003692627 4 39.699392318726 488.10864558354
33588	430164 6265 1674 7051 26.75 82 222 0 16 2217.6971840858 32065.492717281
33587	436429 7358 1646 7051 26.5 82 223 486.85000610352 486.85000610352 108567.55136108 52856113.042787
33586	443787 7346 1646 7051 26.5 82 223 235.46020507812 785.82187652588 114713.24149323 63139634.279866
vector 33726  IntersectionExampleScenario.node[34].veinsmobility  posx  ETV
vector 33727  IntersectionExampleScenario.node[34].veinsmobility  posy  ETV
vector 33733  IntersectionExampleScenario.node[35].veinsmobility  posx  ETV
vector 33734  IntersectionExampleScenario.node[35].veinsmobility  posy  ETV
vector 33728  IntersectionExampleScenario.node[34].veinsmobility  speed  ETV
vector 33735  IntersectionExampleScenario.node[35].veinsmobility  speed  ETV
vector 33729  IntersectionExampleScenario.node[34].veinsmobility  acceleration  ETV
vector 33730  IntersectionExampleScenario.node[34].veinsmobility  co2emission  ETV
vector 33736  IntersectionExampleScenario.node[35].veinsmobility  acceleration  ETV
vector 33737  IntersectionExampleScenario.node[35].veinsmobility  co2emission  ETV
vector 33740  IntersectionExampleScenario.node[36].veinsmobility  posx  ETV
vector 33741  IntersectionExampleScenario.node[36].veinsmobility  posy  ETV
vector 33742  IntersectionExampleScenario.node[36].veinsmobility  speed  ETV
vector 33743  IntersectionExampleScenario.node[36].veinsmobility  acceleration  ETV
vector 33744  IntersectionExampleScenario.node[36].veinsmobility  co2emission  ETV
33597	452336 6847 1994 7336 29.75 84.25 219 0.973 11.648172402475 592.88589471064 2963.9459423399
33596	459183 6958 1994 7336 29.75 84.25 219 -4.5 2.5 38.511121749878 422.34181768365
33595	466141 7129 1968 7336 29.5 84.25 220 0 15.64999961853 2269.38668078 31892.301870581
33594	473270 7294 1941 7336 29.25 84.25 221 486.85000610352 486.85000610352 107593.85134888 52382067.185901
33593	480564 7262 1941 7336 29.25 84.25 221 237.22619628906 800.04531860352 115460.11708832 64784488.206769
33569	487826 7937 983 7402 20 84.75 260 0.973 11.890261567558 648.36580556096 3090.1450840869
33568	495763 7787 983 7402 20 84.75 260 -4.5 2.5000004768372 39.190130233765 448.74240248229
33567	503550 8067 958 7402 19.75 84.75 261 0 15.986194610596 2297.7391977664 32579.775184021
33566	511617 8644 933 7402 19.5 84.75 262 483.14999389648 483.14999389648 126585.29840088 61159686.149769
33565	520261 8601 933 7402 19.5 84.75 262 163.88433837891 733.46031188965 117468.69772339 57285508.871864
vector 33747  IntersectionExampleScenario.node[37].veinsmobility  posx  ETV
vector 33748  IntersectionExampleScenario.node[37].veinsmobility  posy  ETV
vector 33754  IntersectionExampleScenario.node[38].veinsmobility  posx  ETV
vector 33755  IntersectionExampleScenario.node[38].veinsmobility  posy  ETV
vector 33749  IntersectionExampleScenario.node[37].veinsmobility  speed  ETV
33604	529248 6635 2248 7756 32.25 87.5 222 0.97223939240464 11.810082123732 583.88762920654 3031.2229868752
33603	535883 6951 2248 7756 32.25 87.5 222 -3.8098843097687 2.5 38.680875778198 347.93396725537
33602	542834 7014 2221 7756 32 87.5 223 0 15.875 2177.8799282741 28573.030825118
33601	549848 7391 2194 7756 31.75 87.5 224 238.53582763672 483.14999389648 100195.03189087 45834651.645376
33600	557239 7360 2194 7756 31.75 87.5 224 184.17810058594 483.14999389648 92200.125762939 39818612.948285
vector 33750  IntersectionExampleScenario.node[37].veinsmobility  acceleration  ETV
vector 33751  IntersectionExampleScenario.node[37].veinsmobility  co2emission  ETV
vector 33756  IntersectionExampleScenario.node[38].veinsmobility  speed  ETV
vector 33757  IntersectionExampleScenario.node[38].veinsmobility  acceleration  ETV
vector 33758  IntersectionExampleScenario.node[38].veinsmobility  co2emission  ETV
33611	565015 6013 2873 7931 38.5 88.75 202 0.973 11.648172402475 554.75090899947 2886.8338186513
33610	571028 6159 2873 7931 38.5 88.75 202 -2.800235748291 2.5 38.850629806519 316.93022219134
33609	577187 6493 2846 7931 38.25 88.75 203 1.7667391300201 15.64999961853 2219.6070151329 29072.940104887
33608	583680 6732 2821 7931 38 88.75 204 483.14999389648 483.14999389648 98562.598754883 47620518.986843
33607	590412 6692 2821 7931 38 88.75 204 184.17810058594 734.03059387207 90744.311935425 44533416.835873
33639	597104 5004 3957 8176 50.5 90.5 161 0.973 12.099024792222 532.22269222184 3069.2703918294
33638	602108 4783 3957 8176 50.5 90.5 161 -2.4274482727051 2.5 41.396924972534 248.00759450678
33637	606891 5118 3936 8176 50.25 90.5 162 5.6500000953674 16.27499961853 2214.3327560425 31379.464172223
33636	612009 5378 3915 8176 50 90.5 163 483.14999389648 483.14999389648 78753.449005127 38049728.406154
33635	617387 5339 3915 8176 50 90.5 163 184.17810058594 732.30465698242 72406.191375732 36176073.343527
vector 33761  IntersectionExampleScenario.node[39].veinsmobility  posx  ETV
vector 33762  IntersectionExampleScenario.node[39].veinsmobility  posy  ETV
vector 33763  IntersectionExampleScenario.node[39].veinsmobility  speed  ETV
vector 33764  IntersectionExampleScenario.node[39].veinsmobility  acceleration  ETV
vector 33765  IntersectionExampleScenario.node[39].veinsmobility  co2emission  ETV
vector 33768  IntersectionExampleScenario.node[40].veinsmobility  posx  ETV
vector 33769  IntersectionExampleScenario.node[40].veinsmobility  posy  ETV
vector 33770  IntersectionExampleScenario.node[40].veinsmobility  speed  ETV
vector 33771  IntersectionExampleScenario.node[40].veinsmobility  acceleration  ETV
vector 33772  IntersectionExampleScenario.node[40].veinsmobility  co2emission  ETV
vector 33775  IntersectionExampleScenario.node[41].veinsmobility  posx  ETV
vector 33776  IntersectionExampleScenario.node[41].veinsmobility  posy  ETV
vector 33782  IntersectionExampleScenario.node[42].veinsmobility  posx  ETV
vector 33783  IntersectionExampleScenario.node[42].veinsmobility  posy  ETV
vector 33777  IntersectionExampleScenario.node[41].veinsmobility  speed  ETV
vector 33778  IntersectionExampleScenario.node[41].veinsmobility  acceleration  ETV
vector 33779  IntersectionExampleScenario.node[41].veinsmobility  co2emission  ETV
vector 33784  IntersectionExampleScenario.node[42].veinsmobility  speed  ETV
vector 33785  IntersectionExampleScenario.node[42].veinsmobility  acceleration  ETV
vector 33786  IntersectionExampleScenario.node[42].veinsmobility  co2emission  ETV
vector 33789  IntersectionExampleScenario.node[43].veinsmobility  posx  ETV
vector 33790  IntersectionExampleScenario.node[43].veinsmobility  posy  ETV
vector 33791  IntersectionExampleScenario.node[43].veinsmobility  speed  ETV
vector 33792  IntersectionExampleScenario.node[43].veinsmobility  acceleration  ETV
vector 33793  IntersectionExampleScenario.node[43].veinsmobility  co2emission  ETV
vector 33796  IntersectionExampleScenario.node[44].veinsmobility  posx  ETV
vector 33797  IntersectionExampleScenario.node[44].veinsmobility  posy  ETV
vector 33798  IntersectionExampleScenario.node[44].veinsmobility  speed  ETV
vector 33799  IntersectionExampleScenario.node[44].veinsmobility  acceleration  ETV
vector 33800  IntersectionExampleScenario.node[44].veinsmobility  co2emission  ETV
vector 33803  IntersectionExampleScenario.node[45].veinsmobility  posx  ETV
vector 33804  IntersectionExampleScenario.node[45].veinsmobility  posy  ETV
vector 33805  IntersectionExampleScenario.node[45].veinsmobility  speed  ETV
33674	625364 4784 5373 9886 64.25 101.5 150 0.973 12.553400930962 520.55732226979 3207.7839956938
33673	630148 4499 5373 9886 64.25 101.5 150 -3.3279609680176 2.5 42.585195541382 272.9377675608
33672	634647 4678 5346 9886 64 101.5 151 5.6500000953674 16.89999961853 2211.3182706833 33630.407801828
33671	639325 5020 5318 9886 63.75 101.5 152 236.08612060547 486.85000610352 66063.006866455 29621708.086424
33670	644345 5010 5318 9886 63.75 101.5 152 483.13958740234 785.82187652588 86982.259635925 51494042.100669
vector 33806  IntersectionExampleScenario.node[45].veinsmobility  acceleration  ETV
vector 33807  IntersectionExampleScenario.node[45].veinsmobility  co2emission  ETV
vector 33810  IntersectionExampleScenario.node[46].veinsmobility  posx  ETV
vector 33811  IntersectionExampleScenario.node[46].veinsmobility  posy  ETV
vector 33812  IntersectionExampleScenario.node[46].veinsmobility  speed  ETV
vector 33813  IntersectionExampleScenario.node[46].veinsmobility  acceleration  ETV
vector 33814  IntersectionExampleScenario.node[46].veinsmobility  co2emission  ETV
vector 33817  IntersectionExampleScenario.node[47].veinsmobility  posx  ETV
vector 33818  IntersectionExampleScenario.node[47].veinsmobility  posy  ETV
vector 33819  IntersectionExampleScenario.node[47].veinsmobility  speed  ETV
vector 33820  IntersectionExampleScenario.node[47].veinsmobility  acceleration  ETV
vector 33821  IntersectionExampleScenario.node[47].veinsmobility  co2emission  ETV
33688	650326 5184 6046 11273 71 110.75 160 0.973 11.648172402475 505.10064051074 2737.0386320278
33687	655510 4715 6046 11273 71 110.75 160 -3.3652629852295 2.5 38.171613693237 278.48178794335
33686	660225 5075 6023 11273 70.75 110.75 161 5.6500000953674 15.64999961853 2184.6164040565 30982.742488426
33685	665300 5415 6000 11273 70.5 110.75 162 486.85000610352 733.3804473877 87099.291427612 47758416.227889
33684	670715 5416 6000 11273 70.5 110.75 162 486.85000610352 785.82187652588 92709.491874695 54802136.871982
vector 33824  IntersectionExampleScenario.node[48].veinsmobility  posx  ETV
vector 33825  IntersectionExampleScenario.node[48].veinsmobility  posy  ETV
vector 33826  IntersectionExampleScenario.node[48].veinsmobility  speed  ETV
vector 33827  IntersectionExampleScenario.node[48].veinsmobility  acceleration  ETV
vector 33828  IntersectionExampleScenario.node[48].veinsmobility  co2emission  ETV
33695	676532 4962 6275 11436 73.75 112 154 0.973 12.26218747632 523.57545090993 3144.7925962108
33694	681494 4762 6275 11436 73.75 112 154 -3.4394798278809 2.5 41.227170944214 302.80224814944
33693	686256 4867 6254 11436 73.5 112 155 5.6500000953674 16.5 2175.8512306213 32142.649363025
33692	691123 5233 6233 11436 73.25 112 156 238.94183349609 483.14999389648 67670.491485596 30222946.555156
33691	696356 5210 6233 11436 73.25 112 156 184.17810058594 483.14999389648 61924.894622803 26282376.759348
vector 33831  IntersectionExampleScenario.node[49].veinsmobility  posx  ETV
vector 33832  IntersectionExampleScenario.node[49].veinsmobility  posy  ETV
vector 33838  IntersectionExampleScenario.node[50].veinsmobility  posx  ETV
vector 33839  IntersectionExampleScenario.node[50].veinsmobility  posy  ETV
vector 33833  IntersectionExampleScenario.node[49].veinsmobility  speed  ETV
vector 33834  IntersectionExampleScenario.node[49].veinsmobility  acceleration  ETV
vector 33835  IntersectionExampleScenario.node[49].veinsmobility  co2emission  ETV
vector 33840  IntersectionExampleScenario.node[50].veinsmobility  speed  ETV
vector 33841  IntersectionExampleScenario.node[50].veinsmobility  acceleration  ETV
vector 33842  IntersectionExampleScenario.node[50].veinsmobility  co2emission  ETV
vector 33845  IntersectionExampleScenario.node[51].veinsmobility  posx  ETV
vector 33846  IntersectionExampleScenario.node[51].veinsmobility  posy  ETV
vector 33847  IntersectionExampleScenario.node[51].veinsmobility  speed  ETV
vector 33848  IntersectionExampleScenario.node[51].veinsmobility  acceleration  ETV
vector 33849  IntersectionExampleScenario.node[51].veinsmobility  co2emission  ETV
33632	702769 7980 3858 12266 49.25 118.25 277 0.97223939240464 11.648172402475 649.26976922157 3039.721480937
33631	710749 7123 3858 12266 49.25 118.25 277 -7.1630792617798 4 38.680875778198 475.21272998936
33630	717872 7509 3838 12266 49 118.25 278 0 15.64999961853 2217.0011982918 31576.668155059
33629	725381 9312 3817 12266 48.75 118.25 279 184.17810058594 734.53523254395 128034.77279663 62942255.196958
33628	734693 9346 3817 12266 48.75 118.25 279 486.85000610352 486.85000610352 135831.15170288 66129397.035595
vector 33852  IntersectionExampleScenario.node[52].veinsmobility  posx  ETV
vector 33853  IntersectionExampleScenario.node[52].veinsmobility  posy  ETV
vector 33854  IntersectionExampleScenario.node[52].veinsmobility  speed  ETV
33646	744271 7897 4066 12408 51.75 119.25 271 0.973 11.00486315618 614.58418249735 2673.2159807549
33645	752168 7153 4066 12408 51.75 119.25 271 -7.0682401657104 4 34.606801986694 446.93878898076
33644	759321 7526 4043 12408 51.5 119.25 272 0 14.75 2215.8858206272 29802.263069688
33643	766847 9138 4020 12408 51.25 119.25 273 235.27844238281 785.82187652588 139543.75309753 75727521.029067
33642	775985 9157 4020 12408 51.25 119.25 273 483.14999389648 483.14999389648 131899.94833374 63727459.232393
vector 33855  IntersectionExampleScenario.node[52].veinsmobility  acceleration  ETV
vector 33856  IntersectionExampleScenario.node[52].veinsmobility  co2emission  ETV
33653	785311 8076 4300 12445 54.25 119.5 262 0.973 11.648172402475 652.72324857616 3111.3791018559
33652	793387 8229 4300 12445 54.25 119.5 262 -4.3578872680664 2.5 41.396924972534 397.01184655644
33651	801616 8330 4275 12445 54 119.5 263 0 16.030103683472 2213.2175090797 31796.341821148
33650	809946 8806 4250 12445 53.75 119.5 264 184.17810058594 732.61784362793 119895.28620911 58465677.923655
33649	818752 8861 4250 12445 53.75 119.5 264 486.85000610352 486.85000610352 128528.40161133 62574053.10895
33667	827613 7574 4868 12624 59.75 120.75 245 0.973 11.200708441096 592.96189172638 2646.960769685
33666	835187 8030 4868 12624 59.75 120.75 245 -3.9176676273346 2.5 37.15309715271 311.24479112539
33665	843217 8167 4839 12624 59.5 120.75 246 0 15.145014762878 2215.5422256254 29166.448986026
33664	851384 8283 4810 12624 59.25 120.75 247 236.50805664062 785.82187652588 127822.15270233 70374973.842421
33663	859667 8312 4810 12624 59.25 120.75 247 483.14999389648 483.14999389648 119338.04849243 57658177.400737
vector 33859  IntersectionExampleScenario.node[53].veinsmobility  posx  ETV
vector 33860  IntersectionExampleScenario.node[53].veinsmobility  posy  ETV
vector 33861  IntersectionExampleScenario.node[53].veinsmobility  speed  ETV
vector 33862  IntersectionExampleScenario.node[53].veinsmobility  acceleration  ETV
vector 33863  IntersectionExampleScenario.node[53].veinsmobility  co2emission  ETV
33702	868380 6195 6384 13076 75 124 197 0.973 10.916047529558 533.27370789499 2548.0718417748
33701	874575 6141 6384 13076 75 124 197 -2.6996421813965 2.5 34.606801986694 310.40925359233
33700	880716 6420 6361 13076 74.75 124 198 2.8699417114258 14.625 2191.8343901634 27457.614030815
33699	887136 6731 6338 13076 74.5 124 199 486.65878295898 785.82187652588 112571.9879303 65538516.441182
33698	893867 6739 6338 13076 74.5 124 199 235.11920166016 483.14999389648 87342.182128906 39400031.494672
33681	900606 7399 5485 13111 65.25 124.25 237 0.973 11.990504229548 603.54030890647 2987.5410555955
33680	908005 7649 5485 13111 65.25 124.25 237 -3.6071379184723 2.5000019073486 39.869146347046 364.70291996079
33679	915654 7796 5456 13111 65 124.25 238 0 16.125 2210.156000806 29994.017479585
33678	923450 8022 5427 13111 64.75 124.25 239 184.17810058594 731.42570495605 106701.76080322 51693165.218463
33677	931472 8074 5427 13111 64.75 124.25 239 486.85000610352 486.85000610352 116357.15145874 56648479.897875
vector 33866  IntersectionExampleScenario.node[54].veinsmobility  posx  ETV
vector 33867  IntersectionExampleScenario.node[54].veinsmobility  posy  ETV
33723	939700 5597 6997 13251 81.5 125.25 176 0.973 11.450879080643 528.33548192541 2804.6730329121
33722	945297 5589 6997 13251 81.5 125.25 176 -2.6532249450684 2.5 36.98334312439 289.73213865464
33721	950886 5754 6970 13251 81.25 125.25 177 5.6500000953674 15.375 2203.586625576 28877.597900117
33720	956640 6059 6943 13251 81 125.25 178 483.14999389648 785.82187652588 101513.97015381 59708774.733157
33719	962699 6057 6943 13251 81 125.25 178 483.14999389648 732.0795135498 94514.771377563 51191294.461948
vector 33868  IntersectionExampleScenario.node[54].veinsmobility  speed  ETV
33660	968834 8322 4729 13288 58.5 125.5 269 0.973 11.200708441096 626.97891812896 2709.7215176158
33659	977156 9132 4729 13288 58.5 125.5 269 -3.7787129878998 2.5 37.14813041687 322.31269880661
33658	986288 9029 4702 13288 58.25 125.5 270 0 15.051648139954 2228.8840256277 27541.701899663
33657	995317 9099 4675 13288 58 125.5 271 179.81719970703 486.85244750977 113529.15731812 49672539.269898
33656	1004416 9115 4675 13288 58 125.5 271 235.35534667969 486.85000610352 122855.84951782 56899158.142571
vector 33869  IntersectionExampleScenario.node[54].veinsmobility  acceleration  ETV
vector 33870  IntersectionExampleScenario.node[54].veinsmobility  co2emission  ETV
vector 33873  IntersectionExampleScenario.node[55].veinsmobility  posx  ETV
vector 33874  IntersectionExampleScenario.node[55].veinsmobility  posy  ETV
vector 33880  IntersectionExampleScenario.node[56].veinsmobility  posx  ETV
vector 33881  IntersectionExampleScenario.node[56].veinsmobility  posy  ETV
vector 33887  IntersectionExampleScenario.node[57].veinsmobility  posx  ETV
vector 33888  IntersectionExampleScenario.node[57].veinsmobility  posy  ETV
vector 33875  IntersectionExampleScenario.node[55].veinsmobility  speed  ETV
vector 33882  IntersectionExampleScenario.node[56].veinsmobility  speed  ETV
vector 33876  IntersectionExampleScenario.node[55].veinsmobility  acceleration  ETV
vector 33877  IntersectionExampleScenario.node[55].veinsmobility  co2emission  ETV
vector 33883  IntersectionExampleScenario.node[56].veinsmobility  acceleration  ETV
vector 33884  IntersectionExampleScenario.node[56].veinsmobility  co2emission  ETV
vector 33889  IntersectionExampleScenario.node[57].veinsmobility  speed  ETV
vector 33890  IntersectionExampleScenario.node[57].veinsmobility  acceleration  ETV
vector 33891  IntersectionExampleScenario.node[57].veinsmobility  co2emission  ETV
33751	1014903 5057 7791 13618 87.75 127.5 160 0.973 11.200708441096 514.13107318536 2773.96598397
33750	1019960 5229 7791 13618 87.75 127.5 160 -3.0325679779053 2.5 41.566701889038 246.31096072033
33749	1025189 5219 7756 13618 87.5 127.5 161 5.6500000953674 16.074235916138 2185.3893818855 31168.034327142
33748	1030408 5555 7723 13618 87.25 127.5 162 486.85000610352 785.82187652588 92695.426551819 54766727.595672
33747	1035963 5548 7723 13618 87.25 127.5 162 236.89086914062 483.14999389648 70399.794464111 31490294.69575
33716	1041511 6076 6768 13660 79.25 127.75 195 0.973 11.648172402475 577.30158927711 3066.0167411847
33715	1047587 6120 6768 13660 79.25 127.75 195 -2.619140625 2.5000019073486 39.699392318726 352.95346840479
33714	1053707 6359 6743 13660 79 127.75 196 2.5535664558411 15.64999961853 2191.0505361557 28688.838894213
33713	1060066 6689 6718 13660 78.75 127.75 197 184.17810058594 483.14999389648 79457.172332764 33821580.421333
33712	1066755 6706 6718 13660 78.75 127.75 197 486.85000610352 734.42155456543 104020.71166992 55923763.238985
33730	1073461 6006 7140 13974 82.75 129.75 189 0.973 11.648172402475 550.0006504108 2900.3078432277
33729	1079467 6127 7140 13974 82.75 129.75 189 -3.6370124816895 2.5 39.020376205444 314.89150772665
33728	1085594 6166 7109 13974 82.5 129.75 190 4.29163646698 15.64999961853 2219.7048630714 29153.460912122
33727	1091760 6492 7078 13974 82.25 129.75 191 174.53436279297 483.14999389648 75958.916748047 32117563.646338
33726	1098252 6502 7078 13974 82.25 129.75 191 486.85000610352 732.2746887207 101040.63562012 54423797.153025
vector 33894  IntersectionExampleScenario.node[58].veinsmobility  posx  ETV
vector 33895  IntersectionExampleScenario.node[58].veinsmobility  posy  ETV
vector 33896  IntersectionExampleScenario.node[58].veinsmobility  speed  ETV
vector 33897  IntersectionExampleScenario.node[58].veinsmobility  acceleration  ETV
vector 33898  IntersectionExampleScenario.node[58].veinsmobility  co2emission  ETV
vector 33901  IntersectionExampleScenario.node[59].veinsmobility  posx  ETV
vector 33902  IntersectionExampleScenario.node[59].veinsmobility  posy  ETV
vector 33908  IntersectionExampleScenario.node[60].veinsmobility  posx  ETV
vector 33909  IntersectionExampleScenario.node[60].veinsmobility  posy  ETV
vector 33903  IntersectionExampleScenario.node[59].veinsmobility  speed  ETV
vector 33910  IntersectionExampleScenario.node[60].veinsmobility  speed  ETV
vector 33904  IntersectionExampleScenario.node[59].veinsmobility  acceleration  ETV
vector 33905  IntersectionExampleScenario.node[59].veinsmobility  co2emission  ETV
vector 33911  IntersectionExampleScenario.node[60].veinsmobility  acceleration  ETV
vector 33912  IntersectionExampleScenario.node[60].veinsmobility  co2emission  ETV
33786	1105957 5171 9167 14852 97.25 136.25 157 0.973 12.101461052122 524.62844655398 3271.4625996723
33785	1111128 5058 9167 14852 97.25 136.25 157 -3.592845916748 2.5000038146973 40.038900375366 317.2943150012
33784	1116186 5180 9128 14852 97 136.25 158 5.6500000953674 16.278343200684 2190.4336090088 31832.909185063
33783	1121366 5504 9089 14852 96.75 136.25 159 184.17810058594 483.14999389648 63207.045959473 26846396.138144
33782	1126870 5526 9089 14852 96.75 136.25 159 486.85000610352 734.71266174316 85482.937133789 46877470.09925
vector 33915  IntersectionExampleScenario.node[61].veinsmobility  posx  ETV
vector 33916  IntersectionExampleScenario.node[61].veinsmobility  posy  ETV
vector 33922  IntersectionExampleScenario.node[62].veinsmobility  posx  ETV
vector 33923  IntersectionExampleScenario.node[62].veinsmobility  posy  ETV
vector 33917  IntersectionExampleScenario.node[61].veinsmobility  speed  ETV
33800	1132782 5252 9497 15064 99.25 138 156 0.96124288452596 12.099024792222 519.82779918741 3086.1924932168
33799	1138034 5088 9497 15064 99.25 138 156 -3.413610458374 2.5 40.378400802612 301.34565838244
33798	1143122 5144 9454 15064 99 138 157 5.6500000953674 16.27499961853 2182.8798804283 31891.15154573
33797	1148266 5496 9411 15064 98.75 138 158 486.85000610352 785.82187652588 90455.121833801 53501572.190675
33796	1153762 5503 9411 15064 98.75 138 158 237.10168457031 483.14999389648 68408.682556152 30514962.201246
vector 33918  IntersectionExampleScenario.node[61].veinsmobility  acceleration  ETV
vector 33919  IntersectionExampleScenario.node[61].veinsmobility  co2emission  ETV
vector 33924  IntersectionExampleScenario.node[62].veinsmobility  speed  ETV
vector 33925  IntersectionExampleScenario.node[62].veinsmobility  acceleration  ETV
vector 33926  IntersectionExampleScenario.node[62].veinsmobility  co2emission  ETV
vector 33929  IntersectionExampleScenario.node[63].veinsmobility  posx  ETV
vector 33930  IntersectionExampleScenario.node[63].veinsmobility  posy  ETV
vector 33931  IntersectionExampleScenario.node[63].veinsmobility  speed  ETV
vector 33932  IntersectionExampleScenario.node[63].veinsmobility  acceleration  ETV
vector 33933  IntersectionExampleScenario.node[63].veinsmobility  co2emission  ETV
vector 33936  IntersectionExampleScenario.node[64].veinsmobility  posx  ETV
vector 33937  IntersectionExampleScenario.node[64].veinsmobility  posy  ETV
vector 33938  IntersectionExampleScenario.node[64].veinsmobility  speed  ETV
vector 33939  IntersectionExampleScenario.node[64].veinsmobility  acceleration  ETV
vector 33940  IntersectionExampleScenario.node[64].veinsmobility  co2emission  ETV
33744	1160483 7460 7237 15881 83.5 144.5 245 0.973 11.36141391502 615.8546118489 2958.0994712853
33743	1167943 7039 7237 15881 83.5 144.5 245 -9.1878433227539 4 37.492597579956 512.34803784731
33742	1174982 7061 7204 15881 83.25 144.5 246 0 15.273164749146 2180.1597766876 30332.652704499
33741	1182043 8435 7171 15881 83 144.5 247 486.85000610352 734.21499633789 128616.26292419 68064724.708904
33740	1190478 8488 7171 15881 83 144.5 247 486.63604736328 785.82187652588 135199.29584503 76061273.162132
33709	1198966 8168 6580 15912 77.25 144.75 271 0.973 11.200708441096 631.22512851613 2794.0773216003
33708	1207134 7367 6580 15912 77.25 144.75 271 -45.542560577393 4 35.964826583862 2367.8547149857
33707	1214501 7624 6557 15912 77 144.75 272 0 15.02499961853 2243.9402685165 31375.083322032
33706	1222125 9361 6534 15912 76.75 144.75 273 483.14999389648 483.14999389648 131899.94833374 63727459.232393
33705	1231486 9329 6534 15912 76.75 144.75 273 174.53436279297 732.29058837891 124310.917099 61114214.169794
33765	1240815 6698 8390 15974 92 145.25 214 0.973 12.099024792222 583.57331674525 3159.1926198242
33764	1247513 7043 8390 15974 92 145.25 214 -3.695317029953 2.5000009536743 40.038900375366 353.21462853211
33763	1254556 7214 8353 15974 91.75 145.25 215 0 16.27499961853 2207.0162823405 29957.426291837
33762	1261770 7480 8316 15974 91.5 145.25 216 236.52716064453 486.85000610352 96951.549499512 44573237.726432
33761	1269250 7461 8316 15974 91.5 145.25 216 482.96786499023 785.82187652588 120213.15406036 68804225.850935
33737	1276711 8079 7140 16036 82.75 145.75 253 0.973 12.129681513204 677.54303812616 3305.1879946363
33736	1284790 8377 7140 16036 82.75 145.75 253 -4.5 2.5000038146973 42.66921043396 462.17525434653
33735	1293167 8347 7109 16036 82.5 145.75 254 0 16.317302703857 2208.79277144 31712.180010456
33734	1301514 8776 7078 16036 82.25 145.75 255 483.14999389648 483.14999389648 123203.2484436 59525648.733554
33733	1310290 8670 7078 16036 82.25 145.75 255 184.17810058594 731.32052612305 115914.41038513 56746955.021768
vector 33943  IntersectionExampleScenario.node[65].veinsmobility  posx  ETV
vector 33944  IntersectionExampleScenario.node[65].veinsmobility  posy  ETV
vector 33945  IntersectionExampleScenario.node[65].veinsmobility  speed  ETV
vector 33946  IntersectionExampleScenario.node[65].veinsmobility  acceleration  ETV
vector 33947  IntersectionExampleScenario.node[65].veinsmobility  co2emission  ETV
vector 33950  IntersectionExampleScenario.node[66].veinsmobility  posx  ETV
vector 33951  IntersectionExampleScenario.node[66].veinsmobility  posy  ETV
vector 33952  IntersectionExampleScenario.node[66].veinsmobility  speed  ETV
vector 33953  IntersectionExampleScenario.node[66].veinsmobility  acceleration  ETV
vector 33954  IntersectionExampleScenario.node[66].veinsmobility  co2emission  ETV
33758	1319762 7700 7826 16388 88 148.5 243 0.973 11.648172402475 609.6711503477 2986.0966286124
33757	1327462 7747 7826 16388 88 148.5 243 -3.9470028877258 2.5 38.850629806519 343.79684083951
33756	1335209 8159 7791 16388 87.75 148.5 244 0 15.64999961853 2211.2216050848 28903.473426737
33755	1343368 8458 7756 16388 87.5 148.5 245 483.14999389648 733.89959716797 126766.48323059 66704775.315884
33754	1351826 8436 7756 16388 87.5 148.5 245 184.17810058594 486.85000610352 101903.4755249 44328946.412471
33772	1360262 6939 8796 16388 94.75 148.5 216 0.973 11.200708441096 566.84781070256 2691.2493347037
33771	1367201 7050 8796 16388 94.75 148.5 216 -4.5 2.5 36.643835067749 384.81535852907
33770	1374251 7367 8759 16388 94.5 148.5 217 0.40908479690552 15.02499961853 2276.8703731596 29389.453701637
33769	1381618 7576 8722 16388 94.25 148.5 218 486.85000610352 486.85000610352 106133.30133057 51670998.400572
33768	1389194 7541 8722 16388 94.25 148.5 218 235.41088867188 800.04531860352 115041.73122406 65313284.122226
33793	1396735 6643 9288 16654 98 150.75 212 0.973 11.54047740176 553.36622679372 2753.7465645814
33792	1403378 7033 9288 16654 98 150.75 212 -3.952817440033 2.5 36.98334312439 315.05759057775
33791	1410411 7193 9247 16654 97.75 150.75 213 0 15.5 2213.7487281859 28611.808009302
33790	1417604 7462 9206 16654 97.5 150.75 214 483.14999389648 483.14999389648 103394.09869385 49954858.152865
33789	1425066 7421 9206 16654 97.5 150.75 214 184.17810058594 732.47619628906 95431.088546753 46773656.378021
33779	1432487 7018 9128 16654 97 150.75 216 0.973 11.450879080643 589.98682591601 2897.6253175502
33778	1439505 7082 9128 16654 97 150.75 216 -4.5 2.5 37.32285118103 420.85401253329
33777	1446587 7266 9089 16654 96.75 150.75 217 2.2295074462891 15.375 2298.2381339073 29579.426316414
33776	1453853 7575 9052 16654 96.5 150.75 218 237.84808349609 486.85000610352 97663.225189209 44829969.660573
33775	1461428 7576 9052 16654 96.5 150.75 218 482.93991088867 809.81954193115 124689.79804993 73575487.660957
vector 33957  IntersectionExampleScenario.node[67].veinsmobility  posx  ETV
vector 33958  IntersectionExampleScenario.node[67].veinsmobility  posy  ETV
33814	1469158 5812 10726 16757 106.75 151.75 181 0.973 11.648172402475 541.78524895244 2859.7461714451
33813	1474970 5883 10726 16757 106.75 151.75 181 -2.3973445892334 2.5000019073486 39.869146347046 284.47595790871
33812	1480853 6144 10689 16757 106.5 151.75 182 3.4399008750916 15.657593727112 2217.7430274487 29586.373631958
33811	1486997 6407 10651 16757 106.25 151.75 183 486.85000610352 486.85000610352 89093.551116943 43375195.905068
33810	1493404 6392 10651 16757 106.25 151.75 183 236.60986328125 785.82187652588 96287.880439758 54787484.178201
vector 33959  IntersectionExampleScenario.node[67].veinsmobility  speed  ETV
vector 33960  IntersectionExampleScenario.node[67].veinsmobility  acceleration  ETV
vector 33961  IntersectionExampleScenario.node[67].veinsmobility  co2emission  ETV
33807	1500043 6783 9931 16973 101.75 153.75 209 0.973 11.36141391502 575.25622334824 2885.3457930163
33806	1506826 6885 9931 16973 101.75 153.75 209 -4.5 2.5000019073486 37.492597579956 382.91968837761
33805	1513711 7013 9886 16973 101.5 153.75 210 2.3810544013977 15.25 2210.2070198059 28157.458586391
33804	1520724 7367 9841 16973 101.25 153.75 211 238.38653564453 483.14999389648 93745.123077393 42664726.428257
33803	1528091 7358 9841 16973 101.25 153.75 211 176.21716308594 483.19515991211 84754.517059326 35976204.468503
33828	1535449 5560 11374 17054 111.5 154.5 173 0.973 11.648172402475 527.98590983835 3009.8303813387
33827	1541009 5575 11374 17054 111.5 154.5 173 -3.461742401123 2.5 38.511121749878 272.59781522894
33826	1546584 5854 11341 17054 111.25 154.5 174 5.6500000953674 15.64999961853 2219.7897558212 29693.254451636
33825	1552438 6124 11306 17054 111 154.5 175 483.14999389648 483.14999389648 84551.248931885 40850935.40538
33824	1558562 6092 11306 17054 111 154.5 175 184.17810058594 733.61799621582 77741.161636353 38725039.187334
33842	1564654 5590 11718 17270 114.25 156.5 170 0.973 11.648172402475 498.42113219295 2601.8684785482
33841	1570244 5488 11718 17270 114.25 156.5 170 -4.5 2.5 38.171613693237 218.37719677083
33840	1575732 5772 11685 17270 114 156.5 171 5.6500000953674 15.64999961853 2274.6939015388 31411.114904308
33839	1581504 6020 11652 17270 113.75 156.5 172 483.14999389648 483.14999389648 83101.798950195 40150633.655574
33838	1587524 5997 11652 17270 113.75 156.5 172 169.95465087891 733.34329223633 75833.112854004 37911962.088276
33856	1593521 5298 12445 17540 119.5 159 159 0.973 11.200708441096 455.53509629828 2301.9596538626
33855	1598819 5299 12445 17540 119.5 159 159 -2.4444313049316 2.5 37.32285118103 159.23956779781
33854	1604118 5385 12408 17540 119.25 159 160 5.6500000953674 15.436973571777 2215.0074691772 31251.388784491
33853	1609503 5633 12371 17540 119 159 161 483.14999389648 483.14999389648 77787.149017334 37582860.57295
33852	1615136 5601 12371 17540 119 159 161 184.17810058594 732.79205322266 72147.63420105 36517207.166172
vector 33964  IntersectionExampleScenario.node[68].veinsmobility  posx  ETV
vector 33965  IntersectionExampleScenario.node[68].veinsmobility  posy  ETV
vector 33966  IntersectionExampleScenario.node[68].veinsmobility  speed  ETV
vector 33967  IntersectionExampleScenario.node[68].veinsmobility  acceleration  ETV
vector 33968  IntersectionExampleScenario.node[68].veinsmobility  co2emission  ETV
vector 33971  IntersectionExampleScenario.node[69].veinsmobility  posx  ETV
vector 33972  IntersectionExampleScenario.node[69].veinsmobility  posy  ETV
vector 33973  IntersectionExampleScenario.node[69].veinsmobility  speed  ETV
vector 33974  IntersectionExampleScenario.node[69].veinsmobility  acceleration  ETV
vector 33975  IntersectionExampleScenario.node[69].veinsmobility  co2emission  ETV
vector 33978  IntersectionExampleScenario.node[70].veinsmobility  posx  ETV
vector 33979  IntersectionExampleScenario.node[70].veinsmobility  posy  ETV
33863	1621693 5514 12901 17957 122.75 162.75 161 0.973 11.200708441096 477.71079866717 2390.4098250949
33862	1627207 5259 12901 17957 122.75 162.75 161 -3.5047721862793 2.5 36.304327011108 218.39202082789
33861	1632466 5396 12866 17957 122.5 162.75 162 5.6500000953674 15.02499961853 2206.2339696884 30832.421730757
33860	1637862 5699 12831 17957 122.25 162.75 163 237.10913085938 486.85000610352 70688.185150146 31637378.429654
33859	1643561 5695 12831 17957 122.25 162.75 163 483.14999389648 785.82187652588 93178.84551239 55072249.516005
vector 33980  IntersectionExampleScenario.node[70].veinsmobility  speed  ETV
vector 33981  IntersectionExampleScenario.node[70].veinsmobility  acceleration  ETV
vector 33982  IntersectionExampleScenario.node[70].veinsmobility  co2emission  ETV
33870	1649503 5484 13325 18258 125.75 165.5 160 0.973 11.200708441096 454.9010996914 2202.5805870216
33869	1654987 5161 13325 18258 125.75 165.5 160 -3.2287063598633 2.5 35.455564498901 172.31428785497
33868	1660148 5418 13288 18258 125.5 165.5 161 5.6500000953674 15.02499961853 2220.3278274536 31114.865254548
33867	1665566 5671 13251 18258 125.25 165.5 162 483.14999389648 483.14999389648 78270.29901123 37816294.489552
33866	1671237 5636 13251 18258 125.25 165.5 162 184.17810058594 734.33807373047 72939.008041382 37148459.112389
33891	1676873 5333 13489 18258 126.75 165.5 156 0.973 11.200708441096 461.71656025836 2375.3586522472
33890	1682206 4910 13489 18258 126.75 165.5 156 -4.5 2.5 35.455564498901 207.14180610128
33889	1687116 5280 13446 18258 126.5 165.5 157 5.6500000953674 15.02499961853 2159.1307468414 30183.999414042
33888	1692396 5531 13403 18258 126.25 165.5 158 486.85000610352 486.85000610352 76922.300964355 37449622.693993
33887	1697927 5512 13403 18258 126.25 165.5 158 235.30798339844 770.41329193115 80891.624954224 45385450.823831
33877	1703439 5466 13446 18344 126.5 166.5 161 0.973 11.30884105402 533.55098762454 2752.2425499249
33876	1708905 5414 13446 18344 126.5 166.5 161 -4.5 2.5 44.510398864746 260.74148761138
33875	1714319 5398 13403 18344 126.25 166.5 162 4.7018775939941 15.882203102112 2243.2595911026 32456.684097873
33874	1719717 5702 13362 18344 126 166.5 163 236.01593017578 486.85000610352 71162.734405518 32021063.929486
33873	1725419 5688 13362 18344 126 166.5 163 483.13418579102 793.78281402588 94450.909744263 56748891.475332
vector 33985  IntersectionExampleScenario.node[71].veinsmobility  posx  ETV
vector 33986  IntersectionExampleScenario.node[71].veinsmobility  posy  ETV
vector 33992  IntersectionExampleScenario.node[72].veinsmobility  posx  ETV
vector 33993  IntersectionExampleScenario.node[72].veinsmobility  posy  ETV
vector 33987  IntersectionExampleScenario.node[71].veinsmobility  speed  ETV
vector 33988  IntersectionExampleScenario.node[71].veinsmobility  acceleration  ETV
vector 33989  IntersectionExampleScenario.node[71].veinsmobility  co2emission  ETV
vector 33994  IntersectionExampleScenario.node[72].veinsmobility  speed  ETV
vector 33995  IntersectionExampleScenario.node[72].veinsmobility  acceleration  ETV
vector 33996  IntersectionExampleScenario.node[72].veinsmobility  co2emission  ETV
33884	1731909 5656 13446 18438 126.5 167.5 165 0.973 11.496412105291 506.42204549145 2617.7745294404
33883	1737565 5203 13446 18438 126.5 167.5 165 -3.6197700500488 2.5 38.001859664917 239.91075426966
33882	1742768 5535 13403 18438 126.25 167.5 166 5.6500000953674 15.438547134399 2304.870721817 32930.274776236
33881	1748303 5835 13362 18438 126 167.5 167 483.14999389648 734.54762268066 89230.178527832 48671030.745165
33880	1754138 5824 13362 18438 126 167.5 167 161.1796875 486.87637329102 64781.391204834 27312562.996551
vector 33999  IntersectionExampleScenario.node[73].veinsmobility  posx  ETV
vector 34000  IntersectionExampleScenario.node[73].veinsmobility  posy  ETV
vector 34001  IntersectionExampleScenario.node[73].veinsmobility  speed  ETV
vector 34002  IntersectionExampleScenario.node[73].veinsmobility  acceleration  ETV
vector 34003  IntersectionExampleScenario.node[73].veinsmobility  co2emission  ETV
vector 34006  IntersectionExampleScenario.node[74].veinsmobility  posx  ETV
vector 34007  IntersectionExampleScenario.node[74].veinsmobility  posy  ETV
vector 34008  IntersectionExampleScenario.node[74].veinsmobility  speed  ETV
vector 34009  IntersectionExampleScenario.node[74].veinsmobility  acceleration  ETV
vector 34010  IntersectionExampleScenario.node[74].veinsmobility  co2emission  ETV
vector 34013  IntersectionExampleScenario.node[75].veinsmobility  posx  ETV
vector 34014  IntersectionExampleScenario.node[75].veinsmobility  posy  ETV
vector 34015  IntersectionExampleScenario.node[75].veinsmobility  speed  ETV
vector 34016  IntersectionExampleScenario.node[75].veinsmobility  acceleration  ETV
vector 34017  IntersectionExampleScenario.node[75].veinsmobility  co2emission  ETV
33919	1761165 5258 15097 19152 138.25 177 156 0.973 12.099024792222 517.37835945647 3003.4060516599
33918	1766423 4977 15097 19152 138.25 177 156 -3.4799041748047 2.5 40.038900375366 302.93202169991
33917	1771400 5164 15064 19152 138 177 157 5.6500000953674 16.27499961853 2177.5315408707 31700.57761763
33916	1776564 5519 15033 19152 137.75 177 158 238.400390625 483.14999389648 68454.019989014 30545096.875753
33915	1782083 5504 15033 19152 137.75 177 158 184.17810058594 483.14999389648 62768.88684082 26651754.229255
33926	1787587 5445 15130 19228 138.5 178 159 0.973 11.200708441096 454.35911991347 2192.1748794677
33925	1793032 4949 15130 19228 138.5 178 159 -2.95166015625 2.5 35.795072555542 167.30536973474
33924	1797981 5384 15097 19228 138.25 178 160 5.6500000953674 15.02499961853 2213.0065221786 31118.933839836
33923	1803365 5633 15064 19228 138 178 161 486.85000610352 486.85000610352 78382.850982666 38160691.479322
33922	1808998 5619 15064 19228 138 178 161 237.48425292969 785.82187652588 83850.817939758 47922565.566958
vector 34020  IntersectionExampleScenario.node[76].veinsmobility  posx  ETV
vector 34021  IntersectionExampleScenario.node[76].veinsmobility  posy  ETV
vector 34027  IntersectionExampleScenario.node[77].veinsmobility  posx  ETV
vector 34028  IntersectionExampleScenario.node[77].veinsmobility  posy  ETV
vector 34022  IntersectionExampleScenario.node[76].veinsmobility  speed  ETV
vector 34029  IntersectionExampleScenario.node[77].veinsmobility  speed  ETV
vector 34023  IntersectionExampleScenario.node[76].veinsmobility  acceleration  ETV
vector 34024  IntersectionExampleScenario.node[76].veinsmobility  co2emission  ETV
vector 34030  IntersectionExampleScenario.node[77].veinsmobility  acceleration  ETV
vector 34031  IntersectionExampleScenario.node[77].veinsmobility  co2emission  ETV
33821	1815419 8453 11174 19397 110 180 281 0.973 11.90022389248 660.58503481278 3175.1581609734
33820	1823872 7719 11174 19397 110 180 281 -8.013355255127 4 39.529638290405 494.85818162182
33819	1831591 7966 11141 19397 109.75 180 282 0 16 2214.6716985703 31920.742883582
33818	1839557 9890 11108 19397 109.5 180 283 235.99810791016 785.82187652588 144658.11460114 78082333.581923
33817	1849447 9904 11108 19397 109.5 180 283 483.14999389648 483.14999389648 136731.44827271 66061798.398415
vector 34034  IntersectionExampleScenario.node[78].veinsmobility  posx  ETV
vector 34035  IntersectionExampleScenario.node[78].veinsmobility  posy  ETV
vector 34036  IntersectionExampleScenario.node[78].veinsmobility  speed  ETV
vector 34037  IntersectionExampleScenario.node[78].veinsmobility  acceleration  ETV
vector 34038  IntersectionExampleScenario.node[78].veinsmobility  co2emission  ETV
33849	1859752 8015 11986 19495 116.25 181 260 0.973 11.200708441096 608.40612800754 2717.823646421
33848	1867767 7270 11986 19495 116.25 181 260 -6.8669729232788 4 35.625318527222 447.70992833426
33847	1875037 7635 11951 19495 116 181 261 0 15.02499961853 2205.8105335236 30004.867805616
33846	1882672 9149 11916 19495 115.75 181 262 184.17810058594 486.85000610352 111500.97906494 49593459.090204
33845	1891821 9167 11916 19495 115.75 181 262 235.62408447266 486.85000610352 118693.47485352 54956751.189417
33912	1900988 6022 14721 19545 135.25 181.5 186 0.973 11.648172402475 543.36110351922 2884.4461053642
33911	1907010 6078 14721 19545 135.25 181.5 186 -2.0975685119629 2.5 38.511121749878 300.36632976575
33910	1913088 6355 14688 19545 135 181.5 187 2.2295882701874 15.64999961853 2223.6451826096 30013.818709605
33909	1919443 6548 14655 19545 134.75 181.5 188 184.17810058594 734.96241760254 84341.482803345 42017587.462525
33908	1925991 6580 14655 19545 134.75 181.5 188 486.85000610352 486.85000610352 91527.801147461 44560310.547283
vector 34041  IntersectionExampleScenario.node[79].veinsmobility  posx  ETV
vector 34042  IntersectionExampleScenario.node[79].veinsmobility  posy  ETV
vector 34048  IntersectionExampleScenario.node[80].veinsmobility  posx  ETV
vector 34049  IntersectionExampleScenario.node[80].veinsmobility  posy  ETV
vector 34043  IntersectionExampleScenario.node[79].veinsmobility  speed  ETV
vector 34044  IntersectionExampleScenario.node[79].veinsmobility  acceleration  ETV
vector 34045  IntersectionExampleScenario.node[79].veinsmobility  co2emission  ETV
vector 34050  IntersectionExampleScenario.node[80].veinsmobility  speed  ETV
33835	1933204 8837 11685 19651 114 182.5 275 0.973 11.200708441096 633.68785005136 2692.858332017
33834	1942041 8920 11685 19651 114 182.5 275 -4.5 2.5 36.98334312439 379.54486900184
33833	1950961 8936 11652 19651 113.75 182.5 276 0 15.02499961853 2205.5975950975 29451.370478004
33832	1959897 9666 11621 19651 113.5 182.5 277 486.81115722656 792.02188110352 151638.30586243 85182901.668681
33831	1969563 9685 11621 19651 113.5 182.5 277 237.32934570312 483.14999389648 125491.5687561 57963360.127027
vector 34055  IntersectionExampleScenario.node[81].veinsmobility  posx  ETV
vector 34056  IntersectionExampleScenario.node[81].veinsmobility  posy  ETV
vector 34051  IntersectionExampleScenario.node[80].veinsmobility  acceleration  ETV
vector 34052  IntersectionExampleScenario.node[80].veinsmobility  co2emission  ETV
vector 34057  IntersectionExampleScenario.node[81].veinsmobility  speed  ETV
33898	1979649 6415 14395 19711 132.75 183 202 0.973 12.099024792222 580.41705854885 3192.4336608402
33897	1986064 6647 14395 19711 132.75 183 202 -3.9375 2.5000019073486 40.887662887573 370.94099241447
33896	1992711 6874 14362 19711 132.5 183 203 0 16.27499961853 2222.6963369511 30514.016175771
33895	1999585 7118 14328 19711 132.25 183 204 235.55834960938 785.82187652588 106591.44483185 59758849.71264
33894	2006703 7140 14328 19711 132.25 183 204 483.14999389648 483.14999389648 98562.598754883 47620518.986843
vector 34058  IntersectionExampleScenario.node[81].veinsmobility  acceleration  ETV
vector 34059  IntersectionExampleScenario.node[81].veinsmobility  co2emission  ETV
33940	2014012 5607 15597 19897 142.25 184.5 170 0.97223939240464 11.648172402475 553.00839061092 3223.4331186918
33939	2019619 5291 15597 19897 142.25 184.5 170 -3.46435546875 2.5 38.680875778198 327.99688544086
33938	2024910 5711 15564 19897 142 184.5 171 5.6500000953674 15.64999961853 2202.2712225914 29746.931632267
33937	2030621 5992 15531 19897 141.75 184.5 172 184.17810058594 487.04849243164 68531.248474121 29082848.346284
33936	2036613 6004 15531 19897 141.75 184.5 172 237.32934570312 486.85000610352 75407.060394287 34040768.869571
vector 34062  IntersectionExampleScenario.node[82].veinsmobility  posx  ETV
vector 34063  IntersectionExampleScenario.node[82].veinsmobility  posy  ETV
vector 34064  IntersectionExampleScenario.node[82].veinsmobility  speed  ETV
vector 34065  IntersectionExampleScenario.node[82].veinsmobility  acceleration  ETV
vector 34066  IntersectionExampleScenario.node[82].veinsmobility  co2emission  ETV
33947	2043018 5353 16159 20185 146.75 186.75 161 0.973 11.54047740176 491.50802945673 2752.6326571683
33946	2048371 5257 16159 20185 146.75 186.75 161 -4.5 2.5 36.98334312439 236.41663756001
33945	2053628 5428 16128 20185 146.5 186.75 162 5.6500000953674 15.5 2215.9557752609 30909.110085862
33944	2059056 5664 16097 20185 146.25 186.75 163 184.17810058594 732.92230224609 73000.443710327 36902821.432644
33943	2064720 5707 16097 20185 146.25 186.75 163 486.85000610352 486.85000610352 79356.550994873 38634737.336208
33905	2070427 6845 14721 20247 135.25 187.25 209 0.973 11.450879080643 576.48611023383 2890.5517579053
33904	2077272 6885 14721 20247 135.25 187.25 209 -4.5 2.5 36.474081039429 430.01392512128
33903	2084157 7054 14688 20247 135 187.25 210 1.6180810928345 15.375 2271.6644915342 29208.049755449
33902	2091211 7370 14655 20247 134.75 187.25 211 483.14999389648 801.41563415527 120072.94907379 70454171.682662
33901	2098581 7378 14655 20247 134.75 187.25 211 483.14999389648 733.69554138184 110633.99879456 59103303.814825
vector 34069  IntersectionExampleScenario.node[83].veinsmobility  posx  ETV
vector 34070  IntersectionExampleScenario.node[83].veinsmobility  posy  ETV
vector 34071  IntersectionExampleScenario.node[83].veinsmobility  speed  ETV
vector 34076  IntersectionExampleScenario.node[84].veinsmobility  posx  ETV
vector 34077  IntersectionExampleScenario.node[84].veinsmobility  posy  ETV
vector 34083  IntersectionExampleScenario.node[85].veinsmobility  posx  ETV
vector 34084  IntersectionExampleScenario.node[85].veinsmobility  posy  ETV
vector 34090  IntersectionExampleScenario.node[86].veinsmobility  posx  ETV
vector 34091  IntersectionExampleScenario.node[86].veinsmobility  posy  ETV
vector 34097  IntersectionExampleScenario.node[87].veinsmobility  posx  ETV
vector 34098  IntersectionExampleScenario.node[87].veinsmobility  posy  ETV
vector 34072  IntersectionExampleScenario.node[83].veinsmobility  acceleration  ETV
vector 34073  IntersectionExampleScenario.node[83].veinsmobility  co2emission  ETV
vector 34104  IntersectionExampleScenario.node[88].veinsmobility  posx  ETV
vector 34105  IntersectionExampleScenario.node[88].veinsmobility  posy  ETV
vector 34078  IntersectionExampleScenario.node[84].veinsmobility  speed  ETV
vector 34085  IntersectionExampleScenario.node[85].veinsmobility  speed  ETV
vector 34092  IntersectionExampleScenario.node[86].veinsmobility  speed  ETV
vector 34099  IntersectionExampleScenario.node[87].veinsmobility  speed  ETV
vector 34079  IntersectionExampleScenario.node[84].veinsmobility  acceleration  ETV
vector 34080  IntersectionExampleScenario.node[84].veinsmobility  co2emission  ETV
vector 34086  IntersectionExampleScenario.node[85].veinsmobility  acceleration  ETV
vector 34087  IntersectionExampleScenario.node[85].veinsmobility  co2emission  ETV
vector 34093  IntersectionExampleScenario.node[86].veinsmobility  acceleration  ETV
vector 34094  IntersectionExampleScenario.node[86].veinsmobility  co2emission  ETV
vector 34100  IntersectionExampleScenario.node[87].veinsmobility  acceleration  ETV
vector 34101  IntersectionExampleScenario.node[87].veinsmobility  co2emission  ETV
vector 34106  IntersectionExampleScenario.node[88].veinsmobility  speed  ETV
vector 34107  IntersectionExampleScenario.node[88].veinsmobility  acceleration  ETV
vector 34108  IntersectionExampleScenario.node[88].veinsmobility  co2emission  ETV
33933	2108365 6189 15500 20600 141.5 189.5 193 0.973 11.200708441096 518.69259455365 2628.3955724515
33932	2114554 6238 15500 20600 141.5 189.5 193 -4.0079965591431 2.5 35.455564498901 294.20969862754
33931	2120792 6570 15469 20600 141.25 189.5 194 1.8255811929703 15.02499961853 2219.0106539726 28525.865910706
33930	2127362 6802 15438 20600 141 189.5 195 236.36871337891 785.82187652588 101989.93726349 57659322.214083
33929	2134164 6824 15438 20600 141 189.5 195 483.14999389648 483.14999389648 94214.248809814 45519613.737424
33961	2140988 5184 16811 20926 152.25 191.5 158 0.973 12.099024792222 571.56473627008 3651.1347010715
33960	2146172 5007 16811 20926 152.25 191.5 158 -3.4660339355469 2.5 41.566686630249 333.94916403099
33959	2151179 5262 16784 20926 152 191.5 159 5.6500000953674 16.27499961853 2210.3202095032 31860.1129053
33958	2156441 5593 16757 20926 151.75 191.5 160 483.11944580078 785.82187652588 91628.160957336 54211848.797603
33957	2162034 5597 16757 20926 151.75 191.5 160 483.14999389648 733.52053833008 85348.791671753 46461699.019144
vector 34111  IntersectionExampleScenario.node[89].veinsmobility  posx  ETV
vector 34112  IntersectionExampleScenario.node[89].veinsmobility  posy  ETV
vector 34113  IntersectionExampleScenario.node[89].veinsmobility  speed  ETV
vector 34114  IntersectionExampleScenario.node[89].veinsmobility  acceleration  ETV
vector 34115  IntersectionExampleScenario.node[89].veinsmobility  co2emission  ETV
vector 34118  IntersectionExampleScenario.node[90].veinsmobility  posx  ETV
vector 34119  IntersectionExampleScenario.node[90].veinsmobility  posy  ETV
vector 34120  IntersectionExampleScenario.node[90].veinsmobility  speed  ETV
vector 34121  IntersectionExampleScenario.node[90].veinsmobility  acceleration  ETV
vector 34122  IntersectionExampleScenario.node[90].veinsmobility  co2emission  ETV
vector 34125  IntersectionExampleScenario.node[91].veinsmobility  posx  ETV
vector 34126  IntersectionExampleScenario.node[91].veinsmobility  posy  ETV
vector 34127  IntersectionExampleScenario.node[91].veinsmobility  speed  ETV
vector 34128  IntersectionExampleScenario.node[91].veinsmobility  acceleration  ETV
vector 34129  IntersectionExampleScenario.node[91].veinsmobility  co2emission  ETV
vector 34132  IntersectionExampleScenario.node[92].veinsmobility  posx  ETV
vector 34133  IntersectionExampleScenario.node[92].veinsmobility  posy  ETV
vector 34134  IntersectionExampleScenario.node[92].veinsmobility  speed  ETV
vector 34135  IntersectionExampleScenario.node[92].veinsmobility  acceleration  ETV
vector 34136  IntersectionExampleScenario.node[92].veinsmobility  co2emission  ETV
vector 34139  IntersectionExampleScenario.node[93].veinsmobility  posx  ETV
vector 34140  IntersectionExampleScenario.node[93].veinsmobility  posy  ETV
vector 34141  IntersectionExampleScenario.node[93].veinsmobility  speed  ETV
vector 34142  IntersectionExampleScenario.node[93].veinsmobility  acceleration  ETV
vector 34143  IntersectionExampleScenario.node[93].veinsmobility  co2emission  ETV
vector 34146  IntersectionExampleScenario.node[94].veinsmobility  posx  ETV
vector 34147  IntersectionExampleScenario.node[94].veinsmobility  posy  ETV
33982	2169790 5329 18015 22550 163.25 202.25 157 0.973 11.810082123732 512.93932836398 2877.3139614037
33981	2175119 4928 18015 22550 163.25 202.25 157 -3.3704605102539 2.5 39.699392318726 285.64294964468
33980	2180047 5207 17986 22550 163 202.25 158 5.6500000953674 15.875 2176.3486232758 31459.085007323
33979	2185254 5555 17957 22550 162.75 202.25 159 486.7971496582 785.82187652588 91065.169410706 53881364.292944
33978	2190809 5559 17957 22550 162.75 202.25 159 238.85522460938 483.14999389648 68924.2862854 30765730.409292
vector 34148  IntersectionExampleScenario.node[94].veinsmobility  speed  ETV
vector 34149  IntersectionExampleScenario.node[94].veinsmobility  acceleration  ETV
vector 34150  IntersectionExampleScenario.node[94].veinsmobility  co2emission  ETV
vector 34153  IntersectionExampleScenario.node[95].veinsmobility  posx  ETV
vector 34154  IntersectionExampleScenario.node[95].veinsmobility  posy  ETV
vector 34160  IntersectionExampleScenario.node[96].veinsmobility  posx  ETV
vector 34161  IntersectionExampleScenario.node[96].veinsmobility  posy  ETV
vector 34167  IntersectionExampleScenario.node[97].veinsmobility  posx  ETV
vector 34168  IntersectionExampleScenario.node[97].veinsmobility  posy  ETV
vector 34155  IntersectionExampleScenario.node[95].veinsmobility  speed  ETV
vector 34156  IntersectionExampleScenario.node[95].veinsmobility  acceleration  ETV
vector 34157  IntersectionExampleScenario.node[95].veinsmobility  co2emission  ETV
vector 34162  IntersectionExampleScenario.node[96].veinsmobility  speed  ETV
vector 34169  IntersectionExampleScenario.node[97].veinsmobility  speed  ETV
vector 34174  IntersectionExampleScenario.node[98].veinsmobility  posx  ETV
vector 34175  IntersectionExampleScenario.node[98].veinsmobility  posy  ETV
vector 34163  IntersectionExampleScenario.node[96].veinsmobility  acceleration  ETV
vector 34164  IntersectionExampleScenario.node[96].veinsmobility  co2emission  ETV
vector 34170  IntersectionExampleScenario.node[97].veinsmobility  acceleration  ETV
vector 34171  IntersectionExampleScenario.node[97].veinsmobility  co2emission  ETV
vector 34176  IntersectionExampleScenario.node[98].veinsmobility  speed  ETV
vector 34177  IntersectionExampleScenario.node[98].veinsmobility  acceleration  ETV
vector 34178  IntersectionExampleScenario.node[98].veinsmobility  co2emission  ETV
vector 34181  IntersectionExampleScenario.node[99].veinsmobility  posx  ETV
vector 34182  IntersectionExampleScenario.node[99].veinsmobility  posy  ETV
33968	2198373 6171 17625 23342 159.75 206.5 188 0.973 11.450879080643 549.07836947008 2805.0133223342
33967	2204544 5751 17625 23342 159.75 206.5 188 -6.7711095809937 4 36.98334312439 456.08186531079
33966	2210295 6102 17596 23342 159.5 206.5 189 0 15.375 2209.3351569176 30725.483345122
33965	2216397 6651 17567 23342 159.25 206.5 190 483.14999389648 483.14999389648 91798.498840332 44352444.154413
33964	2223048 6622 17567 23342 159.25 206.5 190 184.17810058594 732.67367553711 85939.347702026 43081199.429331
33954	2229670 7395 16256 23342 147.5 206.5 237 0.973 11.450879080643 597.05303746452 2833.6653964928
33953	2237065 6717 16256 23342 147.5 206.5 237 -8.4870567321777 4 37.15309715271 478.32449572734
33952	2243782 7089 16223 23342 147.25 206.5 238 0 15.375 2198.746417284 30558.207844133
33951	2250871 8358 16190 23342 147 206.5 239 237.33026123047 486.85000610352 107830.7086792 49764943.22832
33950	2259229 8352 16190 23342 147 206.5 239 483.14999389648 785.82187652588 131017.58797455 73895343.395322
vector 34183  IntersectionExampleScenario.node[99].veinsmobility  speed  ETV
vector 34184  IntersectionExampleScenario.node[99].veinsmobility  acceleration  ETV
vector 34185  IntersectionExampleScenario.node[99].veinsmobility  co2emission  ETV
vector 34188  IntersectionExampleScenario.node[100].veinsmobility  posx  ETV
vector 34189  IntersectionExampleScenario.node[100].veinsmobility  posy  ETV
vector 34190  IntersectionExampleScenario.node[100].veinsmobility  speed  ETV
vector 34191  IntersectionExampleScenario.node[100].veinsmobility  acceleration  ETV
vector 34192  IntersectionExampleScenario.node[100].veinsmobility  co2emission  ETV
33975	2268234 6041 17903 23689 162.25 208.25 185 0.973 11.200708441096 520.8860535817 2607.1948857724
33974	2274275 6069 17903 23689 162.25 208.25 185 -2.0688285827637 2.5 35.795072555542 273.70071738882
33973	2280344 6326 17876 23689 162 208.25 186 2.9584519863129 15.02499961853 2223.2180051804 29177.500771237
33972	2286670 6545 17849 23689 161.75 208.25 187 486.85000610352 486.85000610352 91040.951141357 44323287.61884
33971	2293215 6514 17849 23689 161.75 208.25 187 234.94464111328 785.82187652588 97362.917518616 55009955.229131
33989	2299729 5707 18413 24046 167.25 210 172 0.973 11.200708441096 524.23373308024 2651.0672723737
33988	2305436 5530 18413 24046 167.25 210 172 -4.4560279846191 2.5 38.511121749878 289.70277935857
33987	2310966 5831 18388 24046 167 210 173 4.7610459327698 15.3118724823 2211.8825178146 30226.348340776
33986	2316797 6089 18365 24046 166.75 210 174 486.85000610352 486.85000610352 84711.901062012 41241989.549081
33985	2322886 6051 18365 24046 166.75 210 174 237.57360839844 785.82187652588 91296.293434143 52037031.38301
vector 34195  IntersectionExampleScenario.node[101].veinsmobility  posx  ETV
vector 34196  IntersectionExampleScenario.node[101].veinsmobility  posy  ETV
vector 34197  IntersectionExampleScenario.node[101].veinsmobility  speed  ETV
vector 34198  IntersectionExampleScenario.node[101].veinsmobility  acceleration  ETV
[...]
vector 39131  IntersectionExampleScenario.node[806].veinsmobility  posy  ETV
vector 39125  IntersectionExampleScenario.node[805].veinsmobility  speed  ETV
vector 39132  IntersectionExampleScenario.node[806].veinsmobility  speed  ETV
vector 39126  IntersectionExampleScenario.node[805].veinsmobility  acceleration  ETV
vector 39127  IntersectionExampleScenario.node[805].veinsmobility  co2emission  ETV
vector 39133  IntersectionExampleScenario.node[806].veinsmobility  acceleration  ETV
vector 39134  IntersectionExampleScenario.node[806].veinsmobility  co2emission  ETV
38994	28058088 5970 227769 234690 1740.25 1783 172 0.973 12.099024792222 576.8513727385 3350.9724196688
38993	28064058 5952 227769 234690 1740.25 1783 172 -3.6772308349609 2.5 42.415441513062 350.44695025661
38992	28070010 6112 227712 234690 1740 1783 173 5.6500000953674 16.298963546753 2208.1405715942 30216.073533919
38991	28076122 6429 227656 234690 1739.75 1783 174 237.25543212891 486.85000610352 76799.862731934 34848404.322877
38990	28082551 6425 227656 234690 1739.75 1783 174 483.14999389648 785.82187652588 99603.413887024 58762985.962601
39001	28088976 6194 227826 234862 1740.5 1784.25 176 0.97162690250905 12.27051805969 581.90453741222 3370.4094663823
39000	28095170 5931 227826 234862 1740.5 1784.25 176 -4.5 2.5 41.057416915894 379.89822098204
38999	28101101 6316 227769 234862 1740.25 1784.25 177 5.6500000953674 16.511470794678 2317.9661149979 32234.820086122
38998	28107417 6585 227712 234862 1740 1784.25 178 486.85000610352 486.85000610352 86659.301086426 42190081.262853
38997	28114002 6568 227712 234862 1740 1784.25 178 236.37738037109 810.23281097412 96141.565361023 56604376.368228
vector 39137  IntersectionExampleScenario.node[807].veinsmobility  posx  ETV
vector 39138  IntersectionExampleScenario.node[807].veinsmobility  posy  ETV
vector 39139  IntersectionExampleScenario.node[807].veinsmobility  speed  ETV
vector 39140  IntersectionExampleScenario.node[807].veinsmobility  acceleration  ETV
vector 39141  IntersectionExampleScenario.node[807].veinsmobility  co2emission  ETV
vector 39144  IntersectionExampleScenario.node[808].veinsmobility  posx  ETV
vector 39145  IntersectionExampleScenario.node[808].veinsmobility  posy  ETV
vector 39146  IntersectionExampleScenario.node[808].veinsmobility  speed  ETV
39008	28121211 5512 229396 235351 1748.5 1788 159 0.973 12.26218747632 559.67827093381 3748.7942104205
39007	28126723 5431 229396 235351 1748.5 1788 159 -3.5976657867432 2.5 41.396924972534 358.79484238902
39006	28132154 5580 229351 235351 1748.25 1788 160 5.6500000953674 16.5 2177.4118828773 31095.762036657
39005	28137734 5936 229308 235351 1748 1788 161 486.85000610352 731.44439697266 86089.230682373 46915760.273131
39004	28143670 5945 229308 235351 1748 1788 161 486.85000610352 785.82187652588 92606.544746399 54995317.826797
vector 39151  IntersectionExampleScenario.node[809].veinsmobility  posx  ETV
vector 39152  IntersectionExampleScenario.node[809].veinsmobility  posy  ETV
vector 39147  IntersectionExampleScenario.node[808].veinsmobility  acceleration  ETV
vector 39148  IntersectionExampleScenario.node[808].veinsmobility  co2emission  ETV
vector 39153  IntersectionExampleScenario.node[809].veinsmobility  speed  ETV
vector 39154  IntersectionExampleScenario.node[809].veinsmobility  acceleration  ETV
vector 39155  IntersectionExampleScenario.node[809].veinsmobility  co2emission  ETV
39022	28150192 5652 229667 235454 1750 1788.75 156 0.973 11.54047740176 464.63231158543 2336.4085283449
39021	28155844 5085 229667 235454 1750 1788.75 156 -2.906135559082 2.5 37.32285118103 179.22973075835
39020	28160929 5574 229622 235454 1749.75 1788.75 157 5.6500000953674 15.5 2216.590294838 31875.992361842
39019	28166503 5847 229576 235454 1749.5 1788.75 158 483.14999389648 483.14999389648 76337.699035645 36882558.823143
39018	28172350 5774 229576 235454 1749.5 1788.75 158 184.17810058594 733.22798156738 70908.541702271 36014724.094117
38924	28178124 9060 224318 236015 1723.25 1793 280 0.973 11.200708441096 638.43438320475 2876.5792101435
38923	28187184 8386 224318 236015 1723.25 1793 280 -7.0069637298584 4 35.625318527222 465.09910095458
38922	28195570 8642 224275 236015 1723 1793 281 0 15.02499961853 2216.945248127 30246.577075241
38921	28204212 10417 224232 236015 1722.75 1793 282 235.25030517578 785.82187652588 144031.27350616 77906932.482024
38920	28214629 10433 224232 236015 1722.75 1793 282 483.14999389648 483.14999389648 136248.29827881 65828364.481813
38966	28225062 8161 225971 236046 1732 1793.25 246 0.973 11.54047740176 622.6508242838 2841.5070668986
38965	28233223 7462 225971 236046 1732 1793.25 246 -4.5 2.5 38.511121749878 461.30882950427
38964	28240685 7849 225920 236046 1731.75 1793.25 247 0 15.5 2300.861164093 32421.212983263
38963	28248534 9148 225869 236046 1731.5 1793.25 248 162.90466308594 733.28010559082 110865.13975525 54238175.143308
38962	28257682 9176 225869 236046 1731.5 1793.25 248 486.85000610352 486.85000610352 120738.80151367 58781686.253862
38959	28266858 8315 225721 236046 1730.75 1793.25 251 0.973 10.916047529558 587.18888490763 2560.4615777215
38958	28275173 7589 225721 236046 1730.75 1793.25 251 -7.3034782409668 4 34.267293930054 445.58449310772
38957	28282762 7948 225670 236046 1730.5 1793.25 252 0 14.625 2179.986281395 28946.689525114
38956	28290710 9339 225619 236046 1730.25 1793.25 253 184.17810058594 483.36395263672 106791.03915405 47184283.099621
38955	28300049 9298 225619 236046 1730.25 1793.25 253 486.85000610352 734.07568359375 131973.26924133 69984530.253101
38938	28309347 8961 224633 236139 1725 1794 277 0.973 11.85627739224 684.50618998504 3170.8644686164
38937	28318308 8623 224633 236139 1725 1794 277 -4.5 2.5 41.156332015991 489.38086554357
38936	28326931 8754 224586 236139 1724.75 1794 278 0 15.939083099365 2283.3335030824 32474.018952112
38935	28335685 10296 224539 236139 1724.5 1794 279 239.13354492188 805.05782318115 145072.66506195 79998182.722871
38934	28345981 10322 224539 236139 1724.5 1794 279 483.14999389648 483.14999389648 134798.84829712 65128062.732006
vector 39158  IntersectionExampleScenario.node[810].veinsmobility  posx  ETV
vector 39159  IntersectionExampleScenario.node[810].veinsmobility  posy  ETV
vector 39165  IntersectionExampleScenario.node[811].veinsmobility  posx  ETV
vector 39166  IntersectionExampleScenario.node[811].veinsmobility  posy  ETV
vector 39160  IntersectionExampleScenario.node[810].veinsmobility  speed  ETV
vector 39161  IntersectionExampleScenario.node[810].veinsmobility  acceleration  ETV
vector 39162  IntersectionExampleScenario.node[810].veinsmobility  co2emission  ETV
vector 39167  IntersectionExampleScenario.node[811].veinsmobility  speed  ETV
vector 39168  IntersectionExampleScenario.node[811].veinsmobility  acceleration  ETV
vector 39169  IntersectionExampleScenario.node[811].veinsmobility  co2emission  ETV
38987	28357115 8240 226986 236401 1736.75 1796 238 0.973 11.648172402475 608.47302989137 2890.7447412802
38986	28365355 8416 226986 236401 1736.75 1796 238 -3.9814121723175 2.5 38.850629806519 363.83827573083
38985	28373771 8502 226929 236401 1736.5 1796 239 0 15.64999961853 2234.0455714148 30229.399448697
38984	28382273 8859 226872 236401 1736.25 1796 240 172.78106689453 483.14999389648 99073.029205322 43014662.873987
38983	28391132 8877 226872 236401 1736.25 1796 240 486.85000610352 734.00227355957 125037.09841919 66206990.806331
38952	28400009 9444 225570 236734 1730 1798.5 275 0.973 11.200708441096 619.02937749093 2624.4810146157
38951	28409453 10154 225570 236734 1730 1798.5 275 -3.9996163845062 2.5 35.625318527222 316.10232248454
38950	28419607 10123 225521 236734 1729.75 1798.5 276 0 15.02499961853 2238.3285486624 28350.760971189
38949	28429730 10230 225472 236734 1729.5 1798.5 277 483.14999389648 794.12702178955 152658.5377121 86330558.666023
38948	28439960 10229 225472 236734 1729.5 1798.5 277 483.14999389648 733.138671875 142665.01872253 74660758.41744
39015	28450189 7029 229441 236933 1748.75 1800 206 0.973 11.648172402475 561.26680285338 2760.5696681909
39014	28457218 7222 229441 236933 1748.75 1800 206 -3.1288967132568 2.5000004768372 38.001859664917 343.90037597403
39013	28464440 7616 229396 236933 1748.5 1800 207 0 15.64999961853 2195.8380900621 28464.371002847
39012	28472056 7688 229351 236933 1748.25 1800 208 483.14999389648 785.82187652588 116943.75479889 67608391.537867
39011	28479744 7686 229351 236933 1748.25 1800 208 483.14999389648 730.0922088623 108762.55929565 57900837.958267
39029	28487430 5523 230612 236933 1756 1800 177 0.973 11.648172402475 367.3683785498 1604.3182758175
39028	28492953 5139 230612 236933 1756 1800 177 -7.4922199249268 4 -1.1000003814697 384.66023982524
39027	28498092 5330 230575 236933 1755.75 1800 178 0 15.64999961853 1172.3506031036 16162.208889431
39026	28503422 6622 230538 236933 1755.5 1800 179 486.85000610352 486.85000610352 87146.151092529 42427104.191296
39025	28510044 6611 230538 236933 1755.5 1800 179 493.54061889648 785.82187652588 102047.31523895 59878311.39345
39036	28516655 5473 230726 236933 1756.75 1800 174 0.973 11.200708441096 360.30730590869 1487.5016348735
39035	28522128 4938 230726 236933 1756.75 1800 174 -7.457010269165 4 -1.1000003814697 372.36099570024
39034	28527066 5277 230688 236933 1756.5 1800 175 0 15.02499961853 1172.2131214142 15945.369308508
39033	28532343 6512 230649 236933 1756.25 1800 176 483.14999389648 483.14999389648 85034.398925781 41084369.321982
39032	28538855 6484 230649 236933 1756.25 1800 176 184.17810058594 476.45938110352 70032.365142822 29556494.29395
39043	28545339 5415 230844 236933 1757.5 1800 171 0.973 11.648172402475 364.67126795733 1598.0270212753
39042	28550754 4815 230844 236933 1757.5 1800 171 -4.5 2.5 -5.1000003814697 379.24230991719
39041	28555569 5283 230804 236933 1757.25 1800 172 0 15.64999961853 1222.5880160928 17178.333395642
39040	28560852 6399 230763 236933 1757 1800 173 486.85000610352 486.85000610352 84225.051055908 41004966.620638
39039	28567251 6387 230763 236933 1757 1800 173 501.90481567383 806.11563110352 101158.98858643 61004507.014741
39050	28573638 5397 230844 236933 1757.5 1800 171 0.973 11.175191112391 351.85156529664 1515.5077925111
39049	28579035 5034 230844 236933 1757.5 1800 171 -4.5 2.5 -13.724785804749 339.5028429385
39048	28584069 5328 230804 236933 1757.25 1800 172 0 15.559739112854 1222.4061450437 17072.327060928
39047	28589397 6399 230763 236933 1757 1800 173 483.14999389648 483.14999389648 83584.948944092 40384067.572176
39046	28595796 6378 230763 236933 1757 1800 173 161.1796875 466.12991333008 66264.096160889 27273697.438771
39057	28602174 5153 231770 236933 1763.75 1800 146 0.973 12.099024792222 532.99181236861 3541.40583792
39056	28607327 4957 231770 236933 1763.75 1800 146 -3.2331275939941 2.5 41.057416915894 285.52270260212
39055	28612284 5200 231733 236933 1763.5 1800 147 5.6500000953674 16.27499961853 2131.0600166321 31655.187360773
39054	28617484 5442 231696 236933 1763.25 1800 148 258.58551025391 785.82187652588 78940.039421082 45689042.650053
39053	28622926 5476 231696 236933 1763.25 1800 148 483.14999389648 483.14999389648 71506.19909668 34548219.657121
39064	28628402 5052 231770 236933 1763.75 1800 146 0.973 12.099024792222 480.81347068422 2870.8836828523
39063	28633454 5054 231770 236933 1763.75 1800 146 -3.2940635681152 2.5 40.038900375366 267.75634269981
39062	28638508 5130 231733 236933 1763.5 1800 147 5.6500000953674 16.27499961853 1991.4036188126 28422.03534063
39061	28643638 5457 231696 236933 1763.25 1800 148 184.17810058594 483.30990600586 57863.730621338 24250294.555047
39060	28649095 5468 231696 236933 1763.25 1800 148 486.85000610352 684.72116088867 77276.074478149 40846358.741492
39071	28654563 4404 232141 236933 1766.25 1800 136 0.973 11.200708441096 285.52349238584 1315.2288691183
39070	28658967 5076 232141 236933 1766.25 1800 136 -3.941339969635 2.5 -21.066351413727 182.85744503187
39069	28664043 5045 232104 236933 1766 1800 137 0 15.153557777405 1095.3684154935 13477.041160591
39068	28669088 5105 232066 236933 1765.75 1800 138 483.14999389648 483.14999389648 66674.699157715 32213880.4911
39067	28674193 5065 232066 236933 1765.75 1800 138 184.17810058594 458.19085693359 50765.666168213 19883279.568212
39078	28679258 4281 232260 236933 1767 1800 133 0.973 11.648172402475 289.77057171855 1424.6322112746
39077	28683539 4956 232260 236933 1767 1800 133 -3.9320499897003 2.5 -19.436205148697 193.48322165722
39076	28688495 4913 232219 236933 1766.75 1800 134 0 15.64999961853 1095.9210973624 13680.405894818
39075	28693408 4994 232178 236933 1766.5 1800 135 486.85000610352 486.85000610352 65724.750823975 31998095.339804
39074	28698402 4977 232178 236933 1766.5 1800 135 511.91384887695 785.82187652588 81419.88193512 50289746.251986
39085	28703379 4763 232260 236933 1767 1800 133 0.973 11.648172402475 436.32049275278 2513.7276992358
39084	28708142 4760 232260 236933 1767 1800 133 -3.3731498718262 2.5 39.020399093628 206.02547542172
39083	28712902 4725 232219 236933 1766.75 1800 134 5.6500000953674 15.854319572449 1913.7041635513 27976.828381362
39082	28717627 4961 232178 236933 1766.5 1800 135 172.9296875 646.20050048828 54150.966995239 24429787.545416
39081	28722588 4994 232178 236933 1766.5 1800 135 486.85000610352 486.85000610352 65724.750823975 31998095.339804
39092	28727582 4093 232542 236933 1768.75 1800 126 0.973 11.648172402475 300.29902304055 1480.8996452624
39091	28731675 4611 232542 236933 1768.75 1800 126 -4.5 2.5 -18.980096578598 283.60482471408
39090	28736286 4666 232501 236933 1768.5 1800 127 0 15.64999961853 1138.6835653782 14473.263383826
39089	28740952 4736 232460 236933 1768.25 1800 128 486.85000610352 486.85000610352 62316.80078125 30338934.840703
39088	28745688 4725 232460 236933 1768.25 1800 128 520.11810302734 805.05782318115 79799.509384155 50941782.196123
39099	28750413 4396 232625 236933 1769.25 1800 124 0.973 12.099024792222 448.72663476075 2860.3094524564
39098	28754809 4303 232625 236933 1769.25 1800 124 -3.3926048278809 2.5 40.38133430481 296.93629729953
39097	28759112 4294 232584 236933 1769 1800 125 5.6500000953674 16.27499961853 1678.7129983902 23944.942229616
39096	28763406 4648 232542 236933 1768.75 1800 126 486.85000610352 785.82187652588 74879.572151184 45920452.533476
39095	28768054 4653 232542 236933 1768.75 1800 126 363.11535644531 483.14999389648 58871.233581543 27630671.798988
39106	28772707 3362 233308 236933 1773.5 1800 107 0.973 11.648172402475 254.33554094435 1378.9122475553
39105	28776069 3837 233308 236933 1773.5 1800 107 -2.3195266723633 2.5 -15.613333702087 174.04403421973
39104	28779906 3974 233269 236933 1773.25 1800 108 1.7466666698456 15.64999961853 1052.0733071566 12555.474165774
39103	28783880 4031 233230 236933 1773 1800 109 483.14999389648 483.14999389648 52663.349334717 25444296.909637
39102	28787911 4007 233230 236933 1773 1800 109 184.17810058594 446.96948242188 37060.970733643 13433784.145212
39113	28791918 3713 233429 236933 1774.25 1800 104 0.973 11.990504229548 377.98605941614 2439.2139236633
39112	28795631 3491 233429 236933 1774.25 1800 104 -3.4645080566406 2.5 40.232419967651 207.38033827924
39111	28799122 3635 233388 236933 1774 1800 105 5.6500000953674 16.125 1479.0124311447 21483.564409619
39110	28802757 3895 233347 236933 1773.75 1800 106 421.39340209961 785.82187652588 64553.55620575 40651281.80441
39109	28806652 3921 233347 236933 1773.75 1800 106 483.14999389648 483.14999389648 51213.899353027 24743995.15983
39120	28810573 2877 233905 236933 1777.25 1800 92 0.973 11.200708441096 221.65208670214 1198.165572275
39119	28813450 3379 233905 236933 1777.25 1800 92 -2.4729423522949 2.5 -9.7005729675293 145.08427106408
39118	28816829 3416 233866 236933 1777 1800 93 3.2248568534851 15.02499961853 1016.7121627331 12333.60210056
39117	28820245 3477 233827 236933 1776.75 1800 94 486.85000610352 486.85000610352 45763.90057373 22280155.273641
39116	28823722 3464 233827 236933 1776.75 1800 94 532.60339355469 785.82187652588 60870.098487854 40064303.439107
39127	28827186 2549 234655 236933 1782.75 1800 70 0.973 11.648172402475 263.00803959111 1647.7430760185
39126	28829735 2453 234655 236933 1782.75 1800 70 -4.5 2.5 39.001859664917 132.07035722278
39125	28832188 2610 234620 236933 1782.5 1800 71 5.6500000953674 15.64999961853 997.42367458344 14433.284077785
39124	28834798 2659 234585 236933 1782.25 1800 72 541.47717285156 785.82187652588 48480.881782532 33058832.500784
39123	28837457 2664 234585 236933 1782.25 1800 72 483.14999389648 483.14999389648 34786.799560547 16807241.995356
39134	28840121 2520 234655 236933 1782.75 1800 70 0.973 12.099024792222 259.05949282823 1582.5967513606
39133	28842641 2367 234655 236933 1782.75 1800 70 -2.7253189086914 2.5 28.687963485718 142.12805814625
39132	28845008 2612 234620 236933 1782.5 1800 71 5.6500000953674 16.27499961853 1044.6128196716 15920.363058797
39131	28847620 2642 234585 236933 1782.25 1800 72 184.17810058594 440.88931274414 21707.877990723 7007980.4655436
39130	28850262 2664 234585 236933 1782.25 1800 72 486.85000610352 486.85000610352 35053.200439453 17065650.847895
39141	28852926 1831 235160 236933 1786.5 1800 55 0.973 12.553400930962 208.73660899671 1567.4961882726
39140	28854757 1877 235160 236933 1786.5 1800 55 -2.7301979064941 2.5 25.136041641235 138.55611998741
39139	28856634 2054 235127 236933 1786.25 1800 56 5.6500000953674 16.89999961853 780.94447612762 11397.041465016
39138	28858688 2107 235093 236933 1786 1800 57 486.85000610352 486.85000610352 27750.4503479 13510306.921251
39137	28860795 2098 235093 236933 1786 1800 57 594.36209106445 785.82187652588 39794.482215881 27997424.908587
39148	28862893 1770 235384 236933 1788.25 1800 48 2.1413957675631 11.200708441096 193.45824027436 1205.3117958401
39147	28864663 1624 235384 236933 1788.25 1800 48 -0.0018501281738281 2.5 37.492597579956 93.749998293617
39146	28866287 1797 235351 236933 1788 1800 49 5.6500000953674 15.02499961853 661.16945362091 9290.7365782965
39145	28868084 1846 235318 236933 1787.75 1800 50 625.53518676758 785.82187652588 35737.069999695 25669500.137555
39144	28869930 1849 235318 236933 1787.75 1800 50 483.14999389648 483.14999389648 24157.499694824 11671695.830109
39155	28871779 1698 235454 236933 1788.75 1800 46 2.1152369910287 10.961479581405 193.79235405908 1223.7328456217
39154	28873477 1688 235454 236933 1788.75 1800 46 -0.018276214599609 2.5 38.680891036987 92.806265164636
39153	28875165 1735 235419 236933 1788.5 1800 47 5.6500000953674 15.338493347168 632.67377948761 8923.7538701
39152	28876900 1776 235384 236933 1788.25 1800 48 656.51466369629 809.56562805176 35652.596488953 26592495.139927
39151	28878676 1776 235384 236933 1788.25 1800 48 483.14999389648 483.14999389648 23191.199707031 11204827.996904
39162	28880452 699 236331 236933 1795.5 1800 19 1.0416949659221 12.099024792222 148.73968264225 1338.1433868611
39161	28881151 514 236331 236933 1795.5 1800 19 -0.31820678710938 2.5 41.94313621521 106.40820227476
39160	28881665 728 236296 236933 1795.25 1800 20 5.6500000953674 16.27499961853 229.65622711182 2875.0890630771
39159	28882393 775 236263 236933 1795 1800 21 486.85000610352 486.85000610352 10223.850128174 4977481.4973029
39158	28883168 775 236263 236933 1795 1800 21 733.76989746094 785.82187652588 16070.545066833 12303759.065908
39169	28883943 662 236366 236933 1795.75 1800 18 3.3294546869024 11.648172402475 140.92027476101 1211.0963643965
39168	28884605 487 236366 236933 1795.75 1800 18 0.29009246826172 2.5 40.580904006958 100.1687165638
39167	28885092 692 236331 236933 1795.5 1800 19 5.6500000953674 15.795226097107 212.56792449951 2584.2499434565
39166	28885784 740 236296 236933 1795.25 1800 20 737.95683288574 785.82187652588 15336.913246155 11765544.573832
39165	28886524 740 236296 236933 1795.25 1800 20 483.14999389648 483.14999389648 9662.9998779297 4668678.3320435
33484	28887264 643 0 236932 0 1800 31 0 38 710 17906
33485	28887907 661 0 236932 0 1800 31 0 244 3834 635156
