version 2
run nodebug-39-20200606-10:12:00-21192
attr configname nodebug
attr datetime 20200606-10:12:00
attr experiment nodebug
attr inifile omnetpp.ini
attr iterationvars ""
attr iterationvars2 $repetition=39
attr measurement ""
attr network "\"org.car2x.veins.modules.application.ExtTraCIScenarioManagerLaunchd.IntersectionExampleScenario\""
attr processid 21192
attr repetition 39
attr replication #39
attr resultdir results
attr runnumber 39
attr seedset 39
param **.coreDebug false
param **.debug false
param *.**.nic.mac1609_4.bitrate 18Mbps
param *.**.nic.mac1609_4.txPower 20mW
param *.**.nic.mac1609_4.useServiceChannel false
param *.**.nic.phy80211p.analogueModels "xmldoc(\"config.xml\")"
param *.**.nic.phy80211p.decider "xmldoc(\"config.xml\")"
param *.**.nic.phy80211p.sensitivity -89dBm
param *.**.nic.phy80211p.thermalNoise -110dBm
param *.**.nic.phy80211p.usePropagationDelay true
param *.**.nic.phy80211p.useThermalNoise true
param *.annotations.draw false
param *.connectionManager.alpha 2.0
param *.connectionManager.carrierFrequency "5.890e9 Hz"
param *.connectionManager.pMax 20mW
param *.connectionManager.sat -89dBm
param *.connectionManager.sendDirect true
param *.manager.autoShutdown true
param *.manager.host "\"localhost\""
param *.manager.launchConfig "xmldoc(\"paramics.launchd.xml\")"
param *.manager.margin 25
param *.manager.moduleDisplayString "\"\""
param *.manager.moduleName "\"node\""
param *.manager.moduleType "\"org.car2x.veins.nodes.Car\""
param *.manager.port 9999
param *.manager.updateInterval 250ms
param *.node[*0].veinsmobility.accidentCount 0
param *.node[*0].veinsmobility.accidentDuration 30s
param *.node[*0].veinsmobility.accidentStart 75s
param *.node[*].appl.LiderSelectZoneRadio 55.0
param *.node[*].appl.ShareDataZoneRadio 110.0
param *.node[*].appl.TiempoSemaforo 30.0
param *.node[*].appl.beaconInterval 1s
param *.node[*].appl.beaconPriority 3
param *.node[*].appl.dataOnSch false
param *.node[*].appl.dataPriority 2
param *.node[*].appl.debug false
param *.node[*].appl.headerLength "256 bit"
param *.node[*].appl.maxOffset 0.005s
param *.node[*].appl.sendBeacons false
param *.node[*].appl.sendData true
param *.node[*].applType "\"Dummy\""
param *.node[*].mobilityType "\"TraCIMobility\""
param *.node[*].mobilityType.debug true
param *.node[*].veinsmobility.x 0
param *.node[*].veinsmobility.y 0
param *.node[*].veinsmobility.z 1.895
param *.node[*].veinsmobilityType "\"org.car2x.veins.modules.mobility.traci.TraCIMobility\""
param *.node[*].veinsmobilityType.debug true
param *.playgroundSizeX 8500m
param *.playgroundSizeY 8500m
param *.playgroundSizeZ 50m
param *.world.use2D false
param *.world.useTorus false

scalar IntersectionExampleScenario.node[4].appl 	VehicleRemoved 	0
scalar IntersectionExampleScenario.node[4].appl 	ArrivedAtDest 	1
scalar IntersectionExampleScenario.node[4].appl 	IntersectionEnterTime 	9.75
scalar IntersectionExampleScenario.node[4].appl 	IntersectionExitTime 	32.357550476125
scalar IntersectionExampleScenario.node[4].appl 	NumberOfCollisions 	0
scalar IntersectionExampleScenario.node[4].nic.phy80211p 	busyTime 	0
scalar IntersectionExampleScenario.node[4].nic.mac1609_4 	ReceivedUnicastPackets 	0
scalar IntersectionExampleScenario.node[4].nic.mac1609_4 	ReceivedBroadcasts 	0
scalar IntersectionExampleScenario.node[4].nic.mac1609_4 	SentPackets 	0
scalar IntersectionExampleScenario.node[4].nic.mac1609_4 	SNIRLostPackets 	0
scalar IntersectionExampleScenario.node[4].nic.mac1609_4 	RXTXLostPackets 	0
scalar IntersectionExampleScenario.node[4].nic.mac1609_4 	TotalLostPackets 	0
scalar IntersectionExampleScenario.node[4].nic.mac1609_4 	DroppedPacketsInMac 	0
scalar IntersectionExampleScenario.node[4].nic.mac1609_4 	TooLittleTime 	0
scalar IntersectionExampleScenario.node[4].nic.mac1609_4 	TimesIntoBackoff 	0
scalar IntersectionExampleScenario.node[4].nic.mac1609_4 	SlotsBackoff 	0
scalar IntersectionExampleScenario.node[4].nic.mac1609_4 	NumInternalContention 	0
scalar IntersectionExampleScenario.node[4].nic.mac1609_4 	totalBusyTime 	0
scalar IntersectionExampleScenario.node[4].veinsmobility 	startTime 	9.75
scalar IntersectionExampleScenario.node[4].veinsmobility 	totalTime 	38
scalar IntersectionExampleScenario.node[4].veinsmobility 	stopTime 	48
scalar IntersectionExampleScenario.node[4].veinsmobility 	minSpeed 	5.6500000953674
scalar IntersectionExampleScenario.node[4].veinsmobility 	maxSpeed 	16.125
scalar IntersectionExampleScenario.node[4].veinsmobility 	totalDistance 	551.66519927979
scalar IntersectionExampleScenario.node[4].veinsmobility 	totalCO2Emission 	119.99297835631
scalar IntersectionExampleScenario.node[3].appl 	VehicleRemoved 	0
scalar IntersectionExampleScenario.node[3].appl 	ArrivedAtDest 	1
scalar IntersectionExampleScenario.node[3].appl 	IntersectionEnterTime 	9.25
scalar IntersectionExampleScenario.node[3].appl 	IntersectionExitTime 	32.868282515352
scalar IntersectionExampleScenario.node[3].appl 	NumberOfCollisions 	0
scalar IntersectionExampleScenario.node[3].nic.phy80211p 	busyTime 	0
scalar IntersectionExampleScenario.node[3].nic.mac1609_4 	ReceivedUnicastPackets 	0
scalar IntersectionExampleScenario.node[3].nic.mac1609_4 	ReceivedBroadcasts 	0
scalar IntersectionExampleScenario.node[3].nic.mac1609_4 	SentPackets 	0
scalar IntersectionExampleScenario.node[3].nic.mac1609_4 	SNIRLostPackets 	0
scalar IntersectionExampleScenario.node[3].nic.mac1609_4 	RXTXLostPackets 	0
scalar IntersectionExampleScenario.node[3].nic.mac1609_4 	TotalLostPackets 	0
scalar IntersectionExampleScenario.node[3].nic.mac1609_4 	DroppedPacketsInMac 	0
scalar IntersectionExampleScenario.node[3].nic.mac1609_4 	TooLittleTime 	0
scalar IntersectionExampleScenario.node[3].nic.mac1609_4 	TimesIntoBackoff 	0
scalar IntersectionExampleScenario.node[3].nic.mac1609_4 	SlotsBackoff 	0
scalar IntersectionExampleScenario.node[3].nic.mac1609_4 	NumInternalContention 	0
scalar IntersectionExampleScenario.node[3].nic.mac1609_4 	totalBusyTime 	0
scalar IntersectionExampleScenario.node[3].veinsmobility 	startTime 	9.25
scalar IntersectionExampleScenario.node[3].veinsmobility 	totalTime 	40
scalar IntersectionExampleScenario.node[3].veinsmobility 	stopTime 	49.5
scalar IntersectionExampleScenario.node[3].veinsmobility 	minSpeed 	5.6500000953674
scalar IntersectionExampleScenario.node[3].veinsmobility 	maxSpeed 	15.375
scalar IntersectionExampleScenario.node[3].veinsmobility 	totalDistance 	549.31681403196
scalar IntersectionExampleScenario.node[3].veinsmobility 	totalCO2Emission 	120.7194466891
scalar IntersectionExampleScenario.node[5].appl 	VehicleRemoved 	0
scalar IntersectionExampleScenario.node[5].appl 	ArrivedAtDest 	1
scalar IntersectionExampleScenario.node[5].appl 	IntersectionEnterTime 	11.25
scalar IntersectionExampleScenario.node[5].appl 	IntersectionExitTime 	35.286996680254
scalar IntersectionExampleScenario.node[5].appl 	NumberOfCollisions 	0
scalar IntersectionExampleScenario.node[5].nic.phy80211p 	busyTime 	0
scalar IntersectionExampleScenario.node[5].nic.mac1609_4 	ReceivedUnicastPackets 	0
scalar IntersectionExampleScenario.node[5].nic.mac1609_4 	ReceivedBroadcasts 	0
scalar IntersectionExampleScenario.node[5].nic.mac1609_4 	SentPackets 	0
scalar IntersectionExampleScenario.node[5].nic.mac1609_4 	SNIRLostPackets 	0
scalar IntersectionExampleScenario.node[5].nic.mac1609_4 	RXTXLostPackets 	0
scalar IntersectionExampleScenario.node[5].nic.mac1609_4 	TotalLostPackets 	0
scalar IntersectionExampleScenario.node[5].nic.mac1609_4 	DroppedPacketsInMac 	0
scalar IntersectionExampleScenario.node[5].nic.mac1609_4 	TooLittleTime 	0
scalar IntersectionExampleScenario.node[5].nic.mac1609_4 	TimesIntoBackoff 	0
scalar IntersectionExampleScenario.node[5].nic.mac1609_4 	SlotsBackoff 	0
scalar IntersectionExampleScenario.node[5].nic.mac1609_4 	NumInternalContention 	0
scalar IntersectionExampleScenario.node[5].nic.mac1609_4 	totalBusyTime 	0
scalar IntersectionExampleScenario.node[5].veinsmobility 	startTime 	11.25
scalar IntersectionExampleScenario.node[5].veinsmobility 	totalTime 	39.25
scalar IntersectionExampleScenario.node[5].veinsmobility 	stopTime 	50.75
scalar IntersectionExampleScenario.node[5].veinsmobility 	minSpeed 	5.6500000953674
scalar IntersectionExampleScenario.node[5].veinsmobility 	maxSpeed 	16.125
scalar IntersectionExampleScenario.node[5].veinsmobility 	totalDistance 	571.25839233398
scalar IntersectionExampleScenario.node[5].veinsmobility 	totalCO2Emission 	127.50560454476
scalar IntersectionExampleScenario.node[0].appl 	VehicleRemoved 	0
scalar IntersectionExampleScenario.node[0].appl 	ArrivedAtDest 	1
scalar IntersectionExampleScenario.node[0].appl 	IntersectionEnterTime 	2.5
scalar IntersectionExampleScenario.node[0].appl 	IntersectionExitTime 	40.265256232669
scalar IntersectionExampleScenario.node[0].appl 	NumberOfCollisions 	0
scalar IntersectionExampleScenario.node[0].nic.phy80211p 	busyTime 	0
scalar IntersectionExampleScenario.node[0].nic.mac1609_4 	ReceivedUnicastPackets 	0
scalar IntersectionExampleScenario.node[0].nic.mac1609_4 	ReceivedBroadcasts 	0
scalar IntersectionExampleScenario.node[0].nic.mac1609_4 	SentPackets 	0
scalar IntersectionExampleScenario.node[0].nic.mac1609_4 	SNIRLostPackets 	0
scalar IntersectionExampleScenario.node[0].nic.mac1609_4 	RXTXLostPackets 	0
scalar IntersectionExampleScenario.node[0].nic.mac1609_4 	TotalLostPackets 	0
scalar IntersectionExampleScenario.node[0].nic.mac1609_4 	DroppedPacketsInMac 	0
scalar IntersectionExampleScenario.node[0].nic.mac1609_4 	TooLittleTime 	0
scalar IntersectionExampleScenario.node[0].nic.mac1609_4 	TimesIntoBackoff 	0
scalar IntersectionExampleScenario.node[0].nic.mac1609_4 	SlotsBackoff 	0
scalar IntersectionExampleScenario.node[0].nic.mac1609_4 	NumInternalContention 	0
scalar IntersectionExampleScenario.node[0].nic.mac1609_4 	totalBusyTime 	0
scalar IntersectionExampleScenario.node[0].veinsmobility 	startTime 	2.5
scalar IntersectionExampleScenario.node[0].veinsmobility 	totalTime 	53.5
scalar IntersectionExampleScenario.node[0].veinsmobility 	stopTime 	56.25
scalar IntersectionExampleScenario.node[0].veinsmobility 	minSpeed 	0
scalar IntersectionExampleScenario.node[0].veinsmobility 	maxSpeed 	15.64999961853
scalar IntersectionExampleScenario.node[0].veinsmobility 	totalDistance 	553.82305908203
scalar IntersectionExampleScenario.node[0].veinsmobility 	totalCO2Emission 	148.79831546205
scalar IntersectionExampleScenario.node[6].appl 	VehicleRemoved 	0
scalar IntersectionExampleScenario.node[6].appl 	ArrivedAtDest 	1
scalar IntersectionExampleScenario.node[6].appl 	IntersectionEnterTime 	13.25
scalar IntersectionExampleScenario.node[6].appl 	IntersectionExitTime 	40.269643226813
scalar IntersectionExampleScenario.node[6].appl 	NumberOfCollisions 	0
scalar IntersectionExampleScenario.node[6].nic.phy80211p 	busyTime 	0
scalar IntersectionExampleScenario.node[6].nic.mac1609_4 	ReceivedUnicastPackets 	0
scalar IntersectionExampleScenario.node[6].nic.mac1609_4 	ReceivedBroadcasts 	0
scalar IntersectionExampleScenario.node[6].nic.mac1609_4 	SentPackets 	0
scalar IntersectionExampleScenario.node[6].nic.mac1609_4 	SNIRLostPackets 	0
scalar IntersectionExampleScenario.node[6].nic.mac1609_4 	RXTXLostPackets 	0
scalar IntersectionExampleScenario.node[6].nic.mac1609_4 	TotalLostPackets 	0
scalar IntersectionExampleScenario.node[6].nic.mac1609_4 	DroppedPacketsInMac 	0
scalar IntersectionExampleScenario.node[6].nic.mac1609_4 	TooLittleTime 	0
scalar IntersectionExampleScenario.node[6].nic.mac1609_4 	TimesIntoBackoff 	0
scalar IntersectionExampleScenario.node[6].nic.mac1609_4 	SlotsBackoff 	0
scalar IntersectionExampleScenario.node[6].nic.mac1609_4 	NumInternalContention 	0
scalar IntersectionExampleScenario.node[6].nic.mac1609_4 	totalBusyTime 	0
scalar IntersectionExampleScenario.node[6].veinsmobility 	startTime 	13.25
scalar IntersectionExampleScenario.node[6].veinsmobility 	totalTime 	43.25
scalar IntersectionExampleScenario.node[6].veinsmobility 	stopTime 	56.75
scalar IntersectionExampleScenario.node[6].veinsmobility 	minSpeed 	0
scalar IntersectionExampleScenario.node[6].veinsmobility 	maxSpeed 	15.375
scalar IntersectionExampleScenario.node[6].veinsmobility 	totalDistance 	553.95890045166
scalar IntersectionExampleScenario.node[6].veinsmobility 	totalCO2Emission 	134.52480122193
scalar IntersectionExampleScenario.node[9].appl 	VehicleRemoved 	0
scalar IntersectionExampleScenario.node[9].appl 	ArrivedAtDest 	1
scalar IntersectionExampleScenario.node[9].appl 	IntersectionEnterTime 	19.25
scalar IntersectionExampleScenario.node[9].appl 	IntersectionExitTime 	42.605980597466
scalar IntersectionExampleScenario.node[9].appl 	NumberOfCollisions 	0
scalar IntersectionExampleScenario.node[9].nic.phy80211p 	busyTime 	0
scalar IntersectionExampleScenario.node[9].nic.mac1609_4 	ReceivedUnicastPackets 	0
scalar IntersectionExampleScenario.node[9].nic.mac1609_4 	ReceivedBroadcasts 	0
scalar IntersectionExampleScenario.node[9].nic.mac1609_4 	SentPackets 	0
scalar IntersectionExampleScenario.node[9].nic.mac1609_4 	SNIRLostPackets 	0
scalar IntersectionExampleScenario.node[9].nic.mac1609_4 	RXTXLostPackets 	0
scalar IntersectionExampleScenario.node[9].nic.mac1609_4 	TotalLostPackets 	0
scalar IntersectionExampleScenario.node[9].nic.mac1609_4 	DroppedPacketsInMac 	0
scalar IntersectionExampleScenario.node[9].nic.mac1609_4 	TooLittleTime 	0
scalar IntersectionExampleScenario.node[9].nic.mac1609_4 	TimesIntoBackoff 	0
scalar IntersectionExampleScenario.node[9].nic.mac1609_4 	SlotsBackoff 	0
scalar IntersectionExampleScenario.node[9].nic.mac1609_4 	NumInternalContention 	0
scalar IntersectionExampleScenario.node[9].nic.mac1609_4 	totalBusyTime 	0
scalar IntersectionExampleScenario.node[9].veinsmobility 	startTime 	19.25
scalar IntersectionExampleScenario.node[9].veinsmobility 	totalTime 	38.25
scalar IntersectionExampleScenario.node[9].veinsmobility 	stopTime 	57.75
scalar IntersectionExampleScenario.node[9].veinsmobility 	minSpeed 	5.6500000953674
scalar IntersectionExampleScenario.node[9].veinsmobility 	maxSpeed 	16.624355316162
scalar IntersectionExampleScenario.node[9].veinsmobility 	totalDistance 	551.76212310791
scalar IntersectionExampleScenario.node[9].veinsmobility 	totalCO2Emission 	129.13811552205
scalar IntersectionExampleScenario.node[1].appl 	VehicleRemoved 	0
scalar IntersectionExampleScenario.node[1].appl 	ArrivedAtDest 	1
scalar IntersectionExampleScenario.node[1].appl 	IntersectionEnterTime 	4.5
scalar IntersectionExampleScenario.node[1].appl 	IntersectionExitTime 	41.058930718282
scalar IntersectionExampleScenario.node[1].appl 	NumberOfCollisions 	0
scalar IntersectionExampleScenario.node[1].nic.phy80211p 	busyTime 	0
scalar IntersectionExampleScenario.node[1].nic.mac1609_4 	ReceivedUnicastPackets 	0
scalar IntersectionExampleScenario.node[1].nic.mac1609_4 	ReceivedBroadcasts 	0
scalar IntersectionExampleScenario.node[1].nic.mac1609_4 	SentPackets 	0
scalar IntersectionExampleScenario.node[1].nic.mac1609_4 	SNIRLostPackets 	0
scalar IntersectionExampleScenario.node[1].nic.mac1609_4 	RXTXLostPackets 	0
scalar IntersectionExampleScenario.node[1].nic.mac1609_4 	TotalLostPackets 	0
scalar IntersectionExampleScenario.node[1].nic.mac1609_4 	DroppedPacketsInMac 	0
scalar IntersectionExampleScenario.node[1].nic.mac1609_4 	TooLittleTime 	0
scalar IntersectionExampleScenario.node[1].nic.mac1609_4 	TimesIntoBackoff 	0
scalar IntersectionExampleScenario.node[1].nic.mac1609_4 	SlotsBackoff 	0
scalar IntersectionExampleScenario.node[1].nic.mac1609_4 	NumInternalContention 	0
scalar IntersectionExampleScenario.node[1].nic.mac1609_4 	totalBusyTime 	0
scalar IntersectionExampleScenario.node[1].veinsmobility 	startTime 	4.5
scalar IntersectionExampleScenario.node[1].veinsmobility 	totalTime 	53.5
scalar IntersectionExampleScenario.node[1].veinsmobility 	stopTime 	58.25
scalar IntersectionExampleScenario.node[1].veinsmobility 	minSpeed 	0
scalar IntersectionExampleScenario.node[1].veinsmobility 	maxSpeed 	15.25
scalar IntersectionExampleScenario.node[1].veinsmobility 	totalDistance 	562.31666645968
scalar IntersectionExampleScenario.node[1].veinsmobility 	totalCO2Emission 	143.16051002651
scalar IntersectionExampleScenario.node[2].appl 	VehicleRemoved 	0
scalar IntersectionExampleScenario.node[2].appl 	ArrivedAtDest 	1
scalar IntersectionExampleScenario.node[2].appl 	IntersectionEnterTime 	8.75
scalar IntersectionExampleScenario.node[2].appl 	IntersectionExitTime 	43.618055219558
scalar IntersectionExampleScenario.node[2].appl 	NumberOfCollisions 	0
scalar IntersectionExampleScenario.node[2].nic.phy80211p 	busyTime 	0
scalar IntersectionExampleScenario.node[2].nic.mac1609_4 	ReceivedUnicastPackets 	0
scalar IntersectionExampleScenario.node[2].nic.mac1609_4 	ReceivedBroadcasts 	0
scalar IntersectionExampleScenario.node[2].nic.mac1609_4 	SentPackets 	0
scalar IntersectionExampleScenario.node[2].nic.mac1609_4 	SNIRLostPackets 	0
scalar IntersectionExampleScenario.node[2].nic.mac1609_4 	RXTXLostPackets 	0
scalar IntersectionExampleScenario.node[2].nic.mac1609_4 	TotalLostPackets 	0
scalar IntersectionExampleScenario.node[2].nic.mac1609_4 	DroppedPacketsInMac 	0
scalar IntersectionExampleScenario.node[2].nic.mac1609_4 	TooLittleTime 	0
scalar IntersectionExampleScenario.node[2].nic.mac1609_4 	TimesIntoBackoff 	0
scalar IntersectionExampleScenario.node[2].nic.mac1609_4 	SlotsBackoff 	0
scalar IntersectionExampleScenario.node[2].nic.mac1609_4 	NumInternalContention 	0
scalar IntersectionExampleScenario.node[2].nic.mac1609_4 	totalBusyTime 	0
scalar IntersectionExampleScenario.node[2].veinsmobility 	startTime 	8.75
scalar IntersectionExampleScenario.node[2].veinsmobility 	totalTime 	51.75
scalar IntersectionExampleScenario.node[2].veinsmobility 	stopTime 	60.75
scalar IntersectionExampleScenario.node[2].veinsmobility 	minSpeed 	1.4841589927673
scalar IntersectionExampleScenario.node[2].veinsmobility 	maxSpeed 	15.25
scalar IntersectionExampleScenario.node[2].veinsmobility 	totalDistance 	559.24993959828
scalar IntersectionExampleScenario.node[2].veinsmobility 	totalCO2Emission 	140.20820588287
scalar IntersectionExampleScenario.node[11].appl 	VehicleRemoved 	0
scalar IntersectionExampleScenario.node[11].appl 	ArrivedAtDest 	1
scalar IntersectionExampleScenario.node[11].appl 	IntersectionEnterTime 	24.25
scalar IntersectionExampleScenario.node[11].appl 	IntersectionExitTime 	47.530816955783
scalar IntersectionExampleScenario.node[11].appl 	NumberOfCollisions 	0
scalar IntersectionExampleScenario.node[11].nic.phy80211p 	busyTime 	0
scalar IntersectionExampleScenario.node[11].nic.mac1609_4 	ReceivedUnicastPackets 	0
scalar IntersectionExampleScenario.node[11].nic.mac1609_4 	ReceivedBroadcasts 	0
scalar IntersectionExampleScenario.node[11].nic.mac1609_4 	SentPackets 	0
scalar IntersectionExampleScenario.node[11].nic.mac1609_4 	SNIRLostPackets 	0
scalar IntersectionExampleScenario.node[11].nic.mac1609_4 	RXTXLostPackets 	0
scalar IntersectionExampleScenario.node[11].nic.mac1609_4 	TotalLostPackets 	0
scalar IntersectionExampleScenario.node[11].nic.mac1609_4 	DroppedPacketsInMac 	0
scalar IntersectionExampleScenario.node[11].nic.mac1609_4 	TooLittleTime 	0
scalar IntersectionExampleScenario.node[11].nic.mac1609_4 	TimesIntoBackoff 	0
scalar IntersectionExampleScenario.node[11].nic.mac1609_4 	SlotsBackoff 	0
scalar IntersectionExampleScenario.node[11].nic.mac1609_4 	NumInternalContention 	0
scalar IntersectionExampleScenario.node[11].nic.mac1609_4 	totalBusyTime 	0
scalar IntersectionExampleScenario.node[11].veinsmobility 	startTime 	24.25
scalar IntersectionExampleScenario.node[11].veinsmobility 	totalTime 	39.5
scalar IntersectionExampleScenario.node[11].veinsmobility 	stopTime 	64
scalar IntersectionExampleScenario.node[11].veinsmobility 	minSpeed 	5.6500000953674
scalar IntersectionExampleScenario.node[11].veinsmobility 	maxSpeed 	15.5
scalar IntersectionExampleScenario.node[11].veinsmobility 	totalDistance 	553.01203918457
scalar IntersectionExampleScenario.node[11].veinsmobility 	totalCO2Emission 	119.19913622447
scalar IntersectionExampleScenario.node[12].appl 	VehicleRemoved 	0
scalar IntersectionExampleScenario.node[12].appl 	ArrivedAtDest 	1
scalar IntersectionExampleScenario.node[12].appl 	IntersectionEnterTime 	25.25
scalar IntersectionExampleScenario.node[12].appl 	IntersectionExitTime 	48.806141728652
scalar IntersectionExampleScenario.node[12].appl 	NumberOfCollisions 	0
scalar IntersectionExampleScenario.node[12].nic.phy80211p 	busyTime 	0
scalar IntersectionExampleScenario.node[12].nic.mac1609_4 	ReceivedUnicastPackets 	0
scalar IntersectionExampleScenario.node[12].nic.mac1609_4 	ReceivedBroadcasts 	0
scalar IntersectionExampleScenario.node[12].nic.mac1609_4 	SentPackets 	0
scalar IntersectionExampleScenario.node[12].nic.mac1609_4 	SNIRLostPackets 	0
scalar IntersectionExampleScenario.node[12].nic.mac1609_4 	RXTXLostPackets 	0
scalar IntersectionExampleScenario.node[12].nic.mac1609_4 	TotalLostPackets 	0
scalar IntersectionExampleScenario.node[12].nic.mac1609_4 	DroppedPacketsInMac 	0
scalar IntersectionExampleScenario.node[12].nic.mac1609_4 	TooLittleTime 	0
scalar IntersectionExampleScenario.node[12].nic.mac1609_4 	TimesIntoBackoff 	0
scalar IntersectionExampleScenario.node[12].nic.mac1609_4 	SlotsBackoff 	0
scalar IntersectionExampleScenario.node[12].nic.mac1609_4 	NumInternalContention 	0
scalar IntersectionExampleScenario.node[12].nic.mac1609_4 	totalBusyTime 	0
scalar IntersectionExampleScenario.node[12].veinsmobility 	startTime 	25.25
scalar IntersectionExampleScenario.node[12].veinsmobility 	totalTime 	40
scalar IntersectionExampleScenario.node[12].veinsmobility 	stopTime 	65.5
scalar IntersectionExampleScenario.node[12].veinsmobility 	minSpeed 	5.6500000953674
scalar IntersectionExampleScenario.node[12].veinsmobility 	maxSpeed 	15.875
scalar IntersectionExampleScenario.node[12].veinsmobility 	totalDistance 	543.34222497925
scalar IntersectionExampleScenario.node[12].veinsmobility 	totalCO2Emission 	130.07483603867
scalar IntersectionExampleScenario.node[15].appl 	VehicleRemoved 	0
scalar IntersectionExampleScenario.node[15].appl 	ArrivedAtDest 	1
scalar IntersectionExampleScenario.node[15].appl 	IntersectionEnterTime 	28.5
scalar IntersectionExampleScenario.node[15].appl 	IntersectionExitTime 	50.269469494961
scalar IntersectionExampleScenario.node[15].appl 	NumberOfCollisions 	0
scalar IntersectionExampleScenario.node[15].nic.phy80211p 	busyTime 	0
scalar IntersectionExampleScenario.node[15].nic.mac1609_4 	ReceivedUnicastPackets 	0
scalar IntersectionExampleScenario.node[15].nic.mac1609_4 	ReceivedBroadcasts 	0
scalar IntersectionExampleScenario.node[15].nic.mac1609_4 	SentPackets 	0
scalar IntersectionExampleScenario.node[15].nic.mac1609_4 	SNIRLostPackets 	0
scalar IntersectionExampleScenario.node[15].nic.mac1609_4 	RXTXLostPackets 	0
scalar IntersectionExampleScenario.node[15].nic.mac1609_4 	TotalLostPackets 	0
scalar IntersectionExampleScenario.node[15].nic.mac1609_4 	DroppedPacketsInMac 	0
scalar IntersectionExampleScenario.node[15].nic.mac1609_4 	TooLittleTime 	0
scalar IntersectionExampleScenario.node[15].nic.mac1609_4 	TimesIntoBackoff 	0
scalar IntersectionExampleScenario.node[15].nic.mac1609_4 	SlotsBackoff 	0
scalar IntersectionExampleScenario.node[15].nic.mac1609_4 	NumInternalContention 	0
scalar IntersectionExampleScenario.node[15].nic.mac1609_4 	totalBusyTime 	0
scalar IntersectionExampleScenario.node[15].veinsmobility 	startTime 	28.5
scalar IntersectionExampleScenario.node[15].veinsmobility 	totalTime 	38.25
scalar IntersectionExampleScenario.node[15].veinsmobility 	stopTime 	67
scalar IntersectionExampleScenario.node[15].veinsmobility 	minSpeed 	5.6500000953674
scalar IntersectionExampleScenario.node[15].veinsmobility 	maxSpeed 	15.712231636047
scalar IntersectionExampleScenario.node[15].veinsmobility 	totalDistance 	523.06748383829
scalar IntersectionExampleScenario.node[15].veinsmobility 	totalCO2Emission 	129.76120665973
scalar IntersectionExampleScenario.node[13].appl 	VehicleRemoved 	0
scalar IntersectionExampleScenario.node[13].appl 	ArrivedAtDest 	1
scalar IntersectionExampleScenario.node[13].appl 	IntersectionEnterTime 	25.25
scalar IntersectionExampleScenario.node[13].appl 	IntersectionExitTime 	52.560611696215
scalar IntersectionExampleScenario.node[13].appl 	NumberOfCollisions 	0
scalar IntersectionExampleScenario.node[13].nic.phy80211p 	busyTime 	0
scalar IntersectionExampleScenario.node[13].nic.mac1609_4 	ReceivedUnicastPackets 	0
scalar IntersectionExampleScenario.node[13].nic.mac1609_4 	ReceivedBroadcasts 	0
scalar IntersectionExampleScenario.node[13].nic.mac1609_4 	SentPackets 	0
scalar IntersectionExampleScenario.node[13].nic.mac1609_4 	SNIRLostPackets 	0
scalar IntersectionExampleScenario.node[13].nic.mac1609_4 	RXTXLostPackets 	0
scalar IntersectionExampleScenario.node[13].nic.mac1609_4 	TotalLostPackets 	0
scalar IntersectionExampleScenario.node[13].nic.mac1609_4 	DroppedPacketsInMac 	0
scalar IntersectionExampleScenario.node[13].nic.mac1609_4 	TooLittleTime 	0
scalar IntersectionExampleScenario.node[13].nic.mac1609_4 	TimesIntoBackoff 	0
scalar IntersectionExampleScenario.node[13].nic.mac1609_4 	SlotsBackoff 	0
scalar IntersectionExampleScenario.node[13].nic.mac1609_4 	NumInternalContention 	0
scalar IntersectionExampleScenario.node[13].nic.mac1609_4 	totalBusyTime 	0
scalar IntersectionExampleScenario.node[13].veinsmobility 	startTime 	25.25
scalar IntersectionExampleScenario.node[13].veinsmobility 	totalTime 	43.75
scalar IntersectionExampleScenario.node[13].veinsmobility 	stopTime 	69.25
scalar IntersectionExampleScenario.node[13].veinsmobility 	minSpeed 	5.6500000953674
scalar IntersectionExampleScenario.node[13].veinsmobility 	maxSpeed 	14.875
scalar IntersectionExampleScenario.node[13].veinsmobility 	totalDistance 	574.65699768066
scalar IntersectionExampleScenario.node[13].veinsmobility 	totalCO2Emission 	138.31518376826
scalar IntersectionExampleScenario.node[14].appl 	VehicleRemoved 	0
scalar IntersectionExampleScenario.node[14].appl 	ArrivedAtDest 	1
scalar IntersectionExampleScenario.node[14].appl 	IntersectionEnterTime 	26.5
scalar IntersectionExampleScenario.node[14].appl 	IntersectionExitTime 	54.317050629499
scalar IntersectionExampleScenario.node[14].appl 	NumberOfCollisions 	0
scalar IntersectionExampleScenario.node[14].nic.phy80211p 	busyTime 	0
scalar IntersectionExampleScenario.node[14].nic.mac1609_4 	ReceivedUnicastPackets 	0
scalar IntersectionExampleScenario.node[14].nic.mac1609_4 	ReceivedBroadcasts 	0
scalar IntersectionExampleScenario.node[14].nic.mac1609_4 	SentPackets 	0
scalar IntersectionExampleScenario.node[14].nic.mac1609_4 	SNIRLostPackets 	0
scalar IntersectionExampleScenario.node[14].nic.mac1609_4 	RXTXLostPackets 	0
scalar IntersectionExampleScenario.node[14].nic.mac1609_4 	TotalLostPackets 	0
scalar IntersectionExampleScenario.node[14].nic.mac1609_4 	DroppedPacketsInMac 	0
scalar IntersectionExampleScenario.node[14].nic.mac1609_4 	TooLittleTime 	0
scalar IntersectionExampleScenario.node[14].nic.mac1609_4 	TimesIntoBackoff 	0
scalar IntersectionExampleScenario.node[14].nic.mac1609_4 	SlotsBackoff 	0
scalar IntersectionExampleScenario.node[14].nic.mac1609_4 	NumInternalContention 	0
scalar IntersectionExampleScenario.node[14].nic.mac1609_4 	totalBusyTime 	0
scalar IntersectionExampleScenario.node[14].veinsmobility 	startTime 	26.5
scalar IntersectionExampleScenario.node[14].veinsmobility 	totalTime 	43.75
scalar IntersectionExampleScenario.node[14].veinsmobility 	stopTime 	70.5
scalar IntersectionExampleScenario.node[14].veinsmobility 	minSpeed 	5.6500000953674
scalar IntersectionExampleScenario.node[14].veinsmobility 	maxSpeed 	15.974274635315
scalar IntersectionExampleScenario.node[14].veinsmobility 	totalDistance 	586.31568908691
scalar IntersectionExampleScenario.node[14].veinsmobility 	totalCO2Emission 	140.50197702613
scalar IntersectionExampleScenario.node[18].appl 	VehicleRemoved 	0
scalar IntersectionExampleScenario.node[18].appl 	ArrivedAtDest 	1
scalar IntersectionExampleScenario.node[18].appl 	IntersectionEnterTime 	37.25
scalar IntersectionExampleScenario.node[18].appl 	IntersectionExitTime 	60.102754610882
scalar IntersectionExampleScenario.node[18].appl 	NumberOfCollisions 	0
scalar IntersectionExampleScenario.node[18].nic.phy80211p 	busyTime 	0
scalar IntersectionExampleScenario.node[18].nic.mac1609_4 	ReceivedUnicastPackets 	0
scalar IntersectionExampleScenario.node[18].nic.mac1609_4 	ReceivedBroadcasts 	0
scalar IntersectionExampleScenario.node[18].nic.mac1609_4 	SentPackets 	0
scalar IntersectionExampleScenario.node[18].nic.mac1609_4 	SNIRLostPackets 	0
scalar IntersectionExampleScenario.node[18].nic.mac1609_4 	RXTXLostPackets 	0
scalar IntersectionExampleScenario.node[18].nic.mac1609_4 	TotalLostPackets 	0
scalar IntersectionExampleScenario.node[18].nic.mac1609_4 	DroppedPacketsInMac 	0
scalar IntersectionExampleScenario.node[18].nic.mac1609_4 	TooLittleTime 	0
scalar IntersectionExampleScenario.node[18].nic.mac1609_4 	TimesIntoBackoff 	0
scalar IntersectionExampleScenario.node[18].nic.mac1609_4 	SlotsBackoff 	0
scalar IntersectionExampleScenario.node[18].nic.mac1609_4 	NumInternalContention 	0
scalar IntersectionExampleScenario.node[18].nic.mac1609_4 	totalBusyTime 	0
scalar IntersectionExampleScenario.node[18].veinsmobility 	startTime 	37.25
scalar IntersectionExampleScenario.node[18].veinsmobility 	totalTime 	38.5
scalar IntersectionExampleScenario.node[18].veinsmobility 	stopTime 	76
scalar IntersectionExampleScenario.node[18].veinsmobility 	minSpeed 	5.6500000953674
scalar IntersectionExampleScenario.node[18].veinsmobility 	maxSpeed 	15.64999961853
scalar IntersectionExampleScenario.node[18].veinsmobility 	totalDistance 	552.07740783691
scalar IntersectionExampleScenario.node[18].veinsmobility 	totalCO2Emission 	118.32713125629
scalar IntersectionExampleScenario.node[10].appl 	VehicleRemoved 	0
scalar IntersectionExampleScenario.node[10].appl 	ArrivedAtDest 	1
scalar IntersectionExampleScenario.node[10].appl 	IntersectionEnterTime 	22.75
scalar IntersectionExampleScenario.node[10].appl 	IntersectionExitTime 	65.562016829877
scalar IntersectionExampleScenario.node[10].appl 	NumberOfCollisions 	0
scalar IntersectionExampleScenario.node[10].nic.phy80211p 	busyTime 	0
scalar IntersectionExampleScenario.node[10].nic.mac1609_4 	ReceivedUnicastPackets 	0
scalar IntersectionExampleScenario.node[10].nic.mac1609_4 	ReceivedBroadcasts 	0
scalar IntersectionExampleScenario.node[10].nic.mac1609_4 	SentPackets 	0
scalar IntersectionExampleScenario.node[10].nic.mac1609_4 	SNIRLostPackets 	0
scalar IntersectionExampleScenario.node[10].nic.mac1609_4 	RXTXLostPackets 	0
scalar IntersectionExampleScenario.node[10].nic.mac1609_4 	TotalLostPackets 	0
scalar IntersectionExampleScenario.node[10].nic.mac1609_4 	DroppedPacketsInMac 	0
scalar IntersectionExampleScenario.node[10].nic.mac1609_4 	TooLittleTime 	0
scalar IntersectionExampleScenario.node[10].nic.mac1609_4 	TimesIntoBackoff 	0
scalar IntersectionExampleScenario.node[10].nic.mac1609_4 	SlotsBackoff 	0
scalar IntersectionExampleScenario.node[10].nic.mac1609_4 	NumInternalContention 	0
scalar IntersectionExampleScenario.node[10].nic.mac1609_4 	totalBusyTime 	0
scalar IntersectionExampleScenario.node[10].veinsmobility 	startTime 	22.75
scalar IntersectionExampleScenario.node[10].veinsmobility 	totalTime 	59.5
scalar IntersectionExampleScenario.node[10].veinsmobility 	stopTime 	82.5
scalar IntersectionExampleScenario.node[10].veinsmobility 	minSpeed 	0
scalar IntersectionExampleScenario.node[10].veinsmobility 	maxSpeed 	15.875
scalar IntersectionExampleScenario.node[10].veinsmobility 	totalDistance 	546.147513403
scalar IntersectionExampleScenario.node[10].veinsmobility 	totalCO2Emission 	152.01276007948
scalar IntersectionExampleScenario.node[7].appl 	VehicleRemoved 	0
scalar IntersectionExampleScenario.node[7].appl 	ArrivedAtDest 	1
scalar IntersectionExampleScenario.node[7].appl 	IntersectionEnterTime 	13.75
scalar IntersectionExampleScenario.node[7].appl 	IntersectionExitTime 	65.568593647098
scalar IntersectionExampleScenario.node[7].appl 	NumberOfCollisions 	0
scalar IntersectionExampleScenario.node[7].nic.phy80211p 	busyTime 	0
scalar IntersectionExampleScenario.node[7].nic.mac1609_4 	ReceivedUnicastPackets 	0
scalar IntersectionExampleScenario.node[7].nic.mac1609_4 	ReceivedBroadcasts 	0
scalar IntersectionExampleScenario.node[7].nic.mac1609_4 	SentPackets 	0
scalar IntersectionExampleScenario.node[7].nic.mac1609_4 	SNIRLostPackets 	0
scalar IntersectionExampleScenario.node[7].nic.mac1609_4 	RXTXLostPackets 	0
scalar IntersectionExampleScenario.node[7].nic.mac1609_4 	TotalLostPackets 	0
scalar IntersectionExampleScenario.node[7].nic.mac1609_4 	DroppedPacketsInMac 	0
scalar IntersectionExampleScenario.node[7].nic.mac1609_4 	TooLittleTime 	0
scalar IntersectionExampleScenario.node[7].nic.mac1609_4 	TimesIntoBackoff 	0
scalar IntersectionExampleScenario.node[7].nic.mac1609_4 	SlotsBackoff 	0
scalar IntersectionExampleScenario.node[7].nic.mac1609_4 	NumInternalContention 	0
scalar IntersectionExampleScenario.node[7].nic.mac1609_4 	totalBusyTime 	0
scalar IntersectionExampleScenario.node[7].veinsmobility 	startTime 	13.75
scalar IntersectionExampleScenario.node[7].veinsmobility 	totalTime 	69
scalar IntersectionExampleScenario.node[7].veinsmobility 	stopTime 	83
scalar IntersectionExampleScenario.node[7].veinsmobility 	minSpeed 	0
scalar IntersectionExampleScenario.node[7].veinsmobility 	maxSpeed 	15.25
scalar IntersectionExampleScenario.node[7].veinsmobility 	totalDistance 	570.12135220916
scalar IntersectionExampleScenario.node[7].veinsmobility 	totalCO2Emission 	158.78843382991
scalar IntersectionExampleScenario.node[8].appl 	VehicleRemoved 	0
scalar IntersectionExampleScenario.node[8].appl 	ArrivedAtDest 	1
scalar IntersectionExampleScenario.node[8].appl 	IntersectionEnterTime 	17.5
scalar IntersectionExampleScenario.node[8].appl 	IntersectionExitTime 	67.831569653557
scalar IntersectionExampleScenario.node[8].appl 	NumberOfCollisions 	0
scalar IntersectionExampleScenario.node[8].nic.phy80211p 	busyTime 	0
scalar IntersectionExampleScenario.node[8].nic.mac1609_4 	ReceivedUnicastPackets 	0
scalar IntersectionExampleScenario.node[8].nic.mac1609_4 	ReceivedBroadcasts 	0
scalar IntersectionExampleScenario.node[8].nic.mac1609_4 	SentPackets 	0
scalar IntersectionExampleScenario.node[8].nic.mac1609_4 	SNIRLostPackets 	0
scalar IntersectionExampleScenario.node[8].nic.mac1609_4 	RXTXLostPackets 	0
scalar IntersectionExampleScenario.node[8].nic.mac1609_4 	TotalLostPackets 	0
scalar IntersectionExampleScenario.node[8].nic.mac1609_4 	DroppedPacketsInMac 	0
scalar IntersectionExampleScenario.node[8].nic.mac1609_4 	TooLittleTime 	0
scalar IntersectionExampleScenario.node[8].nic.mac1609_4 	TimesIntoBackoff 	0
scalar IntersectionExampleScenario.node[8].nic.mac1609_4 	SlotsBackoff 	0
scalar IntersectionExampleScenario.node[8].nic.mac1609_4 	NumInternalContention 	0
scalar IntersectionExampleScenario.node[8].nic.mac1609_4 	totalBusyTime 	0
scalar IntersectionExampleScenario.node[8].veinsmobility 	startTime 	17.5
scalar IntersectionExampleScenario.node[8].veinsmobility 	totalTime 	66
scalar IntersectionExampleScenario.node[8].veinsmobility 	stopTime 	83.75
scalar IntersectionExampleScenario.node[8].veinsmobility 	minSpeed 	0
scalar IntersectionExampleScenario.node[8].veinsmobility 	maxSpeed 	15.865322113037
scalar IntersectionExampleScenario.node[8].veinsmobility 	totalDistance 	569.20780278631
scalar IntersectionExampleScenario.node[8].veinsmobility 	totalCO2Emission 	164.15862186177
scalar IntersectionExampleScenario.node[16].appl 	VehicleRemoved 	0
scalar IntersectionExampleScenario.node[16].appl 	ArrivedAtDest 	1
scalar IntersectionExampleScenario.node[16].appl 	IntersectionEnterTime 	29.25
scalar IntersectionExampleScenario.node[16].appl 	IntersectionExitTime 	69.846907506144
scalar IntersectionExampleScenario.node[16].appl 	NumberOfCollisions 	0
scalar IntersectionExampleScenario.node[16].nic.phy80211p 	busyTime 	0
scalar IntersectionExampleScenario.node[16].nic.mac1609_4 	ReceivedUnicastPackets 	0
scalar IntersectionExampleScenario.node[16].nic.mac1609_4 	ReceivedBroadcasts 	0
scalar IntersectionExampleScenario.node[16].nic.mac1609_4 	SentPackets 	0
scalar IntersectionExampleScenario.node[16].nic.mac1609_4 	SNIRLostPackets 	0
scalar IntersectionExampleScenario.node[16].nic.mac1609_4 	RXTXLostPackets 	0
scalar IntersectionExampleScenario.node[16].nic.mac1609_4 	TotalLostPackets 	0
scalar IntersectionExampleScenario.node[16].nic.mac1609_4 	DroppedPacketsInMac 	0
scalar IntersectionExampleScenario.node[16].nic.mac1609_4 	TooLittleTime 	0
scalar IntersectionExampleScenario.node[16].nic.mac1609_4 	TimesIntoBackoff 	0
scalar IntersectionExampleScenario.node[16].nic.mac1609_4 	SlotsBackoff 	0
scalar IntersectionExampleScenario.node[16].nic.mac1609_4 	NumInternalContention 	0
scalar IntersectionExampleScenario.node[16].nic.mac1609_4 	totalBusyTime 	0
scalar IntersectionExampleScenario.node[16].veinsmobility 	startTime 	29.25
scalar IntersectionExampleScenario.node[16].veinsmobility 	totalTime 	57.5
scalar IntersectionExampleScenario.node[16].veinsmobility 	stopTime 	87
scalar IntersectionExampleScenario.node[16].veinsmobility 	minSpeed 	0
scalar IntersectionExampleScenario.node[16].veinsmobility 	maxSpeed 	15.25
scalar IntersectionExampleScenario.node[16].veinsmobility 	totalDistance 	544.13715486365
scalar IntersectionExampleScenario.node[16].veinsmobility 	totalCO2Emission 	144.15785959293
scalar IntersectionExampleScenario.node[23].appl 	VehicleRemoved 	0
scalar IntersectionExampleScenario.node[23].appl 	ArrivedAtDest 	1
scalar IntersectionExampleScenario.node[23].appl 	IntersectionEnterTime 	48.25
scalar IntersectionExampleScenario.node[23].appl 	IntersectionExitTime 	70.251439902146
scalar IntersectionExampleScenario.node[23].appl 	NumberOfCollisions 	0
scalar IntersectionExampleScenario.node[23].nic.phy80211p 	busyTime 	0
scalar IntersectionExampleScenario.node[23].nic.mac1609_4 	ReceivedUnicastPackets 	0
scalar IntersectionExampleScenario.node[23].nic.mac1609_4 	ReceivedBroadcasts 	0
scalar IntersectionExampleScenario.node[23].nic.mac1609_4 	SentPackets 	0
scalar IntersectionExampleScenario.node[23].nic.mac1609_4 	SNIRLostPackets 	0
scalar IntersectionExampleScenario.node[23].nic.mac1609_4 	RXTXLostPackets 	0
scalar IntersectionExampleScenario.node[23].nic.mac1609_4 	TotalLostPackets 	0
scalar IntersectionExampleScenario.node[23].nic.mac1609_4 	DroppedPacketsInMac 	0
scalar IntersectionExampleScenario.node[23].nic.mac1609_4 	TooLittleTime 	0
scalar IntersectionExampleScenario.node[23].nic.mac1609_4 	TimesIntoBackoff 	0
scalar IntersectionExampleScenario.node[23].nic.mac1609_4 	SlotsBackoff 	0
scalar IntersectionExampleScenario.node[23].nic.mac1609_4 	NumInternalContention 	0
scalar IntersectionExampleScenario.node[23].nic.mac1609_4 	totalBusyTime 	0
scalar IntersectionExampleScenario.node[23].veinsmobility 	startTime 	48.25
scalar IntersectionExampleScenario.node[23].veinsmobility 	totalTime 	39
scalar IntersectionExampleScenario.node[23].veinsmobility 	stopTime 	87.5
scalar IntersectionExampleScenario.node[23].veinsmobility 	minSpeed 	5.6500000953674
scalar IntersectionExampleScenario.node[23].veinsmobility 	maxSpeed 	15.364370346069
scalar IntersectionExampleScenario.node[23].veinsmobility 	totalDistance 	513.15781261423
scalar IntersectionExampleScenario.node[23].veinsmobility 	totalCO2Emission 	130.80709642658
scalar IntersectionExampleScenario.node[17].appl 	VehicleRemoved 	0
scalar IntersectionExampleScenario.node[17].appl 	ArrivedAtDest 	1
scalar IntersectionExampleScenario.node[17].appl 	IntersectionEnterTime 	35.75
scalar IntersectionExampleScenario.node[17].appl 	IntersectionExitTime 	72.026963561977
scalar IntersectionExampleScenario.node[17].appl 	NumberOfCollisions 	0
scalar IntersectionExampleScenario.node[17].nic.phy80211p 	busyTime 	0
scalar IntersectionExampleScenario.node[17].nic.mac1609_4 	ReceivedUnicastPackets 	0
scalar IntersectionExampleScenario.node[17].nic.mac1609_4 	ReceivedBroadcasts 	0
scalar IntersectionExampleScenario.node[17].nic.mac1609_4 	SentPackets 	0
scalar IntersectionExampleScenario.node[17].nic.mac1609_4 	SNIRLostPackets 	0
scalar IntersectionExampleScenario.node[17].nic.mac1609_4 	RXTXLostPackets 	0
scalar IntersectionExampleScenario.node[17].nic.mac1609_4 	TotalLostPackets 	0
scalar IntersectionExampleScenario.node[17].nic.mac1609_4 	DroppedPacketsInMac 	0
scalar IntersectionExampleScenario.node[17].nic.mac1609_4 	TooLittleTime 	0
scalar IntersectionExampleScenario.node[17].nic.mac1609_4 	TimesIntoBackoff 	0
scalar IntersectionExampleScenario.node[17].nic.mac1609_4 	SlotsBackoff 	0
scalar IntersectionExampleScenario.node[17].nic.mac1609_4 	NumInternalContention 	0
scalar IntersectionExampleScenario.node[17].nic.mac1609_4 	totalBusyTime 	0
scalar IntersectionExampleScenario.node[17].veinsmobility 	startTime 	35.75
scalar IntersectionExampleScenario.node[17].veinsmobility 	totalTime 	52.75
scalar IntersectionExampleScenario.node[17].veinsmobility 	stopTime 	88.75
scalar IntersectionExampleScenario.node[17].veinsmobility 	minSpeed 	1.3531187772751
scalar IntersectionExampleScenario.node[17].veinsmobility 	maxSpeed 	15.714338302612
scalar IntersectionExampleScenario.node[17].veinsmobility 	totalDistance 	546.1876632123
scalar IntersectionExampleScenario.node[17].veinsmobility 	totalCO2Emission 	142.35140243366
scalar IntersectionExampleScenario.node[21].appl 	VehicleRemoved 	0
scalar IntersectionExampleScenario.node[21].appl 	ArrivedAtDest 	1
scalar IntersectionExampleScenario.node[21].appl 	IntersectionEnterTime 	46.25
scalar IntersectionExampleScenario.node[21].appl 	IntersectionExitTime 	72.538584300928
scalar IntersectionExampleScenario.node[21].appl 	NumberOfCollisions 	0
scalar IntersectionExampleScenario.node[21].nic.phy80211p 	busyTime 	0
scalar IntersectionExampleScenario.node[21].nic.mac1609_4 	ReceivedUnicastPackets 	0
scalar IntersectionExampleScenario.node[21].nic.mac1609_4 	ReceivedBroadcasts 	0
scalar IntersectionExampleScenario.node[21].nic.mac1609_4 	SentPackets 	0
scalar IntersectionExampleScenario.node[21].nic.mac1609_4 	SNIRLostPackets 	0
scalar IntersectionExampleScenario.node[21].nic.mac1609_4 	RXTXLostPackets 	0
scalar IntersectionExampleScenario.node[21].nic.mac1609_4 	TotalLostPackets 	0
scalar IntersectionExampleScenario.node[21].nic.mac1609_4 	DroppedPacketsInMac 	0
scalar IntersectionExampleScenario.node[21].nic.mac1609_4 	TooLittleTime 	0
scalar IntersectionExampleScenario.node[21].nic.mac1609_4 	TimesIntoBackoff 	0
scalar IntersectionExampleScenario.node[21].nic.mac1609_4 	SlotsBackoff 	0
scalar IntersectionExampleScenario.node[21].nic.mac1609_4 	NumInternalContention 	0
scalar IntersectionExampleScenario.node[21].nic.mac1609_4 	totalBusyTime 	0
scalar IntersectionExampleScenario.node[21].veinsmobility 	startTime 	46.25
scalar IntersectionExampleScenario.node[21].veinsmobility 	totalTime 	42.25
scalar IntersectionExampleScenario.node[21].veinsmobility 	stopTime 	88.75
scalar IntersectionExampleScenario.node[21].veinsmobility 	minSpeed 	5.6500000953674
scalar IntersectionExampleScenario.node[21].veinsmobility 	maxSpeed 	16.07957649231
scalar IntersectionExampleScenario.node[21].veinsmobility 	totalDistance 	542.90533811897
scalar IntersectionExampleScenario.node[21].veinsmobility 	totalCO2Emission 	141.49181077714
scalar IntersectionExampleScenario.node[19].appl 	VehicleRemoved 	0
scalar IntersectionExampleScenario.node[19].appl 	ArrivedAtDest 	1
scalar IntersectionExampleScenario.node[19].appl 	IntersectionEnterTime 	42.75
scalar IntersectionExampleScenario.node[19].appl 	IntersectionExitTime 	74.040808528662
scalar IntersectionExampleScenario.node[19].appl 	NumberOfCollisions 	0
scalar IntersectionExampleScenario.node[19].nic.phy80211p 	busyTime 	0
scalar IntersectionExampleScenario.node[19].nic.mac1609_4 	ReceivedUnicastPackets 	0
scalar IntersectionExampleScenario.node[19].nic.mac1609_4 	ReceivedBroadcasts 	0
scalar IntersectionExampleScenario.node[19].nic.mac1609_4 	SentPackets 	0
scalar IntersectionExampleScenario.node[19].nic.mac1609_4 	SNIRLostPackets 	0
scalar IntersectionExampleScenario.node[19].nic.mac1609_4 	RXTXLostPackets 	0
scalar IntersectionExampleScenario.node[19].nic.mac1609_4 	TotalLostPackets 	0
scalar IntersectionExampleScenario.node[19].nic.mac1609_4 	DroppedPacketsInMac 	0
scalar IntersectionExampleScenario.node[19].nic.mac1609_4 	TooLittleTime 	0
scalar IntersectionExampleScenario.node[19].nic.mac1609_4 	TimesIntoBackoff 	0
scalar IntersectionExampleScenario.node[19].nic.mac1609_4 	SlotsBackoff 	0
scalar IntersectionExampleScenario.node[19].nic.mac1609_4 	NumInternalContention 	0
scalar IntersectionExampleScenario.node[19].nic.mac1609_4 	totalBusyTime 	0
scalar IntersectionExampleScenario.node[19].veinsmobility 	startTime 	42.75
scalar IntersectionExampleScenario.node[19].veinsmobility 	totalTime 	47.25
scalar IntersectionExampleScenario.node[19].veinsmobility 	stopTime 	90.25
scalar IntersectionExampleScenario.node[19].veinsmobility 	minSpeed 	1.8501029014587
scalar IntersectionExampleScenario.node[19].veinsmobility 	maxSpeed 	15.64999961853
scalar IntersectionExampleScenario.node[19].veinsmobility 	totalDistance 	553.10959625244
scalar IntersectionExampleScenario.node[19].veinsmobility 	totalCO2Emission 	132.28948415447
scalar IntersectionExampleScenario.node[22].appl 	VehicleRemoved 	0
scalar IntersectionExampleScenario.node[22].appl 	ArrivedAtDest 	1
scalar IntersectionExampleScenario.node[22].appl 	IntersectionEnterTime 	47.5
scalar IntersectionExampleScenario.node[22].appl 	IntersectionExitTime 	74.36922824051
scalar IntersectionExampleScenario.node[22].appl 	NumberOfCollisions 	0
scalar IntersectionExampleScenario.node[22].nic.phy80211p 	busyTime 	0
scalar IntersectionExampleScenario.node[22].nic.mac1609_4 	ReceivedUnicastPackets 	0
scalar IntersectionExampleScenario.node[22].nic.mac1609_4 	ReceivedBroadcasts 	0
scalar IntersectionExampleScenario.node[22].nic.mac1609_4 	SentPackets 	0
scalar IntersectionExampleScenario.node[22].nic.mac1609_4 	SNIRLostPackets 	0
scalar IntersectionExampleScenario.node[22].nic.mac1609_4 	RXTXLostPackets 	0
scalar IntersectionExampleScenario.node[22].nic.mac1609_4 	TotalLostPackets 	0
scalar IntersectionExampleScenario.node[22].nic.mac1609_4 	DroppedPacketsInMac 	0
scalar IntersectionExampleScenario.node[22].nic.mac1609_4 	TooLittleTime 	0
scalar IntersectionExampleScenario.node[22].nic.mac1609_4 	TimesIntoBackoff 	0
scalar IntersectionExampleScenario.node[22].nic.mac1609_4 	SlotsBackoff 	0
scalar IntersectionExampleScenario.node[22].nic.mac1609_4 	NumInternalContention 	0
scalar IntersectionExampleScenario.node[22].nic.mac1609_4 	totalBusyTime 	0
scalar IntersectionExampleScenario.node[22].veinsmobility 	startTime 	47.5
scalar IntersectionExampleScenario.node[22].veinsmobility 	totalTime 	43.5
scalar IntersectionExampleScenario.node[22].veinsmobility 	stopTime 	91.25
scalar IntersectionExampleScenario.node[22].veinsmobility 	minSpeed 	5.6500000953674
scalar IntersectionExampleScenario.node[22].veinsmobility 	maxSpeed 	15.32922744751
scalar IntersectionExampleScenario.node[22].veinsmobility 	totalDistance 	566.53225754555
scalar IntersectionExampleScenario.node[22].veinsmobility 	totalCO2Emission 	127.1988757895
scalar IntersectionExampleScenario.node[25].appl 	VehicleRemoved 	0
scalar IntersectionExampleScenario.node[25].appl 	ArrivedAtDest 	1
scalar IntersectionExampleScenario.node[25].appl 	IntersectionEnterTime 	56.25
scalar IntersectionExampleScenario.node[25].appl 	IntersectionExitTime 	80.100902649167
scalar IntersectionExampleScenario.node[25].appl 	NumberOfCollisions 	0
scalar IntersectionExampleScenario.node[25].nic.phy80211p 	busyTime 	0
scalar IntersectionExampleScenario.node[25].nic.mac1609_4 	ReceivedUnicastPackets 	0
scalar IntersectionExampleScenario.node[25].nic.mac1609_4 	ReceivedBroadcasts 	0
scalar IntersectionExampleScenario.node[25].nic.mac1609_4 	SentPackets 	0
scalar IntersectionExampleScenario.node[25].nic.mac1609_4 	SNIRLostPackets 	0
scalar IntersectionExampleScenario.node[25].nic.mac1609_4 	RXTXLostPackets 	0
scalar IntersectionExampleScenario.node[25].nic.mac1609_4 	TotalLostPackets 	0
scalar IntersectionExampleScenario.node[25].nic.mac1609_4 	DroppedPacketsInMac 	0
scalar IntersectionExampleScenario.node[25].nic.mac1609_4 	TooLittleTime 	0
scalar IntersectionExampleScenario.node[25].nic.mac1609_4 	TimesIntoBackoff 	0
scalar IntersectionExampleScenario.node[25].nic.mac1609_4 	SlotsBackoff 	0
scalar IntersectionExampleScenario.node[25].nic.mac1609_4 	NumInternalContention 	0
scalar IntersectionExampleScenario.node[25].nic.mac1609_4 	totalBusyTime 	0
scalar IntersectionExampleScenario.node[25].veinsmobility 	startTime 	56.25
scalar IntersectionExampleScenario.node[25].veinsmobility 	totalTime 	40.25
scalar IntersectionExampleScenario.node[25].veinsmobility 	stopTime 	96.75
scalar IntersectionExampleScenario.node[25].veinsmobility 	minSpeed 	5.6500000953674
scalar IntersectionExampleScenario.node[25].veinsmobility 	maxSpeed 	15.375
scalar IntersectionExampleScenario.node[25].veinsmobility 	totalDistance 	548.96696047621
scalar IntersectionExampleScenario.node[25].veinsmobility 	totalCO2Emission 	121.82825763693
scalar IntersectionExampleScenario.node[27].appl 	VehicleRemoved 	0
scalar IntersectionExampleScenario.node[27].appl 	ArrivedAtDest 	1
scalar IntersectionExampleScenario.node[27].appl 	IntersectionEnterTime 	58.25
scalar IntersectionExampleScenario.node[27].appl 	IntersectionExitTime 	81.865398028109
scalar IntersectionExampleScenario.node[27].appl 	NumberOfCollisions 	0
scalar IntersectionExampleScenario.node[27].nic.phy80211p 	busyTime 	0
scalar IntersectionExampleScenario.node[27].nic.mac1609_4 	ReceivedUnicastPackets 	0
scalar IntersectionExampleScenario.node[27].nic.mac1609_4 	ReceivedBroadcasts 	0
scalar IntersectionExampleScenario.node[27].nic.mac1609_4 	SentPackets 	0
scalar IntersectionExampleScenario.node[27].nic.mac1609_4 	SNIRLostPackets 	0
scalar IntersectionExampleScenario.node[27].nic.mac1609_4 	RXTXLostPackets 	0
scalar IntersectionExampleScenario.node[27].nic.mac1609_4 	TotalLostPackets 	0
scalar IntersectionExampleScenario.node[27].nic.mac1609_4 	DroppedPacketsInMac 	0
scalar IntersectionExampleScenario.node[27].nic.mac1609_4 	TooLittleTime 	0
scalar IntersectionExampleScenario.node[27].nic.mac1609_4 	TimesIntoBackoff 	0
scalar IntersectionExampleScenario.node[27].nic.mac1609_4 	SlotsBackoff 	0
scalar IntersectionExampleScenario.node[27].nic.mac1609_4 	NumInternalContention 	0
scalar IntersectionExampleScenario.node[27].nic.mac1609_4 	totalBusyTime 	0
scalar IntersectionExampleScenario.node[27].veinsmobility 	startTime 	58.25
scalar IntersectionExampleScenario.node[27].veinsmobility 	totalTime 	40
scalar IntersectionExampleScenario.node[27].veinsmobility 	stopTime 	98.5
scalar IntersectionExampleScenario.node[27].veinsmobility 	minSpeed 	5.6500000953674
scalar IntersectionExampleScenario.node[27].veinsmobility 	maxSpeed 	15.02499961853
scalar IntersectionExampleScenario.node[27].veinsmobility 	totalDistance 	553.0140838623
scalar IntersectionExampleScenario.node[27].veinsmobility 	totalCO2Emission 	114.18256448094
scalar IntersectionExampleScenario.node[26].appl 	VehicleRemoved 	0
scalar IntersectionExampleScenario.node[26].appl 	ArrivedAtDest 	1
scalar IntersectionExampleScenario.node[26].appl 	IntersectionEnterTime 	56.75
scalar IntersectionExampleScenario.node[26].appl 	IntersectionExitTime 	82.504111191578
scalar IntersectionExampleScenario.node[26].appl 	NumberOfCollisions 	0
scalar IntersectionExampleScenario.node[26].nic.phy80211p 	busyTime 	0
scalar IntersectionExampleScenario.node[26].nic.mac1609_4 	ReceivedUnicastPackets 	0
scalar IntersectionExampleScenario.node[26].nic.mac1609_4 	ReceivedBroadcasts 	0
scalar IntersectionExampleScenario.node[26].nic.mac1609_4 	SentPackets 	0
scalar IntersectionExampleScenario.node[26].nic.mac1609_4 	SNIRLostPackets 	0
scalar IntersectionExampleScenario.node[26].nic.mac1609_4 	RXTXLostPackets 	0
scalar IntersectionExampleScenario.node[26].nic.mac1609_4 	TotalLostPackets 	0
scalar IntersectionExampleScenario.node[26].nic.mac1609_4 	DroppedPacketsInMac 	0
scalar IntersectionExampleScenario.node[26].nic.mac1609_4 	TooLittleTime 	0
scalar IntersectionExampleScenario.node[26].nic.mac1609_4 	TimesIntoBackoff 	0
scalar IntersectionExampleScenario.node[26].nic.mac1609_4 	SlotsBackoff 	0
scalar IntersectionExampleScenario.node[26].nic.mac1609_4 	NumInternalContention 	0
scalar IntersectionExampleScenario.node[26].nic.mac1609_4 	totalBusyTime 	0
scalar IntersectionExampleScenario.node[26].veinsmobility 	startTime 	56.75
scalar IntersectionExampleScenario.node[26].veinsmobility 	totalTime 	42.75
scalar IntersectionExampleScenario.node[26].veinsmobility 	stopTime 	99.75
scalar IntersectionExampleScenario.node[26].veinsmobility 	minSpeed 	5.6500000953674
scalar IntersectionExampleScenario.node[26].veinsmobility 	maxSpeed 	15.25
scalar IntersectionExampleScenario.node[26].veinsmobility 	totalDistance 	568.96541897908
scalar IntersectionExampleScenario.node[26].veinsmobility 	totalCO2Emission 	132.30175823375
scalar IntersectionExampleScenario.node[28].appl 	VehicleRemoved 	0
scalar IntersectionExampleScenario.node[28].appl 	ArrivedAtDest 	1
scalar IntersectionExampleScenario.node[28].appl 	IntersectionEnterTime 	61
scalar IntersectionExampleScenario.node[28].appl 	IntersectionExitTime 	86.005843378487
scalar IntersectionExampleScenario.node[28].appl 	NumberOfCollisions 	0
scalar IntersectionExampleScenario.node[28].nic.phy80211p 	busyTime 	0
scalar IntersectionExampleScenario.node[28].nic.mac1609_4 	ReceivedUnicastPackets 	0
scalar IntersectionExampleScenario.node[28].nic.mac1609_4 	ReceivedBroadcasts 	0
scalar IntersectionExampleScenario.node[28].nic.mac1609_4 	SentPackets 	0
scalar IntersectionExampleScenario.node[28].nic.mac1609_4 	SNIRLostPackets 	0
scalar IntersectionExampleScenario.node[28].nic.mac1609_4 	RXTXLostPackets 	0
scalar IntersectionExampleScenario.node[28].nic.mac1609_4 	TotalLostPackets 	0
scalar IntersectionExampleScenario.node[28].nic.mac1609_4 	DroppedPacketsInMac 	0
scalar IntersectionExampleScenario.node[28].nic.mac1609_4 	TooLittleTime 	0
scalar IntersectionExampleScenario.node[28].nic.mac1609_4 	TimesIntoBackoff 	0
scalar IntersectionExampleScenario.node[28].nic.mac1609_4 	SlotsBackoff 	0
scalar IntersectionExampleScenario.node[28].nic.mac1609_4 	NumInternalContention 	0
scalar IntersectionExampleScenario.node[28].nic.mac1609_4 	totalBusyTime 	0
scalar IntersectionExampleScenario.node[28].veinsmobility 	startTime 	61
scalar IntersectionExampleScenario.node[28].veinsmobility 	totalTime 	42
scalar IntersectionExampleScenario.node[28].veinsmobility 	stopTime 	103.25
scalar IntersectionExampleScenario.node[28].veinsmobility 	minSpeed 	5.6500000953674
scalar IntersectionExampleScenario.node[28].veinsmobility 	maxSpeed 	15.253868103027
scalar IntersectionExampleScenario.node[28].veinsmobility 	totalDistance 	563.61778118078
scalar IntersectionExampleScenario.node[28].veinsmobility 	totalCO2Emission 	126.51224120113
scalar IntersectionExampleScenario.node[30].appl 	VehicleRemoved 	0
scalar IntersectionExampleScenario.node[30].appl 	ArrivedAtDest 	1
scalar IntersectionExampleScenario.node[30].appl 	IntersectionEnterTime 	66.75
scalar IntersectionExampleScenario.node[30].appl 	IntersectionExitTime 	89.365422983246
scalar IntersectionExampleScenario.node[30].appl 	NumberOfCollisions 	0
scalar IntersectionExampleScenario.node[30].nic.phy80211p 	busyTime 	0
scalar IntersectionExampleScenario.node[30].nic.mac1609_4 	ReceivedUnicastPackets 	0
scalar IntersectionExampleScenario.node[30].nic.mac1609_4 	ReceivedBroadcasts 	0
scalar IntersectionExampleScenario.node[30].nic.mac1609_4 	SentPackets 	0
scalar IntersectionExampleScenario.node[30].nic.mac1609_4 	SNIRLostPackets 	0
scalar IntersectionExampleScenario.node[30].nic.mac1609_4 	RXTXLostPackets 	0
scalar IntersectionExampleScenario.node[30].nic.mac1609_4 	TotalLostPackets 	0
scalar IntersectionExampleScenario.node[30].nic.mac1609_4 	DroppedPacketsInMac 	0
scalar IntersectionExampleScenario.node[30].nic.mac1609_4 	TooLittleTime 	0
scalar IntersectionExampleScenario.node[30].nic.mac1609_4 	TimesIntoBackoff 	0
scalar IntersectionExampleScenario.node[30].nic.mac1609_4 	SlotsBackoff 	0
scalar IntersectionExampleScenario.node[30].nic.mac1609_4 	NumInternalContention 	0
scalar IntersectionExampleScenario.node[30].nic.mac1609_4 	totalBusyTime 	0
scalar IntersectionExampleScenario.node[30].veinsmobility 	startTime 	66.75
scalar IntersectionExampleScenario.node[30].veinsmobility 	totalTime 	38.25
scalar IntersectionExampleScenario.node[30].veinsmobility 	stopTime 	105.25
scalar IntersectionExampleScenario.node[30].veinsmobility 	minSpeed 	5.6500000953674
scalar IntersectionExampleScenario.node[30].veinsmobility 	maxSpeed 	15.64999961853
scalar IntersectionExampleScenario.node[30].veinsmobility 	totalDistance 	554.06867980957
scalar IntersectionExampleScenario.node[30].veinsmobility 	totalCO2Emission 	119.78413510097
scalar IntersectionExampleScenario.node[32].appl 	VehicleRemoved 	0
scalar IntersectionExampleScenario.node[32].appl 	ArrivedAtDest 	1
scalar IntersectionExampleScenario.node[32].appl 	IntersectionEnterTime 	72
scalar IntersectionExampleScenario.node[32].appl 	IntersectionExitTime 	94.834232507885
scalar IntersectionExampleScenario.node[32].appl 	NumberOfCollisions 	0
scalar IntersectionExampleScenario.node[32].nic.phy80211p 	busyTime 	0
scalar IntersectionExampleScenario.node[32].nic.mac1609_4 	ReceivedUnicastPackets 	0
scalar IntersectionExampleScenario.node[32].nic.mac1609_4 	ReceivedBroadcasts 	0
scalar IntersectionExampleScenario.node[32].nic.mac1609_4 	SentPackets 	0
scalar IntersectionExampleScenario.node[32].nic.mac1609_4 	SNIRLostPackets 	0
scalar IntersectionExampleScenario.node[32].nic.mac1609_4 	RXTXLostPackets 	0
scalar IntersectionExampleScenario.node[32].nic.mac1609_4 	TotalLostPackets 	0
scalar IntersectionExampleScenario.node[32].nic.mac1609_4 	DroppedPacketsInMac 	0
scalar IntersectionExampleScenario.node[32].nic.mac1609_4 	TooLittleTime 	0
scalar IntersectionExampleScenario.node[32].nic.mac1609_4 	TimesIntoBackoff 	0
scalar IntersectionExampleScenario.node[32].nic.mac1609_4 	SlotsBackoff 	0
scalar IntersectionExampleScenario.node[32].nic.mac1609_4 	NumInternalContention 	0
scalar IntersectionExampleScenario.node[32].nic.mac1609_4 	totalBusyTime 	0
scalar IntersectionExampleScenario.node[32].veinsmobility 	startTime 	72
scalar IntersectionExampleScenario.node[32].veinsmobility 	totalTime 	38.75
scalar IntersectionExampleScenario.node[32].veinsmobility 	stopTime 	111
scalar IntersectionExampleScenario.node[32].veinsmobility 	minSpeed 	5.6500000953674
scalar IntersectionExampleScenario.node[32].veinsmobility 	maxSpeed 	16.5
scalar IntersectionExampleScenario.node[32].veinsmobility 	totalDistance 	544.68046467393
scalar IntersectionExampleScenario.node[32].veinsmobility 	totalCO2Emission 	131.82690281064
scalar IntersectionExampleScenario.node[33].appl 	VehicleRemoved 	0
scalar IntersectionExampleScenario.node[33].appl 	ArrivedAtDest 	1
scalar IntersectionExampleScenario.node[33].appl 	IntersectionEnterTime 	76.75
scalar IntersectionExampleScenario.node[33].appl 	IntersectionExitTime 	99.079178471904
scalar IntersectionExampleScenario.node[33].appl 	NumberOfCollisions 	0
scalar IntersectionExampleScenario.node[33].nic.phy80211p 	busyTime 	0
scalar IntersectionExampleScenario.node[33].nic.mac1609_4 	ReceivedUnicastPackets 	0
scalar IntersectionExampleScenario.node[33].nic.mac1609_4 	ReceivedBroadcasts 	0
scalar IntersectionExampleScenario.node[33].nic.mac1609_4 	SentPackets 	0
scalar IntersectionExampleScenario.node[33].nic.mac1609_4 	SNIRLostPackets 	0
scalar IntersectionExampleScenario.node[33].nic.mac1609_4 	RXTXLostPackets 	0
scalar IntersectionExampleScenario.node[33].nic.mac1609_4 	TotalLostPackets 	0
scalar IntersectionExampleScenario.node[33].nic.mac1609_4 	DroppedPacketsInMac 	0
scalar IntersectionExampleScenario.node[33].nic.mac1609_4 	TooLittleTime 	0
scalar IntersectionExampleScenario.node[33].nic.mac1609_4 	TimesIntoBackoff 	0
scalar IntersectionExampleScenario.node[33].nic.mac1609_4 	SlotsBackoff 	0
scalar IntersectionExampleScenario.node[33].nic.mac1609_4 	NumInternalContention 	0
scalar IntersectionExampleScenario.node[33].nic.mac1609_4 	totalBusyTime 	0
scalar IntersectionExampleScenario.node[33].veinsmobility 	startTime 	76.75
scalar IntersectionExampleScenario.node[33].veinsmobility 	totalTime 	37.5
scalar IntersectionExampleScenario.node[33].veinsmobility 	stopTime 	114.5
scalar IntersectionExampleScenario.node[33].veinsmobility 	minSpeed 	5.6500000953674
scalar IntersectionExampleScenario.node[33].veinsmobility 	maxSpeed 	16.27499961853
scalar IntersectionExampleScenario.node[33].veinsmobility 	totalDistance 	552.5784072876
scalar IntersectionExampleScenario.node[33].veinsmobility 	totalCO2Emission 	122.57634690121
scalar IntersectionExampleScenario.node[20].appl 	VehicleRemoved 	0
scalar IntersectionExampleScenario.node[20].appl 	ArrivedAtDest 	1
scalar IntersectionExampleScenario.node[20].appl 	IntersectionEnterTime 	43.5
scalar IntersectionExampleScenario.node[20].appl 	IntersectionExitTime 	101.59030508067
scalar IntersectionExampleScenario.node[20].appl 	NumberOfCollisions 	0
scalar IntersectionExampleScenario.node[20].nic.phy80211p 	busyTime 	0
scalar IntersectionExampleScenario.node[20].nic.mac1609_4 	ReceivedUnicastPackets 	0
scalar IntersectionExampleScenario.node[20].nic.mac1609_4 	ReceivedBroadcasts 	0
scalar IntersectionExampleScenario.node[20].nic.mac1609_4 	SentPackets 	0
scalar IntersectionExampleScenario.node[20].nic.mac1609_4 	SNIRLostPackets 	0
scalar IntersectionExampleScenario.node[20].nic.mac1609_4 	RXTXLostPackets 	0
scalar IntersectionExampleScenario.node[20].nic.mac1609_4 	TotalLostPackets 	0
scalar IntersectionExampleScenario.node[20].nic.mac1609_4 	DroppedPacketsInMac 	0
scalar IntersectionExampleScenario.node[20].nic.mac1609_4 	TooLittleTime 	0
scalar IntersectionExampleScenario.node[20].nic.mac1609_4 	TimesIntoBackoff 	0
scalar IntersectionExampleScenario.node[20].nic.mac1609_4 	SlotsBackoff 	0
scalar IntersectionExampleScenario.node[20].nic.mac1609_4 	NumInternalContention 	0
scalar IntersectionExampleScenario.node[20].nic.mac1609_4 	totalBusyTime 	0
scalar IntersectionExampleScenario.node[20].veinsmobility 	startTime 	43.5
scalar IntersectionExampleScenario.node[20].veinsmobility 	totalTime 	75.25
scalar IntersectionExampleScenario.node[20].veinsmobility 	stopTime 	119
scalar IntersectionExampleScenario.node[20].veinsmobility 	minSpeed 	0
scalar IntersectionExampleScenario.node[20].veinsmobility 	maxSpeed 	15.25
scalar IntersectionExampleScenario.node[20].veinsmobility 	totalDistance 	546.54975034148
scalar IntersectionExampleScenario.node[20].veinsmobility 	totalCO2Emission 	163.72486058302
scalar IntersectionExampleScenario.node[24].appl 	VehicleRemoved 	0
scalar IntersectionExampleScenario.node[24].appl 	ArrivedAtDest 	1
scalar IntersectionExampleScenario.node[24].appl 	IntersectionEnterTime 	51.25
scalar IntersectionExampleScenario.node[24].appl 	IntersectionExitTime 	101.60879960077
scalar IntersectionExampleScenario.node[24].appl 	NumberOfCollisions 	0
scalar IntersectionExampleScenario.node[24].nic.phy80211p 	busyTime 	0
scalar IntersectionExampleScenario.node[24].nic.mac1609_4 	ReceivedUnicastPackets 	0
scalar IntersectionExampleScenario.node[24].nic.mac1609_4 	ReceivedBroadcasts 	0
scalar IntersectionExampleScenario.node[24].nic.mac1609_4 	SentPackets 	0
scalar IntersectionExampleScenario.node[24].nic.mac1609_4 	SNIRLostPackets 	0
scalar IntersectionExampleScenario.node[24].nic.mac1609_4 	RXTXLostPackets 	0
scalar IntersectionExampleScenario.node[24].nic.mac1609_4 	TotalLostPackets 	0
scalar IntersectionExampleScenario.node[24].nic.mac1609_4 	DroppedPacketsInMac 	0
scalar IntersectionExampleScenario.node[24].nic.mac1609_4 	TooLittleTime 	0
scalar IntersectionExampleScenario.node[24].nic.mac1609_4 	TimesIntoBackoff 	0
scalar IntersectionExampleScenario.node[24].nic.mac1609_4 	SlotsBackoff 	0
scalar IntersectionExampleScenario.node[24].nic.mac1609_4 	NumInternalContention 	0
scalar IntersectionExampleScenario.node[24].nic.mac1609_4 	totalBusyTime 	0
scalar IntersectionExampleScenario.node[24].veinsmobility 	startTime 	51.25
scalar IntersectionExampleScenario.node[24].veinsmobility 	totalTime 	68
scalar IntersectionExampleScenario.node[24].veinsmobility 	stopTime 	119.5
scalar IntersectionExampleScenario.node[24].veinsmobility 	minSpeed 	0
scalar IntersectionExampleScenario.node[24].veinsmobility 	maxSpeed 	14.625
scalar IntersectionExampleScenario.node[24].veinsmobility 	totalDistance 	545.78262235076
scalar IntersectionExampleScenario.node[24].veinsmobility 	totalCO2Emission 	152.0090647813
scalar IntersectionExampleScenario.node[35].appl 	VehicleRemoved 	0
scalar IntersectionExampleScenario.node[35].appl 	ArrivedAtDest 	1
scalar IntersectionExampleScenario.node[35].appl 	IntersectionEnterTime 	79
scalar IntersectionExampleScenario.node[35].appl 	IntersectionExitTime 	104.57729920192
scalar IntersectionExampleScenario.node[35].appl 	NumberOfCollisions 	0
scalar IntersectionExampleScenario.node[35].nic.phy80211p 	busyTime 	0
scalar IntersectionExampleScenario.node[35].nic.mac1609_4 	ReceivedUnicastPackets 	0
scalar IntersectionExampleScenario.node[35].nic.mac1609_4 	ReceivedBroadcasts 	0
scalar IntersectionExampleScenario.node[35].nic.mac1609_4 	SentPackets 	0
scalar IntersectionExampleScenario.node[35].nic.mac1609_4 	SNIRLostPackets 	0
scalar IntersectionExampleScenario.node[35].nic.mac1609_4 	RXTXLostPackets 	0
scalar IntersectionExampleScenario.node[35].nic.mac1609_4 	TotalLostPackets 	0
scalar IntersectionExampleScenario.node[35].nic.mac1609_4 	DroppedPacketsInMac 	0
scalar IntersectionExampleScenario.node[35].nic.mac1609_4 	TooLittleTime 	0
scalar IntersectionExampleScenario.node[35].nic.mac1609_4 	TimesIntoBackoff 	0
scalar IntersectionExampleScenario.node[35].nic.mac1609_4 	SlotsBackoff 	0
scalar IntersectionExampleScenario.node[35].nic.mac1609_4 	NumInternalContention 	0
scalar IntersectionExampleScenario.node[35].nic.mac1609_4 	totalBusyTime 	0
scalar IntersectionExampleScenario.node[35].veinsmobility 	startTime 	79
scalar IntersectionExampleScenario.node[35].veinsmobility 	totalTime 	41.25
scalar IntersectionExampleScenario.node[35].veinsmobility 	stopTime 	120.5
scalar IntersectionExampleScenario.node[35].veinsmobility 	minSpeed 	5.6500000953674
scalar IntersectionExampleScenario.node[35].veinsmobility 	maxSpeed 	15.64999961853
scalar IntersectionExampleScenario.node[35].veinsmobility 	totalDistance 	551.45890045166
scalar IntersectionExampleScenario.node[35].veinsmobility 	totalCO2Emission 	133.07261202148
scalar IntersectionExampleScenario.node[29].appl 	VehicleRemoved 	0
scalar IntersectionExampleScenario.node[29].appl 	ArrivedAtDest 	1
scalar IntersectionExampleScenario.node[29].appl 	IntersectionEnterTime 	63.75
scalar IntersectionExampleScenario.node[29].appl 	IntersectionExitTime 	103.79922826227
scalar IntersectionExampleScenario.node[29].appl 	NumberOfCollisions 	0
scalar IntersectionExampleScenario.node[29].nic.phy80211p 	busyTime 	0
scalar IntersectionExampleScenario.node[29].nic.mac1609_4 	ReceivedUnicastPackets 	0
scalar IntersectionExampleScenario.node[29].nic.mac1609_4 	ReceivedBroadcasts 	0
scalar IntersectionExampleScenario.node[29].nic.mac1609_4 	SentPackets 	0
scalar IntersectionExampleScenario.node[29].nic.mac1609_4 	SNIRLostPackets 	0
scalar IntersectionExampleScenario.node[29].nic.mac1609_4 	RXTXLostPackets 	0
scalar IntersectionExampleScenario.node[29].nic.mac1609_4 	TotalLostPackets 	0
scalar IntersectionExampleScenario.node[29].nic.mac1609_4 	DroppedPacketsInMac 	0
scalar IntersectionExampleScenario.node[29].nic.mac1609_4 	TooLittleTime 	0
scalar IntersectionExampleScenario.node[29].nic.mac1609_4 	TimesIntoBackoff 	0
scalar IntersectionExampleScenario.node[29].nic.mac1609_4 	SlotsBackoff 	0
scalar IntersectionExampleScenario.node[29].nic.mac1609_4 	NumInternalContention 	0
scalar IntersectionExampleScenario.node[29].nic.mac1609_4 	totalBusyTime 	0
scalar IntersectionExampleScenario.node[29].veinsmobility 	startTime 	63.75
scalar IntersectionExampleScenario.node[29].veinsmobility 	totalTime 	56.5
scalar IntersectionExampleScenario.node[29].veinsmobility 	stopTime 	120.5
scalar IntersectionExampleScenario.node[29].veinsmobility 	minSpeed 	0
scalar IntersectionExampleScenario.node[29].veinsmobility 	maxSpeed 	16.27499961853
scalar IntersectionExampleScenario.node[29].veinsmobility 	totalDistance 	549.63253876389
scalar IntersectionExampleScenario.node[29].veinsmobility 	totalCO2Emission 	151.37337223219
scalar IntersectionExampleScenario.node[31].appl 	VehicleRemoved 	0
scalar IntersectionExampleScenario.node[31].appl 	ArrivedAtDest 	1
scalar IntersectionExampleScenario.node[31].appl 	IntersectionEnterTime 	70.25
scalar IntersectionExampleScenario.node[31].appl 	IntersectionExitTime 	105.5095262886
scalar IntersectionExampleScenario.node[31].appl 	NumberOfCollisions 	0
scalar IntersectionExampleScenario.node[31].nic.phy80211p 	busyTime 	0
scalar IntersectionExampleScenario.node[31].nic.mac1609_4 	ReceivedUnicastPackets 	0
scalar IntersectionExampleScenario.node[31].nic.mac1609_4 	ReceivedBroadcasts 	0
scalar IntersectionExampleScenario.node[31].nic.mac1609_4 	SentPackets 	0
scalar IntersectionExampleScenario.node[31].nic.mac1609_4 	SNIRLostPackets 	0
scalar IntersectionExampleScenario.node[31].nic.mac1609_4 	RXTXLostPackets 	0
scalar IntersectionExampleScenario.node[31].nic.mac1609_4 	TotalLostPackets 	0
scalar IntersectionExampleScenario.node[31].nic.mac1609_4 	DroppedPacketsInMac 	0
scalar IntersectionExampleScenario.node[31].nic.mac1609_4 	TooLittleTime 	0
scalar IntersectionExampleScenario.node[31].nic.mac1609_4 	TimesIntoBackoff 	0
scalar IntersectionExampleScenario.node[31].nic.mac1609_4 	SlotsBackoff 	0
scalar IntersectionExampleScenario.node[31].nic.mac1609_4 	NumInternalContention 	0
scalar IntersectionExampleScenario.node[31].nic.mac1609_4 	totalBusyTime 	0
scalar IntersectionExampleScenario.node[31].veinsmobility 	startTime 	70.25
scalar IntersectionExampleScenario.node[31].veinsmobility 	totalTime 	51.75
scalar IntersectionExampleScenario.node[31].veinsmobility 	stopTime 	122.25
scalar IntersectionExampleScenario.node[31].veinsmobility 	minSpeed 	1.4165734052658
scalar IntersectionExampleScenario.node[31].veinsmobility 	maxSpeed 	15.64999961853
scalar IntersectionExampleScenario.node[31].veinsmobility 	totalDistance 	545.75834044035
scalar IntersectionExampleScenario.node[31].veinsmobility 	totalCO2Emission 	143.22429238463
scalar IntersectionExampleScenario.node[36].appl 	VehicleRemoved 	0
scalar IntersectionExampleScenario.node[36].appl 	ArrivedAtDest 	1
scalar IntersectionExampleScenario.node[36].appl 	IntersectionEnterTime 	80.5
scalar IntersectionExampleScenario.node[36].appl 	IntersectionExitTime 	106.83131287163
scalar IntersectionExampleScenario.node[36].appl 	NumberOfCollisions 	0
scalar IntersectionExampleScenario.node[36].nic.phy80211p 	busyTime 	0
scalar IntersectionExampleScenario.node[36].nic.mac1609_4 	ReceivedUnicastPackets 	0
scalar IntersectionExampleScenario.node[36].nic.mac1609_4 	ReceivedBroadcasts 	0
scalar IntersectionExampleScenario.node[36].nic.mac1609_4 	SentPackets 	0
scalar IntersectionExampleScenario.node[36].nic.mac1609_4 	SNIRLostPackets 	0
scalar IntersectionExampleScenario.node[36].nic.mac1609_4 	RXTXLostPackets 	0
scalar IntersectionExampleScenario.node[36].nic.mac1609_4 	TotalLostPackets 	0
scalar IntersectionExampleScenario.node[36].nic.mac1609_4 	DroppedPacketsInMac 	0
scalar IntersectionExampleScenario.node[36].nic.mac1609_4 	TooLittleTime 	0
scalar IntersectionExampleScenario.node[36].nic.mac1609_4 	TimesIntoBackoff 	0
scalar IntersectionExampleScenario.node[36].nic.mac1609_4 	SlotsBackoff 	0
scalar IntersectionExampleScenario.node[36].nic.mac1609_4 	NumInternalContention 	0
scalar IntersectionExampleScenario.node[36].nic.mac1609_4 	totalBusyTime 	0
scalar IntersectionExampleScenario.node[36].veinsmobility 	startTime 	80.5
scalar IntersectionExampleScenario.node[36].veinsmobility 	totalTime 	42.25
scalar IntersectionExampleScenario.node[36].veinsmobility 	stopTime 	123
scalar IntersectionExampleScenario.node[36].veinsmobility 	minSpeed 	5.6500000953674
scalar IntersectionExampleScenario.node[36].veinsmobility 	maxSpeed 	15.64999961853
scalar IntersectionExampleScenario.node[36].veinsmobility 	totalDistance 	573.6696472168
scalar IntersectionExampleScenario.node[36].veinsmobility 	totalCO2Emission 	135.5356010003
scalar IntersectionExampleScenario.node[37].appl 	VehicleRemoved 	0
scalar IntersectionExampleScenario.node[37].appl 	ArrivedAtDest 	1
scalar IntersectionExampleScenario.node[37].appl 	IntersectionEnterTime 	82.5
scalar IntersectionExampleScenario.node[37].appl 	IntersectionExitTime 	108.04545754578
scalar IntersectionExampleScenario.node[37].appl 	NumberOfCollisions 	0
scalar IntersectionExampleScenario.node[37].nic.phy80211p 	busyTime 	0
scalar IntersectionExampleScenario.node[37].nic.mac1609_4 	ReceivedUnicastPackets 	0
scalar IntersectionExampleScenario.node[37].nic.mac1609_4 	ReceivedBroadcasts 	0
scalar IntersectionExampleScenario.node[37].nic.mac1609_4 	SentPackets 	0
scalar IntersectionExampleScenario.node[37].nic.mac1609_4 	SNIRLostPackets 	0
scalar IntersectionExampleScenario.node[37].nic.mac1609_4 	RXTXLostPackets 	0
scalar IntersectionExampleScenario.node[37].nic.mac1609_4 	TotalLostPackets 	0
scalar IntersectionExampleScenario.node[37].nic.mac1609_4 	DroppedPacketsInMac 	0
scalar IntersectionExampleScenario.node[37].nic.mac1609_4 	TooLittleTime 	0
scalar IntersectionExampleScenario.node[37].nic.mac1609_4 	TimesIntoBackoff 	0
scalar IntersectionExampleScenario.node[37].nic.mac1609_4 	SlotsBackoff 	0
scalar IntersectionExampleScenario.node[37].nic.mac1609_4 	NumInternalContention 	0
scalar IntersectionExampleScenario.node[37].nic.mac1609_4 	totalBusyTime 	0
scalar IntersectionExampleScenario.node[37].veinsmobility 	startTime 	82.5
scalar IntersectionExampleScenario.node[37].veinsmobility 	totalTime 	41.5
scalar IntersectionExampleScenario.node[37].veinsmobility 	stopTime 	124.25
scalar IntersectionExampleScenario.node[37].veinsmobility 	minSpeed 	5.6500000953674
scalar IntersectionExampleScenario.node[37].veinsmobility 	maxSpeed 	16
scalar IntersectionExampleScenario.node[37].veinsmobility 	totalDistance 	551.12035686652
scalar IntersectionExampleScenario.node[37].veinsmobility 	totalCO2Emission 	136.6491087919
scalar IntersectionExampleScenario.node[40].appl 	VehicleRemoved 	0
scalar IntersectionExampleScenario.node[40].appl 	ArrivedAtDest 	1
scalar IntersectionExampleScenario.node[40].appl 	IntersectionEnterTime 	92.75
scalar IntersectionExampleScenario.node[40].appl 	IntersectionExitTime 	115.03385243044
scalar IntersectionExampleScenario.node[40].appl 	NumberOfCollisions 	0
scalar IntersectionExampleScenario.node[40].nic.phy80211p 	busyTime 	0
scalar IntersectionExampleScenario.node[40].nic.mac1609_4 	ReceivedUnicastPackets 	0
scalar IntersectionExampleScenario.node[40].nic.mac1609_4 	ReceivedBroadcasts 	0
scalar IntersectionExampleScenario.node[40].nic.mac1609_4 	SentPackets 	0
scalar IntersectionExampleScenario.node[40].nic.mac1609_4 	SNIRLostPackets 	0
scalar IntersectionExampleScenario.node[40].nic.mac1609_4 	RXTXLostPackets 	0
scalar IntersectionExampleScenario.node[40].nic.mac1609_4 	TotalLostPackets 	0
scalar IntersectionExampleScenario.node[40].nic.mac1609_4 	DroppedPacketsInMac 	0
scalar IntersectionExampleScenario.node[40].nic.mac1609_4 	TooLittleTime 	0
scalar IntersectionExampleScenario.node[40].nic.mac1609_4 	TimesIntoBackoff 	0
scalar IntersectionExampleScenario.node[40].nic.mac1609_4 	SlotsBackoff 	0
scalar IntersectionExampleScenario.node[40].nic.mac1609_4 	NumInternalContention 	0
scalar IntersectionExampleScenario.node[40].nic.mac1609_4 	totalBusyTime 	0
scalar IntersectionExampleScenario.node[40].veinsmobility 	startTime 	92.75
scalar IntersectionExampleScenario.node[40].veinsmobility 	totalTime 	37.5
scalar IntersectionExampleScenario.node[40].veinsmobility 	stopTime 	130.5
scalar IntersectionExampleScenario.node[40].veinsmobility 	minSpeed 	5.6500000953674
scalar IntersectionExampleScenario.node[40].veinsmobility 	maxSpeed 	16.27499961853
scalar IntersectionExampleScenario.node[40].veinsmobility 	totalDistance 	552.49192047119
scalar IntersectionExampleScenario.node[40].veinsmobility 	totalCO2Emission 	122.26374622893
scalar IntersectionExampleScenario.node[41].appl 	VehicleRemoved 	0
scalar IntersectionExampleScenario.node[41].appl 	ArrivedAtDest 	1
scalar IntersectionExampleScenario.node[41].appl 	IntersectionEnterTime 	97
scalar IntersectionExampleScenario.node[41].appl 	IntersectionExitTime 	120.54983979292
scalar IntersectionExampleScenario.node[41].appl 	NumberOfCollisions 	0
scalar IntersectionExampleScenario.node[41].nic.phy80211p 	busyTime 	0
scalar IntersectionExampleScenario.node[41].nic.mac1609_4 	ReceivedUnicastPackets 	0
scalar IntersectionExampleScenario.node[41].nic.mac1609_4 	ReceivedBroadcasts 	0
scalar IntersectionExampleScenario.node[41].nic.mac1609_4 	SentPackets 	0
scalar IntersectionExampleScenario.node[41].nic.mac1609_4 	SNIRLostPackets 	0
scalar IntersectionExampleScenario.node[41].nic.mac1609_4 	RXTXLostPackets 	0
scalar IntersectionExampleScenario.node[41].nic.mac1609_4 	TotalLostPackets 	0
scalar IntersectionExampleScenario.node[41].nic.mac1609_4 	DroppedPacketsInMac 	0
scalar IntersectionExampleScenario.node[41].nic.mac1609_4 	TooLittleTime 	0
scalar IntersectionExampleScenario.node[41].nic.mac1609_4 	TimesIntoBackoff 	0
scalar IntersectionExampleScenario.node[41].nic.mac1609_4 	SlotsBackoff 	0
scalar IntersectionExampleScenario.node[41].nic.mac1609_4 	NumInternalContention 	0
scalar IntersectionExampleScenario.node[41].nic.mac1609_4 	totalBusyTime 	0
scalar IntersectionExampleScenario.node[41].veinsmobility 	startTime 	97
scalar IntersectionExampleScenario.node[41].veinsmobility 	totalTime 	40.25
scalar IntersectionExampleScenario.node[41].veinsmobility 	stopTime 	137.5
scalar IntersectionExampleScenario.node[41].veinsmobility 	minSpeed 	5.6500000953674
scalar IntersectionExampleScenario.node[41].veinsmobility 	maxSpeed 	15.64999961853
scalar IntersectionExampleScenario.node[41].veinsmobility 	totalDistance 	545.75190453812
scalar IntersectionExampleScenario.node[41].veinsmobility 	totalCO2Emission 	126.65527315578
scalar IntersectionExampleScenario.node[34].appl 	VehicleRemoved 	0
scalar IntersectionExampleScenario.node[34].appl 	ArrivedAtDest 	1
scalar IntersectionExampleScenario.node[34].appl 	IntersectionEnterTime 	78
scalar IntersectionExampleScenario.node[34].appl 	IntersectionExitTime 	127.60653539101
scalar IntersectionExampleScenario.node[34].appl 	NumberOfCollisions 	0
scalar IntersectionExampleScenario.node[34].nic.phy80211p 	busyTime 	0
scalar IntersectionExampleScenario.node[34].nic.mac1609_4 	ReceivedUnicastPackets 	0
scalar IntersectionExampleScenario.node[34].nic.mac1609_4 	ReceivedBroadcasts 	0
scalar IntersectionExampleScenario.node[34].nic.mac1609_4 	SentPackets 	0
scalar IntersectionExampleScenario.node[34].nic.mac1609_4 	SNIRLostPackets 	0
scalar IntersectionExampleScenario.node[34].nic.mac1609_4 	RXTXLostPackets 	0
scalar IntersectionExampleScenario.node[34].nic.mac1609_4 	TotalLostPackets 	0
scalar IntersectionExampleScenario.node[34].nic.mac1609_4 	DroppedPacketsInMac 	0
scalar IntersectionExampleScenario.node[34].nic.mac1609_4 	TooLittleTime 	0
[...]
scalar IntersectionExampleScenario.node[783].veinsmobility 	totalCO2Emission 	54.823689495193
scalar IntersectionExampleScenario.node[784].appl 	VehicleRemoved 	0
scalar IntersectionExampleScenario.node[784].appl 	ArrivedAtDest 	0
scalar IntersectionExampleScenario.node[784].appl 	IntersectionEnterTime 	1781.5
scalar IntersectionExampleScenario.node[784].appl 	IntersectionExitTime 	-1
scalar IntersectionExampleScenario.node[784].appl 	NumberOfCollisions 	0
scalar IntersectionExampleScenario.node[784].nic.phy80211p 	busyTime 	0
scalar IntersectionExampleScenario.node[784].nic.mac1609_4 	ReceivedUnicastPackets 	0
scalar IntersectionExampleScenario.node[784].nic.mac1609_4 	ReceivedBroadcasts 	0
scalar IntersectionExampleScenario.node[784].nic.mac1609_4 	SentPackets 	0
scalar IntersectionExampleScenario.node[784].nic.mac1609_4 	SNIRLostPackets 	0
scalar IntersectionExampleScenario.node[784].nic.mac1609_4 	RXTXLostPackets 	0
scalar IntersectionExampleScenario.node[784].nic.mac1609_4 	TotalLostPackets 	0
scalar IntersectionExampleScenario.node[784].nic.mac1609_4 	DroppedPacketsInMac 	0
scalar IntersectionExampleScenario.node[784].nic.mac1609_4 	TooLittleTime 	0
scalar IntersectionExampleScenario.node[784].nic.mac1609_4 	TimesIntoBackoff 	0
scalar IntersectionExampleScenario.node[784].nic.mac1609_4 	SlotsBackoff 	0
scalar IntersectionExampleScenario.node[784].nic.mac1609_4 	NumInternalContention 	0
scalar IntersectionExampleScenario.node[784].nic.mac1609_4 	totalBusyTime 	0
scalar IntersectionExampleScenario.node[784].veinsmobility 	startTime 	1781.5
scalar IntersectionExampleScenario.node[784].veinsmobility 	totalTime 	18.5
scalar IntersectionExampleScenario.node[784].veinsmobility 	stopTime 	1800
scalar IntersectionExampleScenario.node[784].veinsmobility 	minSpeed 	5.6500000953674
scalar IntersectionExampleScenario.node[784].veinsmobility 	maxSpeed 	15.02499961853
scalar IntersectionExampleScenario.node[784].veinsmobility 	totalDistance 	240.07968139648
scalar IntersectionExampleScenario.node[784].veinsmobility 	totalCO2Emission 	60.383334279023
scalar IntersectionExampleScenario.node[785].appl 	VehicleRemoved 	0
scalar IntersectionExampleScenario.node[785].appl 	ArrivedAtDest 	0
scalar IntersectionExampleScenario.node[785].appl 	IntersectionEnterTime 	1784.25
scalar IntersectionExampleScenario.node[785].appl 	IntersectionExitTime 	-1
scalar IntersectionExampleScenario.node[785].appl 	NumberOfCollisions 	0
scalar IntersectionExampleScenario.node[785].nic.phy80211p 	busyTime 	0
scalar IntersectionExampleScenario.node[785].nic.mac1609_4 	ReceivedUnicastPackets 	0
scalar IntersectionExampleScenario.node[785].nic.mac1609_4 	ReceivedBroadcasts 	0
scalar IntersectionExampleScenario.node[785].nic.mac1609_4 	SentPackets 	0
scalar IntersectionExampleScenario.node[785].nic.mac1609_4 	SNIRLostPackets 	0
scalar IntersectionExampleScenario.node[785].nic.mac1609_4 	RXTXLostPackets 	0
scalar IntersectionExampleScenario.node[785].nic.mac1609_4 	TotalLostPackets 	0
scalar IntersectionExampleScenario.node[785].nic.mac1609_4 	DroppedPacketsInMac 	0
scalar IntersectionExampleScenario.node[785].nic.mac1609_4 	TooLittleTime 	0
scalar IntersectionExampleScenario.node[785].nic.mac1609_4 	TimesIntoBackoff 	0
scalar IntersectionExampleScenario.node[785].nic.mac1609_4 	SlotsBackoff 	0
scalar IntersectionExampleScenario.node[785].nic.mac1609_4 	NumInternalContention 	0
scalar IntersectionExampleScenario.node[785].nic.mac1609_4 	totalBusyTime 	0
scalar IntersectionExampleScenario.node[785].veinsmobility 	startTime 	1784.25
scalar IntersectionExampleScenario.node[785].veinsmobility 	totalTime 	15.75
scalar IntersectionExampleScenario.node[785].veinsmobility 	stopTime 	1800
scalar IntersectionExampleScenario.node[785].veinsmobility 	minSpeed 	5.6500000953674
scalar IntersectionExampleScenario.node[785].veinsmobility 	maxSpeed 	14.521061897278
scalar IntersectionExampleScenario.node[785].veinsmobility 	totalDistance 	170.86741638184
scalar IntersectionExampleScenario.node[785].veinsmobility 	totalCO2Emission 	63.990224837742
scalar IntersectionExampleScenario.node[786].appl 	VehicleRemoved 	0
scalar IntersectionExampleScenario.node[786].appl 	ArrivedAtDest 	0
scalar IntersectionExampleScenario.node[786].appl 	IntersectionEnterTime 	1786.75
scalar IntersectionExampleScenario.node[786].appl 	IntersectionExitTime 	-1
scalar IntersectionExampleScenario.node[786].appl 	NumberOfCollisions 	0
scalar IntersectionExampleScenario.node[786].nic.phy80211p 	busyTime 	0
scalar IntersectionExampleScenario.node[786].nic.mac1609_4 	ReceivedUnicastPackets 	0
scalar IntersectionExampleScenario.node[786].nic.mac1609_4 	ReceivedBroadcasts 	0
scalar IntersectionExampleScenario.node[786].nic.mac1609_4 	SentPackets 	0
scalar IntersectionExampleScenario.node[786].nic.mac1609_4 	SNIRLostPackets 	0
scalar IntersectionExampleScenario.node[786].nic.mac1609_4 	RXTXLostPackets 	0
scalar IntersectionExampleScenario.node[786].nic.mac1609_4 	TotalLostPackets 	0
scalar IntersectionExampleScenario.node[786].nic.mac1609_4 	DroppedPacketsInMac 	0
scalar IntersectionExampleScenario.node[786].nic.mac1609_4 	TooLittleTime 	0
scalar IntersectionExampleScenario.node[786].nic.mac1609_4 	TimesIntoBackoff 	0
scalar IntersectionExampleScenario.node[786].nic.mac1609_4 	SlotsBackoff 	0
scalar IntersectionExampleScenario.node[786].nic.mac1609_4 	NumInternalContention 	0
scalar IntersectionExampleScenario.node[786].nic.mac1609_4 	totalBusyTime 	0
scalar IntersectionExampleScenario.node[786].veinsmobility 	startTime 	1786.75
scalar IntersectionExampleScenario.node[786].veinsmobility 	totalTime 	13.25
scalar IntersectionExampleScenario.node[786].veinsmobility 	stopTime 	1800
scalar IntersectionExampleScenario.node[786].veinsmobility 	minSpeed 	5.6500000953674
scalar IntersectionExampleScenario.node[786].veinsmobility 	maxSpeed 	14.602675437927
scalar IntersectionExampleScenario.node[786].veinsmobility 	totalDistance 	158.13871002197
scalar IntersectionExampleScenario.node[786].veinsmobility 	totalCO2Emission 	42.47679671522
scalar IntersectionExampleScenario.node[787].appl 	VehicleRemoved 	0
scalar IntersectionExampleScenario.node[787].appl 	ArrivedAtDest 	0
scalar IntersectionExampleScenario.node[787].appl 	IntersectionEnterTime 	1788
scalar IntersectionExampleScenario.node[787].appl 	IntersectionExitTime 	-1
scalar IntersectionExampleScenario.node[787].appl 	NumberOfCollisions 	0
scalar IntersectionExampleScenario.node[787].nic.phy80211p 	busyTime 	0
scalar IntersectionExampleScenario.node[787].nic.mac1609_4 	ReceivedUnicastPackets 	0
scalar IntersectionExampleScenario.node[787].nic.mac1609_4 	ReceivedBroadcasts 	0
scalar IntersectionExampleScenario.node[787].nic.mac1609_4 	SentPackets 	0
scalar IntersectionExampleScenario.node[787].nic.mac1609_4 	SNIRLostPackets 	0
scalar IntersectionExampleScenario.node[787].nic.mac1609_4 	RXTXLostPackets 	0
scalar IntersectionExampleScenario.node[787].nic.mac1609_4 	TotalLostPackets 	0
scalar IntersectionExampleScenario.node[787].nic.mac1609_4 	DroppedPacketsInMac 	0
scalar IntersectionExampleScenario.node[787].nic.mac1609_4 	TooLittleTime 	0
scalar IntersectionExampleScenario.node[787].nic.mac1609_4 	TimesIntoBackoff 	0
scalar IntersectionExampleScenario.node[787].nic.mac1609_4 	SlotsBackoff 	0
scalar IntersectionExampleScenario.node[787].nic.mac1609_4 	NumInternalContention 	0
scalar IntersectionExampleScenario.node[787].nic.mac1609_4 	totalBusyTime 	0
scalar IntersectionExampleScenario.node[787].veinsmobility 	startTime 	1788
scalar IntersectionExampleScenario.node[787].veinsmobility 	totalTime 	12
scalar IntersectionExampleScenario.node[787].veinsmobility 	stopTime 	1800
scalar IntersectionExampleScenario.node[787].veinsmobility 	minSpeed 	5.6500000953674
scalar IntersectionExampleScenario.node[787].veinsmobility 	maxSpeed 	15.02499961853
scalar IntersectionExampleScenario.node[787].veinsmobility 	totalDistance 	154.51805877686
scalar IntersectionExampleScenario.node[787].veinsmobility 	totalCO2Emission 	42.991067537057
scalar IntersectionExampleScenario.node[788].appl 	VehicleRemoved 	0
scalar IntersectionExampleScenario.node[788].appl 	ArrivedAtDest 	0
scalar IntersectionExampleScenario.node[788].appl 	IntersectionEnterTime 	1788.5
scalar IntersectionExampleScenario.node[788].appl 	IntersectionExitTime 	-1
scalar IntersectionExampleScenario.node[788].appl 	NumberOfCollisions 	0
scalar IntersectionExampleScenario.node[788].nic.phy80211p 	busyTime 	0
scalar IntersectionExampleScenario.node[788].nic.mac1609_4 	ReceivedUnicastPackets 	0
scalar IntersectionExampleScenario.node[788].nic.mac1609_4 	ReceivedBroadcasts 	0
scalar IntersectionExampleScenario.node[788].nic.mac1609_4 	SentPackets 	0
scalar IntersectionExampleScenario.node[788].nic.mac1609_4 	SNIRLostPackets 	0
scalar IntersectionExampleScenario.node[788].nic.mac1609_4 	RXTXLostPackets 	0
scalar IntersectionExampleScenario.node[788].nic.mac1609_4 	TotalLostPackets 	0
scalar IntersectionExampleScenario.node[788].nic.mac1609_4 	DroppedPacketsInMac 	0
scalar IntersectionExampleScenario.node[788].nic.mac1609_4 	TooLittleTime 	0
scalar IntersectionExampleScenario.node[788].nic.mac1609_4 	TimesIntoBackoff 	0
scalar IntersectionExampleScenario.node[788].nic.mac1609_4 	SlotsBackoff 	0
scalar IntersectionExampleScenario.node[788].nic.mac1609_4 	NumInternalContention 	0
scalar IntersectionExampleScenario.node[788].nic.mac1609_4 	totalBusyTime 	0
scalar IntersectionExampleScenario.node[788].veinsmobility 	startTime 	1788.5
scalar IntersectionExampleScenario.node[788].veinsmobility 	totalTime 	11.5
scalar IntersectionExampleScenario.node[788].veinsmobility 	stopTime 	1800
scalar IntersectionExampleScenario.node[788].veinsmobility 	minSpeed 	5.6500000953674
scalar IntersectionExampleScenario.node[788].veinsmobility 	maxSpeed 	16.27499961853
scalar IntersectionExampleScenario.node[788].veinsmobility 	totalDistance 	160.22381591797
scalar IntersectionExampleScenario.node[788].veinsmobility 	totalCO2Emission 	51.362230167563
scalar IntersectionExampleScenario.node[789].appl 	VehicleRemoved 	0
scalar IntersectionExampleScenario.node[789].appl 	ArrivedAtDest 	0
scalar IntersectionExampleScenario.node[789].appl 	IntersectionEnterTime 	1789
scalar IntersectionExampleScenario.node[789].appl 	IntersectionExitTime 	-1
scalar IntersectionExampleScenario.node[789].appl 	NumberOfCollisions 	0
scalar IntersectionExampleScenario.node[789].nic.phy80211p 	busyTime 	0
scalar IntersectionExampleScenario.node[789].nic.mac1609_4 	ReceivedUnicastPackets 	0
scalar IntersectionExampleScenario.node[789].nic.mac1609_4 	ReceivedBroadcasts 	0
scalar IntersectionExampleScenario.node[789].nic.mac1609_4 	SentPackets 	0
scalar IntersectionExampleScenario.node[789].nic.mac1609_4 	SNIRLostPackets 	0
scalar IntersectionExampleScenario.node[789].nic.mac1609_4 	RXTXLostPackets 	0
scalar IntersectionExampleScenario.node[789].nic.mac1609_4 	TotalLostPackets 	0
scalar IntersectionExampleScenario.node[789].nic.mac1609_4 	DroppedPacketsInMac 	0
scalar IntersectionExampleScenario.node[789].nic.mac1609_4 	TooLittleTime 	0
scalar IntersectionExampleScenario.node[789].nic.mac1609_4 	TimesIntoBackoff 	0
scalar IntersectionExampleScenario.node[789].nic.mac1609_4 	SlotsBackoff 	0
scalar IntersectionExampleScenario.node[789].nic.mac1609_4 	NumInternalContention 	0
scalar IntersectionExampleScenario.node[789].nic.mac1609_4 	totalBusyTime 	0
scalar IntersectionExampleScenario.node[789].veinsmobility 	startTime 	1789
scalar IntersectionExampleScenario.node[789].veinsmobility 	totalTime 	11
scalar IntersectionExampleScenario.node[789].veinsmobility 	stopTime 	1800
scalar IntersectionExampleScenario.node[789].veinsmobility 	minSpeed 	5.6500000953674
scalar IntersectionExampleScenario.node[789].veinsmobility 	maxSpeed 	15.578724861145
scalar IntersectionExampleScenario.node[789].veinsmobility 	totalDistance 	145.24505615234
scalar IntersectionExampleScenario.node[789].veinsmobility 	totalCO2Emission 	46.063270547974
scalar IntersectionExampleScenario.node[790].appl 	VehicleRemoved 	0
scalar IntersectionExampleScenario.node[790].appl 	ArrivedAtDest 	0
scalar IntersectionExampleScenario.node[790].appl 	IntersectionEnterTime 	1790.25
scalar IntersectionExampleScenario.node[790].appl 	IntersectionExitTime 	-1
scalar IntersectionExampleScenario.node[790].appl 	NumberOfCollisions 	0
scalar IntersectionExampleScenario.node[790].nic.phy80211p 	busyTime 	0
scalar IntersectionExampleScenario.node[790].nic.mac1609_4 	ReceivedUnicastPackets 	0
scalar IntersectionExampleScenario.node[790].nic.mac1609_4 	ReceivedBroadcasts 	0
scalar IntersectionExampleScenario.node[790].nic.mac1609_4 	SentPackets 	0
scalar IntersectionExampleScenario.node[790].nic.mac1609_4 	SNIRLostPackets 	0
scalar IntersectionExampleScenario.node[790].nic.mac1609_4 	RXTXLostPackets 	0
scalar IntersectionExampleScenario.node[790].nic.mac1609_4 	TotalLostPackets 	0
scalar IntersectionExampleScenario.node[790].nic.mac1609_4 	DroppedPacketsInMac 	0
scalar IntersectionExampleScenario.node[790].nic.mac1609_4 	TooLittleTime 	0
scalar IntersectionExampleScenario.node[790].nic.mac1609_4 	TimesIntoBackoff 	0
scalar IntersectionExampleScenario.node[790].nic.mac1609_4 	SlotsBackoff 	0
scalar IntersectionExampleScenario.node[790].nic.mac1609_4 	NumInternalContention 	0
scalar IntersectionExampleScenario.node[790].nic.mac1609_4 	totalBusyTime 	0
scalar IntersectionExampleScenario.node[790].veinsmobility 	startTime 	1790.25
scalar IntersectionExampleScenario.node[790].veinsmobility 	totalTime 	9.75
scalar IntersectionExampleScenario.node[790].veinsmobility 	stopTime 	1800
scalar IntersectionExampleScenario.node[790].veinsmobility 	minSpeed 	5.6500000953674
scalar IntersectionExampleScenario.node[790].veinsmobility 	maxSpeed 	14.90137386322
scalar IntersectionExampleScenario.node[790].veinsmobility 	totalDistance 	121.34481048584
scalar IntersectionExampleScenario.node[790].veinsmobility 	totalCO2Emission 	41.789664013678
scalar IntersectionExampleScenario.node[791].appl 	VehicleRemoved 	0
scalar IntersectionExampleScenario.node[791].appl 	ArrivedAtDest 	0
scalar IntersectionExampleScenario.node[791].appl 	IntersectionEnterTime 	1791.25
scalar IntersectionExampleScenario.node[791].appl 	IntersectionExitTime 	-1
scalar IntersectionExampleScenario.node[791].appl 	NumberOfCollisions 	0
scalar IntersectionExampleScenario.node[791].nic.phy80211p 	busyTime 	0
scalar IntersectionExampleScenario.node[791].nic.mac1609_4 	ReceivedUnicastPackets 	0
scalar IntersectionExampleScenario.node[791].nic.mac1609_4 	ReceivedBroadcasts 	0
scalar IntersectionExampleScenario.node[791].nic.mac1609_4 	SentPackets 	0
scalar IntersectionExampleScenario.node[791].nic.mac1609_4 	SNIRLostPackets 	0
scalar IntersectionExampleScenario.node[791].nic.mac1609_4 	RXTXLostPackets 	0
scalar IntersectionExampleScenario.node[791].nic.mac1609_4 	TotalLostPackets 	0
scalar IntersectionExampleScenario.node[791].nic.mac1609_4 	DroppedPacketsInMac 	0
scalar IntersectionExampleScenario.node[791].nic.mac1609_4 	TooLittleTime 	0
scalar IntersectionExampleScenario.node[791].nic.mac1609_4 	TimesIntoBackoff 	0
scalar IntersectionExampleScenario.node[791].nic.mac1609_4 	SlotsBackoff 	0
scalar IntersectionExampleScenario.node[791].nic.mac1609_4 	NumInternalContention 	0
scalar IntersectionExampleScenario.node[791].nic.mac1609_4 	totalBusyTime 	0
scalar IntersectionExampleScenario.node[791].veinsmobility 	startTime 	1791.25
scalar IntersectionExampleScenario.node[791].veinsmobility 	totalTime 	8.75
scalar IntersectionExampleScenario.node[791].veinsmobility 	stopTime 	1800
scalar IntersectionExampleScenario.node[791].veinsmobility 	minSpeed 	5.6500000953674
scalar IntersectionExampleScenario.node[791].veinsmobility 	maxSpeed 	16.27499961853
scalar IntersectionExampleScenario.node[791].veinsmobility 	totalDistance 	116.22423553467
scalar IntersectionExampleScenario.node[791].veinsmobility 	totalCO2Emission 	45.154345976312
scalar IntersectionExampleScenario.node[792].appl 	VehicleRemoved 	0
scalar IntersectionExampleScenario.node[792].appl 	ArrivedAtDest 	0
scalar IntersectionExampleScenario.node[792].appl 	IntersectionEnterTime 	1796.25
scalar IntersectionExampleScenario.node[792].appl 	IntersectionExitTime 	-1
scalar IntersectionExampleScenario.node[792].appl 	NumberOfCollisions 	0
scalar IntersectionExampleScenario.node[792].nic.phy80211p 	busyTime 	0
scalar IntersectionExampleScenario.node[792].nic.mac1609_4 	ReceivedUnicastPackets 	0
scalar IntersectionExampleScenario.node[792].nic.mac1609_4 	ReceivedBroadcasts 	0
scalar IntersectionExampleScenario.node[792].nic.mac1609_4 	SentPackets 	0
scalar IntersectionExampleScenario.node[792].nic.mac1609_4 	SNIRLostPackets 	0
scalar IntersectionExampleScenario.node[792].nic.mac1609_4 	RXTXLostPackets 	0
scalar IntersectionExampleScenario.node[792].nic.mac1609_4 	TotalLostPackets 	0
scalar IntersectionExampleScenario.node[792].nic.mac1609_4 	DroppedPacketsInMac 	0
scalar IntersectionExampleScenario.node[792].nic.mac1609_4 	TooLittleTime 	0
scalar IntersectionExampleScenario.node[792].nic.mac1609_4 	TimesIntoBackoff 	0
scalar IntersectionExampleScenario.node[792].nic.mac1609_4 	SlotsBackoff 	0
scalar IntersectionExampleScenario.node[792].nic.mac1609_4 	NumInternalContention 	0
scalar IntersectionExampleScenario.node[792].nic.mac1609_4 	totalBusyTime 	0
scalar IntersectionExampleScenario.node[792].veinsmobility 	startTime 	1796.25
scalar IntersectionExampleScenario.node[792].veinsmobility 	totalTime 	3.75
scalar IntersectionExampleScenario.node[792].veinsmobility 	stopTime 	1800
scalar IntersectionExampleScenario.node[792].veinsmobility 	minSpeed 	5.6500000953674
scalar IntersectionExampleScenario.node[792].veinsmobility 	maxSpeed 	14.39999961853
scalar IntersectionExampleScenario.node[792].veinsmobility 	totalDistance 	36.421867370605
scalar IntersectionExampleScenario.node[792].veinsmobility 	totalCO2Emission 	27.850414058068
scalar IntersectionExampleScenario.node[793].appl 	VehicleRemoved 	0
scalar IntersectionExampleScenario.node[793].appl 	ArrivedAtDest 	0
scalar IntersectionExampleScenario.node[793].appl 	IntersectionEnterTime 	1797
scalar IntersectionExampleScenario.node[793].appl 	IntersectionExitTime 	-1
scalar IntersectionExampleScenario.node[793].appl 	NumberOfCollisions 	0
scalar IntersectionExampleScenario.node[793].nic.phy80211p 	busyTime 	0
scalar IntersectionExampleScenario.node[793].nic.mac1609_4 	ReceivedUnicastPackets 	0
scalar IntersectionExampleScenario.node[793].nic.mac1609_4 	ReceivedBroadcasts 	0
scalar IntersectionExampleScenario.node[793].nic.mac1609_4 	SentPackets 	0
scalar IntersectionExampleScenario.node[793].nic.mac1609_4 	SNIRLostPackets 	0
scalar IntersectionExampleScenario.node[793].nic.mac1609_4 	RXTXLostPackets 	0
scalar IntersectionExampleScenario.node[793].nic.mac1609_4 	TotalLostPackets 	0
scalar IntersectionExampleScenario.node[793].nic.mac1609_4 	DroppedPacketsInMac 	0
scalar IntersectionExampleScenario.node[793].nic.mac1609_4 	TooLittleTime 	0
scalar IntersectionExampleScenario.node[793].nic.mac1609_4 	TimesIntoBackoff 	0
scalar IntersectionExampleScenario.node[793].nic.mac1609_4 	SlotsBackoff 	0
scalar IntersectionExampleScenario.node[793].nic.mac1609_4 	NumInternalContention 	0
scalar IntersectionExampleScenario.node[793].nic.mac1609_4 	totalBusyTime 	0
scalar IntersectionExampleScenario.node[793].veinsmobility 	startTime 	1797
scalar IntersectionExampleScenario.node[793].veinsmobility 	totalTime 	3
scalar IntersectionExampleScenario.node[793].veinsmobility 	stopTime 	1800
scalar IntersectionExampleScenario.node[793].veinsmobility 	minSpeed 	5.6500000953674
scalar IntersectionExampleScenario.node[793].veinsmobility 	maxSpeed 	12.52499961853
scalar IntersectionExampleScenario.node[793].veinsmobility 	totalDistance 	26.325012207031
scalar IntersectionExampleScenario.node[793].veinsmobility 	totalCO2Emission 	20.113115050741
