version 2
run nodebug-12-20200606-10:50:13-6208
attr configname nodebug
attr datetime 20200606-10:50:13
attr experiment nodebug
attr inifile omnetpp.ini
attr iterationvars ""
attr iterationvars2 $repetition=12
attr measurement ""
attr network "\"org.car2x.veins.modules.application.ExtTraCIScenarioManagerLaunchd.IntersectionExampleScenario\""
attr processid 6208
attr repetition 12
attr replication #12
attr resultdir results
attr runnumber 12
attr seedset 12
param **.coreDebug false
param **.debug false
param *.**.nic.mac1609_4.bitrate 18Mbps
param *.**.nic.mac1609_4.txPower 20mW
param *.**.nic.mac1609_4.useServiceChannel false
param *.**.nic.phy80211p.analogueModels "xmldoc(\"config.xml\")"
param *.**.nic.phy80211p.decider "xmldoc(\"config.xml\")"
param *.**.nic.phy80211p.sensitivity -89dBm
param *.**.nic.phy80211p.thermalNoise -110dBm
param *.**.nic.phy80211p.usePropagationDelay true
param *.**.nic.phy80211p.useThermalNoise true
param *.annotations.draw false
param *.connectionManager.alpha 2.0
param *.connectionManager.carrierFrequency "5.890e9 Hz"
param *.connectionManager.pMax 20mW
param *.connectionManager.sat -89dBm
param *.connectionManager.sendDirect true
param *.manager.autoShutdown true
param *.manager.host "\"localhost\""
param *.manager.launchConfig "xmldoc(\"paramics.launchd.xml\")"
param *.manager.margin 25
param *.manager.moduleDisplayString "\"\""
param *.manager.moduleName "\"node\""
param *.manager.moduleType "\"org.car2x.veins.nodes.Car\""
param *.manager.port 9999
param *.manager.updateInterval 250ms
param *.node[*0].veinsmobility.accidentCount 0
param *.node[*0].veinsmobility.accidentDuration 30s
param *.node[*0].veinsmobility.accidentStart 75s
param *.node[*].appl.LiderSelectZoneRadio 55.0
param *.node[*].appl.ShareDataZoneRadio 110.0
param *.node[*].appl.TiempoSemaforo 30.0
param *.node[*].appl.beaconInterval 1s
param *.node[*].appl.beaconPriority 3
param *.node[*].appl.dataOnSch false
param *.node[*].appl.dataPriority 2
param *.node[*].appl.debug false
param *.node[*].appl.headerLength "256 bit"
param *.node[*].appl.maxOffset 0.005s
param *.node[*].appl.sendBeacons false
param *.node[*].appl.sendData true
param *.node[*].applType "\"Dummy\""
param *.node[*].mobilityType "\"TraCIMobility\""
param *.node[*].mobilityType.debug true
param *.node[*].veinsmobility.x 0
param *.node[*].veinsmobility.y 0
param *.node[*].veinsmobility.z 1.895
param *.node[*].veinsmobilityType "\"org.car2x.veins.modules.mobility.traci.TraCIMobility\""
param *.node[*].veinsmobilityType.debug true
param *.playgroundSizeX 8500m
param *.playgroundSizeY 8500m
param *.playgroundSizeZ 50m
param *.world.use2D false
param *.world.useTorus false

scalar IntersectionExampleScenario.node[3].appl 	VehicleRemoved 	0
scalar IntersectionExampleScenario.node[3].appl 	ArrivedAtDest 	1
scalar IntersectionExampleScenario.node[3].appl 	IntersectionEnterTime 	8
scalar IntersectionExampleScenario.node[3].appl 	IntersectionExitTime 	31.565153253352
scalar IntersectionExampleScenario.node[3].appl 	NumberOfCollisions 	0
scalar IntersectionExampleScenario.node[3].nic.phy80211p 	busyTime 	0
scalar IntersectionExampleScenario.node[3].nic.mac1609_4 	ReceivedUnicastPackets 	0
scalar IntersectionExampleScenario.node[3].nic.mac1609_4 	ReceivedBroadcasts 	0
scalar IntersectionExampleScenario.node[3].nic.mac1609_4 	SentPackets 	0
scalar IntersectionExampleScenario.node[3].nic.mac1609_4 	SNIRLostPackets 	0
scalar IntersectionExampleScenario.node[3].nic.mac1609_4 	RXTXLostPackets 	0
scalar IntersectionExampleScenario.node[3].nic.mac1609_4 	TotalLostPackets 	0
scalar IntersectionExampleScenario.node[3].nic.mac1609_4 	DroppedPacketsInMac 	0
scalar IntersectionExampleScenario.node[3].nic.mac1609_4 	TooLittleTime 	0
scalar IntersectionExampleScenario.node[3].nic.mac1609_4 	TimesIntoBackoff 	0
scalar IntersectionExampleScenario.node[3].nic.mac1609_4 	SlotsBackoff 	0
scalar IntersectionExampleScenario.node[3].nic.mac1609_4 	NumInternalContention 	0
scalar IntersectionExampleScenario.node[3].nic.mac1609_4 	totalBusyTime 	0
scalar IntersectionExampleScenario.node[3].veinsmobility 	startTime 	8
scalar IntersectionExampleScenario.node[3].veinsmobility 	totalTime 	40.25
scalar IntersectionExampleScenario.node[3].veinsmobility 	stopTime 	48.5
scalar IntersectionExampleScenario.node[3].veinsmobility 	minSpeed 	5.6500000953674
scalar IntersectionExampleScenario.node[3].veinsmobility 	maxSpeed 	15.375
scalar IntersectionExampleScenario.node[3].veinsmobility 	totalDistance 	551.98651175217
scalar IntersectionExampleScenario.node[3].veinsmobility 	totalCO2Emission 	120.88968681036
scalar IntersectionExampleScenario.node[0].appl 	VehicleRemoved 	0
scalar IntersectionExampleScenario.node[0].appl 	ArrivedAtDest 	1
scalar IntersectionExampleScenario.node[0].appl 	IntersectionEnterTime 	1.25
scalar IntersectionExampleScenario.node[0].appl 	IntersectionExitTime 	44.566717423586
scalar IntersectionExampleScenario.node[0].appl 	NumberOfCollisions 	0
scalar IntersectionExampleScenario.node[0].nic.phy80211p 	busyTime 	0
scalar IntersectionExampleScenario.node[0].nic.mac1609_4 	ReceivedUnicastPackets 	0
scalar IntersectionExampleScenario.node[0].nic.mac1609_4 	ReceivedBroadcasts 	0
scalar IntersectionExampleScenario.node[0].nic.mac1609_4 	SentPackets 	0
scalar IntersectionExampleScenario.node[0].nic.mac1609_4 	SNIRLostPackets 	0
scalar IntersectionExampleScenario.node[0].nic.mac1609_4 	RXTXLostPackets 	0
scalar IntersectionExampleScenario.node[0].nic.mac1609_4 	TotalLostPackets 	0
scalar IntersectionExampleScenario.node[0].nic.mac1609_4 	DroppedPacketsInMac 	0
scalar IntersectionExampleScenario.node[0].nic.mac1609_4 	TooLittleTime 	0
scalar IntersectionExampleScenario.node[0].nic.mac1609_4 	TimesIntoBackoff 	0
scalar IntersectionExampleScenario.node[0].nic.mac1609_4 	SlotsBackoff 	0
scalar IntersectionExampleScenario.node[0].nic.mac1609_4 	NumInternalContention 	0
scalar IntersectionExampleScenario.node[0].nic.mac1609_4 	totalBusyTime 	0
scalar IntersectionExampleScenario.node[0].veinsmobility 	startTime 	1.25
scalar IntersectionExampleScenario.node[0].veinsmobility 	totalTime 	59.75
scalar IntersectionExampleScenario.node[0].veinsmobility 	stopTime 	61.25
scalar IntersectionExampleScenario.node[0].veinsmobility 	minSpeed 	0
scalar IntersectionExampleScenario.node[0].veinsmobility 	maxSpeed 	15.875
scalar IntersectionExampleScenario.node[0].veinsmobility 	totalDistance 	545.8471517697
scalar IntersectionExampleScenario.node[0].veinsmobility 	totalCO2Emission 	155.21710835091
scalar IntersectionExampleScenario.node[2].appl 	VehicleRemoved 	0
scalar IntersectionExampleScenario.node[2].appl 	ArrivedAtDest 	1
scalar IntersectionExampleScenario.node[2].appl 	IntersectionEnterTime 	6.25
scalar IntersectionExampleScenario.node[2].appl 	IntersectionExitTime 	46.325760397362
scalar IntersectionExampleScenario.node[2].appl 	NumberOfCollisions 	0
scalar IntersectionExampleScenario.node[2].nic.phy80211p 	busyTime 	0
scalar IntersectionExampleScenario.node[2].nic.mac1609_4 	ReceivedUnicastPackets 	0
scalar IntersectionExampleScenario.node[2].nic.mac1609_4 	ReceivedBroadcasts 	0
scalar IntersectionExampleScenario.node[2].nic.mac1609_4 	SentPackets 	0
scalar IntersectionExampleScenario.node[2].nic.mac1609_4 	SNIRLostPackets 	0
scalar IntersectionExampleScenario.node[2].nic.mac1609_4 	RXTXLostPackets 	0
scalar IntersectionExampleScenario.node[2].nic.mac1609_4 	TotalLostPackets 	0
scalar IntersectionExampleScenario.node[2].nic.mac1609_4 	DroppedPacketsInMac 	0
scalar IntersectionExampleScenario.node[2].nic.mac1609_4 	TooLittleTime 	0
scalar IntersectionExampleScenario.node[2].nic.mac1609_4 	TimesIntoBackoff 	0
scalar IntersectionExampleScenario.node[2].nic.mac1609_4 	SlotsBackoff 	0
scalar IntersectionExampleScenario.node[2].nic.mac1609_4 	NumInternalContention 	0
scalar IntersectionExampleScenario.node[2].nic.mac1609_4 	totalBusyTime 	0
scalar IntersectionExampleScenario.node[2].veinsmobility 	startTime 	6.25
scalar IntersectionExampleScenario.node[2].veinsmobility 	totalTime 	55.5
scalar IntersectionExampleScenario.node[2].veinsmobility 	stopTime 	62
scalar IntersectionExampleScenario.node[2].veinsmobility 	minSpeed 	0
scalar IntersectionExampleScenario.node[2].veinsmobility 	maxSpeed 	16.625
scalar IntersectionExampleScenario.node[2].veinsmobility 	totalDistance 	526.39328053192
scalar IntersectionExampleScenario.node[2].veinsmobility 	totalCO2Emission 	155.6949075049
scalar IntersectionExampleScenario.node[1].appl 	VehicleRemoved 	0
scalar IntersectionExampleScenario.node[1].appl 	ArrivedAtDest 	1
scalar IntersectionExampleScenario.node[1].appl 	IntersectionEnterTime 	5.25
scalar IntersectionExampleScenario.node[1].appl 	IntersectionExitTime 	48.754177678755
scalar IntersectionExampleScenario.node[1].appl 	NumberOfCollisions 	0
scalar IntersectionExampleScenario.node[1].nic.phy80211p 	busyTime 	0
scalar IntersectionExampleScenario.node[1].nic.mac1609_4 	ReceivedUnicastPackets 	0
scalar IntersectionExampleScenario.node[1].nic.mac1609_4 	ReceivedBroadcasts 	0
scalar IntersectionExampleScenario.node[1].nic.mac1609_4 	SentPackets 	0
scalar IntersectionExampleScenario.node[1].nic.mac1609_4 	SNIRLostPackets 	0
scalar IntersectionExampleScenario.node[1].nic.mac1609_4 	RXTXLostPackets 	0
scalar IntersectionExampleScenario.node[1].nic.mac1609_4 	TotalLostPackets 	0
scalar IntersectionExampleScenario.node[1].nic.mac1609_4 	DroppedPacketsInMac 	0
scalar IntersectionExampleScenario.node[1].nic.mac1609_4 	TooLittleTime 	0
scalar IntersectionExampleScenario.node[1].nic.mac1609_4 	TimesIntoBackoff 	0
scalar IntersectionExampleScenario.node[1].nic.mac1609_4 	SlotsBackoff 	0
scalar IntersectionExampleScenario.node[1].nic.mac1609_4 	NumInternalContention 	0
scalar IntersectionExampleScenario.node[1].nic.mac1609_4 	totalBusyTime 	0
scalar IntersectionExampleScenario.node[1].veinsmobility 	startTime 	5.25
scalar IntersectionExampleScenario.node[1].veinsmobility 	totalTime 	60
scalar IntersectionExampleScenario.node[1].veinsmobility 	stopTime 	65.5
scalar IntersectionExampleScenario.node[1].veinsmobility 	minSpeed 	0
scalar IntersectionExampleScenario.node[1].veinsmobility 	maxSpeed 	15.375
scalar IntersectionExampleScenario.node[1].veinsmobility 	totalDistance 	556.0284854619
scalar IntersectionExampleScenario.node[1].veinsmobility 	totalCO2Emission 	149.01216151525
scalar IntersectionExampleScenario.node[4].appl 	VehicleRemoved 	0
scalar IntersectionExampleScenario.node[4].appl 	ArrivedAtDest 	1
scalar IntersectionExampleScenario.node[4].appl 	IntersectionEnterTime 	9.25
scalar IntersectionExampleScenario.node[4].appl 	IntersectionExitTime 	51.02008959424
scalar IntersectionExampleScenario.node[4].appl 	NumberOfCollisions 	0
scalar IntersectionExampleScenario.node[4].nic.phy80211p 	busyTime 	0
scalar IntersectionExampleScenario.node[4].nic.mac1609_4 	ReceivedUnicastPackets 	0
scalar IntersectionExampleScenario.node[4].nic.mac1609_4 	ReceivedBroadcasts 	0
scalar IntersectionExampleScenario.node[4].nic.mac1609_4 	SentPackets 	0
scalar IntersectionExampleScenario.node[4].nic.mac1609_4 	SNIRLostPackets 	0
scalar IntersectionExampleScenario.node[4].nic.mac1609_4 	RXTXLostPackets 	0
scalar IntersectionExampleScenario.node[4].nic.mac1609_4 	TotalLostPackets 	0
scalar IntersectionExampleScenario.node[4].nic.mac1609_4 	DroppedPacketsInMac 	0
scalar IntersectionExampleScenario.node[4].nic.mac1609_4 	TooLittleTime 	0
scalar IntersectionExampleScenario.node[4].nic.mac1609_4 	TimesIntoBackoff 	0
scalar IntersectionExampleScenario.node[4].nic.mac1609_4 	SlotsBackoff 	0
scalar IntersectionExampleScenario.node[4].nic.mac1609_4 	NumInternalContention 	0
scalar IntersectionExampleScenario.node[4].nic.mac1609_4 	totalBusyTime 	0
scalar IntersectionExampleScenario.node[4].veinsmobility 	startTime 	9.25
scalar IntersectionExampleScenario.node[4].veinsmobility 	totalTime 	58.75
scalar IntersectionExampleScenario.node[4].veinsmobility 	stopTime 	68.25
scalar IntersectionExampleScenario.node[4].veinsmobility 	minSpeed 	0
scalar IntersectionExampleScenario.node[4].veinsmobility 	maxSpeed 	15.25
scalar IntersectionExampleScenario.node[4].veinsmobility 	totalDistance 	559.37583907795
scalar IntersectionExampleScenario.node[4].veinsmobility 	totalCO2Emission 	149.1318053322
scalar IntersectionExampleScenario.node[7].appl 	VehicleRemoved 	0
scalar IntersectionExampleScenario.node[7].appl 	ArrivedAtDest 	1
scalar IntersectionExampleScenario.node[7].appl 	IntersectionEnterTime 	13.75
scalar IntersectionExampleScenario.node[7].appl 	IntersectionExitTime 	52.790946183843
scalar IntersectionExampleScenario.node[7].appl 	NumberOfCollisions 	0
scalar IntersectionExampleScenario.node[7].nic.phy80211p 	busyTime 	0
scalar IntersectionExampleScenario.node[7].nic.mac1609_4 	ReceivedUnicastPackets 	0
scalar IntersectionExampleScenario.node[7].nic.mac1609_4 	ReceivedBroadcasts 	0
scalar IntersectionExampleScenario.node[7].nic.mac1609_4 	SentPackets 	0
scalar IntersectionExampleScenario.node[7].nic.mac1609_4 	SNIRLostPackets 	0
scalar IntersectionExampleScenario.node[7].nic.mac1609_4 	RXTXLostPackets 	0
scalar IntersectionExampleScenario.node[7].nic.mac1609_4 	TotalLostPackets 	0
scalar IntersectionExampleScenario.node[7].nic.mac1609_4 	DroppedPacketsInMac 	0
scalar IntersectionExampleScenario.node[7].nic.mac1609_4 	TooLittleTime 	0
scalar IntersectionExampleScenario.node[7].nic.mac1609_4 	TimesIntoBackoff 	0
scalar IntersectionExampleScenario.node[7].nic.mac1609_4 	SlotsBackoff 	0
scalar IntersectionExampleScenario.node[7].nic.mac1609_4 	NumInternalContention 	0
scalar IntersectionExampleScenario.node[7].nic.mac1609_4 	totalBusyTime 	0
scalar IntersectionExampleScenario.node[7].veinsmobility 	startTime 	13.75
scalar IntersectionExampleScenario.node[7].veinsmobility 	totalTime 	54.5
scalar IntersectionExampleScenario.node[7].veinsmobility 	stopTime 	68.5
scalar IntersectionExampleScenario.node[7].veinsmobility 	minSpeed 	0
scalar IntersectionExampleScenario.node[7].veinsmobility 	maxSpeed 	16.125
scalar IntersectionExampleScenario.node[7].veinsmobility 	totalDistance 	542.73853302002
scalar IntersectionExampleScenario.node[7].veinsmobility 	totalCO2Emission 	148.16613492323
scalar IntersectionExampleScenario.node[5].appl 	VehicleRemoved 	0
scalar IntersectionExampleScenario.node[5].appl 	ArrivedAtDest 	1
scalar IntersectionExampleScenario.node[5].appl 	IntersectionEnterTime 	12.25
scalar IntersectionExampleScenario.node[5].appl 	IntersectionExitTime 	56.26453412784
scalar IntersectionExampleScenario.node[5].appl 	NumberOfCollisions 	0
scalar IntersectionExampleScenario.node[5].nic.phy80211p 	busyTime 	0
scalar IntersectionExampleScenario.node[5].nic.mac1609_4 	ReceivedUnicastPackets 	0
scalar IntersectionExampleScenario.node[5].nic.mac1609_4 	ReceivedBroadcasts 	0
scalar IntersectionExampleScenario.node[5].nic.mac1609_4 	SentPackets 	0
scalar IntersectionExampleScenario.node[5].nic.mac1609_4 	SNIRLostPackets 	0
scalar IntersectionExampleScenario.node[5].nic.mac1609_4 	RXTXLostPackets 	0
scalar IntersectionExampleScenario.node[5].nic.mac1609_4 	TotalLostPackets 	0
scalar IntersectionExampleScenario.node[5].nic.mac1609_4 	DroppedPacketsInMac 	0
scalar IntersectionExampleScenario.node[5].nic.mac1609_4 	TooLittleTime 	0
scalar IntersectionExampleScenario.node[5].nic.mac1609_4 	TimesIntoBackoff 	0
scalar IntersectionExampleScenario.node[5].nic.mac1609_4 	SlotsBackoff 	0
scalar IntersectionExampleScenario.node[5].nic.mac1609_4 	NumInternalContention 	0
scalar IntersectionExampleScenario.node[5].nic.mac1609_4 	totalBusyTime 	0
scalar IntersectionExampleScenario.node[5].veinsmobility 	startTime 	12.25
scalar IntersectionExampleScenario.node[5].veinsmobility 	totalTime 	60
scalar IntersectionExampleScenario.node[5].veinsmobility 	stopTime 	72.5
scalar IntersectionExampleScenario.node[5].veinsmobility 	minSpeed 	0
scalar IntersectionExampleScenario.node[5].veinsmobility 	maxSpeed 	15.465929031372
scalar IntersectionExampleScenario.node[5].veinsmobility 	totalDistance 	557.97894287109
scalar IntersectionExampleScenario.node[5].veinsmobility 	totalCO2Emission 	154.14158460872
scalar IntersectionExampleScenario.node[8].appl 	VehicleRemoved 	0
scalar IntersectionExampleScenario.node[8].appl 	ArrivedAtDest 	1
scalar IntersectionExampleScenario.node[8].appl 	IntersectionEnterTime 	15.75
scalar IntersectionExampleScenario.node[8].appl 	IntersectionExitTime 	57.118789190543
scalar IntersectionExampleScenario.node[8].appl 	NumberOfCollisions 	0
scalar IntersectionExampleScenario.node[8].nic.phy80211p 	busyTime 	0
scalar IntersectionExampleScenario.node[8].nic.mac1609_4 	ReceivedUnicastPackets 	0
scalar IntersectionExampleScenario.node[8].nic.mac1609_4 	ReceivedBroadcasts 	0
scalar IntersectionExampleScenario.node[8].nic.mac1609_4 	SentPackets 	0
scalar IntersectionExampleScenario.node[8].nic.mac1609_4 	SNIRLostPackets 	0
scalar IntersectionExampleScenario.node[8].nic.mac1609_4 	RXTXLostPackets 	0
scalar IntersectionExampleScenario.node[8].nic.mac1609_4 	TotalLostPackets 	0
scalar IntersectionExampleScenario.node[8].nic.mac1609_4 	DroppedPacketsInMac 	0
scalar IntersectionExampleScenario.node[8].nic.mac1609_4 	TooLittleTime 	0
scalar IntersectionExampleScenario.node[8].nic.mac1609_4 	TimesIntoBackoff 	0
scalar IntersectionExampleScenario.node[8].nic.mac1609_4 	SlotsBackoff 	0
scalar IntersectionExampleScenario.node[8].nic.mac1609_4 	NumInternalContention 	0
scalar IntersectionExampleScenario.node[8].nic.mac1609_4 	totalBusyTime 	0
scalar IntersectionExampleScenario.node[8].veinsmobility 	startTime 	15.75
scalar IntersectionExampleScenario.node[8].veinsmobility 	totalTime 	57.5
scalar IntersectionExampleScenario.node[8].veinsmobility 	stopTime 	73.5
scalar IntersectionExampleScenario.node[8].veinsmobility 	minSpeed 	0
scalar IntersectionExampleScenario.node[8].veinsmobility 	maxSpeed 	15.875
scalar IntersectionExampleScenario.node[8].veinsmobility 	totalDistance 	555.9877561359
scalar IntersectionExampleScenario.node[8].veinsmobility 	totalCO2Emission 	155.12562116235
scalar IntersectionExampleScenario.node[12].appl 	VehicleRemoved 	0
scalar IntersectionExampleScenario.node[12].appl 	ArrivedAtDest 	1
scalar IntersectionExampleScenario.node[12].appl 	IntersectionEnterTime 	21.25
scalar IntersectionExampleScenario.node[12].appl 	IntersectionExitTime 	59.782987838233
scalar IntersectionExampleScenario.node[12].appl 	NumberOfCollisions 	0
scalar IntersectionExampleScenario.node[12].nic.phy80211p 	busyTime 	0
scalar IntersectionExampleScenario.node[12].nic.mac1609_4 	ReceivedUnicastPackets 	0
scalar IntersectionExampleScenario.node[12].nic.mac1609_4 	ReceivedBroadcasts 	0
scalar IntersectionExampleScenario.node[12].nic.mac1609_4 	SentPackets 	0
scalar IntersectionExampleScenario.node[12].nic.mac1609_4 	SNIRLostPackets 	0
scalar IntersectionExampleScenario.node[12].nic.mac1609_4 	RXTXLostPackets 	0
scalar IntersectionExampleScenario.node[12].nic.mac1609_4 	TotalLostPackets 	0
scalar IntersectionExampleScenario.node[12].nic.mac1609_4 	DroppedPacketsInMac 	0
scalar IntersectionExampleScenario.node[12].nic.mac1609_4 	TooLittleTime 	0
scalar IntersectionExampleScenario.node[12].nic.mac1609_4 	TimesIntoBackoff 	0
scalar IntersectionExampleScenario.node[12].nic.mac1609_4 	SlotsBackoff 	0
scalar IntersectionExampleScenario.node[12].nic.mac1609_4 	NumInternalContention 	0
scalar IntersectionExampleScenario.node[12].nic.mac1609_4 	totalBusyTime 	0
scalar IntersectionExampleScenario.node[12].veinsmobility 	startTime 	21.25
scalar IntersectionExampleScenario.node[12].veinsmobility 	totalTime 	55.5
scalar IntersectionExampleScenario.node[12].veinsmobility 	stopTime 	77
scalar IntersectionExampleScenario.node[12].veinsmobility 	minSpeed 	0
scalar IntersectionExampleScenario.node[12].veinsmobility 	maxSpeed 	15.25
scalar IntersectionExampleScenario.node[12].veinsmobility 	totalDistance 	545.48401141945
scalar IntersectionExampleScenario.node[12].veinsmobility 	totalCO2Emission 	142.3706521051
scalar IntersectionExampleScenario.node[20].appl 	VehicleRemoved 	0
scalar IntersectionExampleScenario.node[20].appl 	ArrivedAtDest 	1
scalar IntersectionExampleScenario.node[20].appl 	IntersectionEnterTime 	37
scalar IntersectionExampleScenario.node[20].appl 	IntersectionExitTime 	61.86770471395
scalar IntersectionExampleScenario.node[20].appl 	NumberOfCollisions 	0
scalar IntersectionExampleScenario.node[20].nic.phy80211p 	busyTime 	0
scalar IntersectionExampleScenario.node[20].nic.mac1609_4 	ReceivedUnicastPackets 	0
scalar IntersectionExampleScenario.node[20].nic.mac1609_4 	ReceivedBroadcasts 	0
scalar IntersectionExampleScenario.node[20].nic.mac1609_4 	SentPackets 	0
scalar IntersectionExampleScenario.node[20].nic.mac1609_4 	SNIRLostPackets 	0
scalar IntersectionExampleScenario.node[20].nic.mac1609_4 	RXTXLostPackets 	0
scalar IntersectionExampleScenario.node[20].nic.mac1609_4 	TotalLostPackets 	0
scalar IntersectionExampleScenario.node[20].nic.mac1609_4 	DroppedPacketsInMac 	0
scalar IntersectionExampleScenario.node[20].nic.mac1609_4 	TooLittleTime 	0
scalar IntersectionExampleScenario.node[20].nic.mac1609_4 	TimesIntoBackoff 	0
scalar IntersectionExampleScenario.node[20].nic.mac1609_4 	SlotsBackoff 	0
scalar IntersectionExampleScenario.node[20].nic.mac1609_4 	NumInternalContention 	0
scalar IntersectionExampleScenario.node[20].nic.mac1609_4 	totalBusyTime 	0
scalar IntersectionExampleScenario.node[20].veinsmobility 	startTime 	37
scalar IntersectionExampleScenario.node[20].veinsmobility 	totalTime 	40.75
scalar IntersectionExampleScenario.node[20].veinsmobility 	stopTime 	78
scalar IntersectionExampleScenario.node[20].veinsmobility 	minSpeed 	5.6500000953674
scalar IntersectionExampleScenario.node[20].veinsmobility 	maxSpeed 	15.64999961853
scalar IntersectionExampleScenario.node[20].veinsmobility 	totalDistance 	553.78779602051
scalar IntersectionExampleScenario.node[20].veinsmobility 	totalCO2Emission 	135.01339756565
scalar IntersectionExampleScenario.node[16].appl 	VehicleRemoved 	0
scalar IntersectionExampleScenario.node[16].appl 	ArrivedAtDest 	1
scalar IntersectionExampleScenario.node[16].appl 	IntersectionEnterTime 	29.25
scalar IntersectionExampleScenario.node[16].appl 	IntersectionExitTime 	66.322595971811
scalar IntersectionExampleScenario.node[16].appl 	NumberOfCollisions 	0
scalar IntersectionExampleScenario.node[16].nic.phy80211p 	busyTime 	0
scalar IntersectionExampleScenario.node[16].nic.mac1609_4 	ReceivedUnicastPackets 	0
scalar IntersectionExampleScenario.node[16].nic.mac1609_4 	ReceivedBroadcasts 	0
scalar IntersectionExampleScenario.node[16].nic.mac1609_4 	SentPackets 	0
scalar IntersectionExampleScenario.node[16].nic.mac1609_4 	SNIRLostPackets 	0
scalar IntersectionExampleScenario.node[16].nic.mac1609_4 	RXTXLostPackets 	0
scalar IntersectionExampleScenario.node[16].nic.mac1609_4 	TotalLostPackets 	0
scalar IntersectionExampleScenario.node[16].nic.mac1609_4 	DroppedPacketsInMac 	0
scalar IntersectionExampleScenario.node[16].nic.mac1609_4 	TooLittleTime 	0
scalar IntersectionExampleScenario.node[16].nic.mac1609_4 	TimesIntoBackoff 	0
scalar IntersectionExampleScenario.node[16].nic.mac1609_4 	SlotsBackoff 	0
scalar IntersectionExampleScenario.node[16].nic.mac1609_4 	NumInternalContention 	0
scalar IntersectionExampleScenario.node[16].nic.mac1609_4 	totalBusyTime 	0
scalar IntersectionExampleScenario.node[16].veinsmobility 	startTime 	29.25
scalar IntersectionExampleScenario.node[16].veinsmobility 	totalTime 	52.5
scalar IntersectionExampleScenario.node[16].veinsmobility 	stopTime 	82
scalar IntersectionExampleScenario.node[16].veinsmobility 	minSpeed 	0
scalar IntersectionExampleScenario.node[16].veinsmobility 	maxSpeed 	16.27499961853
scalar IntersectionExampleScenario.node[16].veinsmobility 	totalDistance 	554.21292877197
scalar IntersectionExampleScenario.node[16].veinsmobility 	totalCO2Emission 	150.58471467036
scalar IntersectionExampleScenario.node[15].appl 	VehicleRemoved 	0
scalar IntersectionExampleScenario.node[15].appl 	ArrivedAtDest 	1
scalar IntersectionExampleScenario.node[15].appl 	IntersectionEnterTime 	29
scalar IntersectionExampleScenario.node[15].appl 	IntersectionExitTime 	65.586690932483
scalar IntersectionExampleScenario.node[15].appl 	NumberOfCollisions 	0
scalar IntersectionExampleScenario.node[15].nic.phy80211p 	busyTime 	0
scalar IntersectionExampleScenario.node[15].nic.mac1609_4 	ReceivedUnicastPackets 	0
scalar IntersectionExampleScenario.node[15].nic.mac1609_4 	ReceivedBroadcasts 	0
scalar IntersectionExampleScenario.node[15].nic.mac1609_4 	SentPackets 	0
scalar IntersectionExampleScenario.node[15].nic.mac1609_4 	SNIRLostPackets 	0
scalar IntersectionExampleScenario.node[15].nic.mac1609_4 	RXTXLostPackets 	0
scalar IntersectionExampleScenario.node[15].nic.mac1609_4 	TotalLostPackets 	0
scalar IntersectionExampleScenario.node[15].nic.mac1609_4 	DroppedPacketsInMac 	0
scalar IntersectionExampleScenario.node[15].nic.mac1609_4 	TooLittleTime 	0
scalar IntersectionExampleScenario.node[15].nic.mac1609_4 	TimesIntoBackoff 	0
scalar IntersectionExampleScenario.node[15].nic.mac1609_4 	SlotsBackoff 	0
scalar IntersectionExampleScenario.node[15].nic.mac1609_4 	NumInternalContention 	0
scalar IntersectionExampleScenario.node[15].nic.mac1609_4 	totalBusyTime 	0
scalar IntersectionExampleScenario.node[15].veinsmobility 	startTime 	29
scalar IntersectionExampleScenario.node[15].veinsmobility 	totalTime 	53.25
scalar IntersectionExampleScenario.node[15].veinsmobility 	stopTime 	82.5
scalar IntersectionExampleScenario.node[15].veinsmobility 	minSpeed 	0
scalar IntersectionExampleScenario.node[15].veinsmobility 	maxSpeed 	15.64999961853
scalar IntersectionExampleScenario.node[15].veinsmobility 	totalDistance 	543.37081052214
scalar IntersectionExampleScenario.node[15].veinsmobility 	totalCO2Emission 	144.49663815153
scalar IntersectionExampleScenario.node[17].appl 	VehicleRemoved 	0
scalar IntersectionExampleScenario.node[17].appl 	ArrivedAtDest 	1
scalar IntersectionExampleScenario.node[17].appl 	IntersectionEnterTime 	30
scalar IntersectionExampleScenario.node[17].appl 	IntersectionExitTime 	68.029152333096
scalar IntersectionExampleScenario.node[17].appl 	NumberOfCollisions 	0
scalar IntersectionExampleScenario.node[17].nic.phy80211p 	busyTime 	0
scalar IntersectionExampleScenario.node[17].nic.mac1609_4 	ReceivedUnicastPackets 	0
scalar IntersectionExampleScenario.node[17].nic.mac1609_4 	ReceivedBroadcasts 	0
scalar IntersectionExampleScenario.node[17].nic.mac1609_4 	SentPackets 	0
scalar IntersectionExampleScenario.node[17].nic.mac1609_4 	SNIRLostPackets 	0
scalar IntersectionExampleScenario.node[17].nic.mac1609_4 	RXTXLostPackets 	0
scalar IntersectionExampleScenario.node[17].nic.mac1609_4 	TotalLostPackets 	0
scalar IntersectionExampleScenario.node[17].nic.mac1609_4 	DroppedPacketsInMac 	0
scalar IntersectionExampleScenario.node[17].nic.mac1609_4 	TooLittleTime 	0
scalar IntersectionExampleScenario.node[17].nic.mac1609_4 	TimesIntoBackoff 	0
scalar IntersectionExampleScenario.node[17].nic.mac1609_4 	SlotsBackoff 	0
scalar IntersectionExampleScenario.node[17].nic.mac1609_4 	NumInternalContention 	0
scalar IntersectionExampleScenario.node[17].nic.mac1609_4 	totalBusyTime 	0
scalar IntersectionExampleScenario.node[17].veinsmobility 	startTime 	30
scalar IntersectionExampleScenario.node[17].veinsmobility 	totalTime 	54.25
scalar IntersectionExampleScenario.node[17].veinsmobility 	stopTime 	84.5
scalar IntersectionExampleScenario.node[17].veinsmobility 	minSpeed 	0
scalar IntersectionExampleScenario.node[17].veinsmobility 	maxSpeed 	15.336415290833
scalar IntersectionExampleScenario.node[17].veinsmobility 	totalDistance 	573.16127320804
scalar IntersectionExampleScenario.node[17].veinsmobility 	totalCO2Emission 	148.38024665685
scalar IntersectionExampleScenario.node[18].appl 	VehicleRemoved 	0
scalar IntersectionExampleScenario.node[18].appl 	ArrivedAtDest 	1
scalar IntersectionExampleScenario.node[18].appl 	IntersectionEnterTime 	31
scalar IntersectionExampleScenario.node[18].appl 	IntersectionExitTime 	67.356001950568
scalar IntersectionExampleScenario.node[18].appl 	NumberOfCollisions 	0
scalar IntersectionExampleScenario.node[18].nic.phy80211p 	busyTime 	0
scalar IntersectionExampleScenario.node[18].nic.mac1609_4 	ReceivedUnicastPackets 	0
scalar IntersectionExampleScenario.node[18].nic.mac1609_4 	ReceivedBroadcasts 	0
scalar IntersectionExampleScenario.node[18].nic.mac1609_4 	SentPackets 	0
scalar IntersectionExampleScenario.node[18].nic.mac1609_4 	SNIRLostPackets 	0
scalar IntersectionExampleScenario.node[18].nic.mac1609_4 	RXTXLostPackets 	0
scalar IntersectionExampleScenario.node[18].nic.mac1609_4 	TotalLostPackets 	0
scalar IntersectionExampleScenario.node[18].nic.mac1609_4 	DroppedPacketsInMac 	0
scalar IntersectionExampleScenario.node[18].nic.mac1609_4 	TooLittleTime 	0
scalar IntersectionExampleScenario.node[18].nic.mac1609_4 	TimesIntoBackoff 	0
scalar IntersectionExampleScenario.node[18].nic.mac1609_4 	SlotsBackoff 	0
scalar IntersectionExampleScenario.node[18].nic.mac1609_4 	NumInternalContention 	0
scalar IntersectionExampleScenario.node[18].nic.mac1609_4 	totalBusyTime 	0
scalar IntersectionExampleScenario.node[18].veinsmobility 	startTime 	31
scalar IntersectionExampleScenario.node[18].veinsmobility 	totalTime 	53.75
scalar IntersectionExampleScenario.node[18].veinsmobility 	stopTime 	85
scalar IntersectionExampleScenario.node[18].veinsmobility 	minSpeed 	0
scalar IntersectionExampleScenario.node[18].veinsmobility 	maxSpeed 	14.39999961853
scalar IntersectionExampleScenario.node[18].veinsmobility 	totalDistance 	572.02412414551
scalar IntersectionExampleScenario.node[18].veinsmobility 	totalCO2Emission 	135.71129930145
scalar IntersectionExampleScenario.node[19].appl 	VehicleRemoved 	0
scalar IntersectionExampleScenario.node[19].appl 	ArrivedAtDest 	1
scalar IntersectionExampleScenario.node[19].appl 	IntersectionEnterTime 	36
scalar IntersectionExampleScenario.node[19].appl 	IntersectionExitTime 	69.619311389455
scalar IntersectionExampleScenario.node[19].appl 	NumberOfCollisions 	0
scalar IntersectionExampleScenario.node[19].nic.phy80211p 	busyTime 	0
scalar IntersectionExampleScenario.node[19].nic.mac1609_4 	ReceivedUnicastPackets 	0
scalar IntersectionExampleScenario.node[19].nic.mac1609_4 	ReceivedBroadcasts 	0
scalar IntersectionExampleScenario.node[19].nic.mac1609_4 	SentPackets 	0
scalar IntersectionExampleScenario.node[19].nic.mac1609_4 	SNIRLostPackets 	0
scalar IntersectionExampleScenario.node[19].nic.mac1609_4 	RXTXLostPackets 	0
scalar IntersectionExampleScenario.node[19].nic.mac1609_4 	TotalLostPackets 	0
scalar IntersectionExampleScenario.node[19].nic.mac1609_4 	DroppedPacketsInMac 	0
scalar IntersectionExampleScenario.node[19].nic.mac1609_4 	TooLittleTime 	0
scalar IntersectionExampleScenario.node[19].nic.mac1609_4 	TimesIntoBackoff 	0
scalar IntersectionExampleScenario.node[19].nic.mac1609_4 	SlotsBackoff 	0
scalar IntersectionExampleScenario.node[19].nic.mac1609_4 	NumInternalContention 	0
scalar IntersectionExampleScenario.node[19].nic.mac1609_4 	totalBusyTime 	0
scalar IntersectionExampleScenario.node[19].veinsmobility 	startTime 	36
scalar IntersectionExampleScenario.node[19].veinsmobility 	totalTime 	50
scalar IntersectionExampleScenario.node[19].veinsmobility 	stopTime 	86.25
scalar IntersectionExampleScenario.node[19].veinsmobility 	minSpeed 	2.1261794567108
scalar IntersectionExampleScenario.node[19].veinsmobility 	maxSpeed 	15.295250892639
scalar IntersectionExampleScenario.node[19].veinsmobility 	totalDistance 	560.31085205078
scalar IntersectionExampleScenario.node[19].veinsmobility 	totalCO2Emission 	142.51747104461
scalar IntersectionExampleScenario.node[22].appl 	VehicleRemoved 	0
scalar IntersectionExampleScenario.node[22].appl 	ArrivedAtDest 	1
scalar IntersectionExampleScenario.node[22].appl 	IntersectionEnterTime 	43.5
scalar IntersectionExampleScenario.node[22].appl 	IntersectionExitTime 	70.119677177951
scalar IntersectionExampleScenario.node[22].appl 	NumberOfCollisions 	0
scalar IntersectionExampleScenario.node[22].nic.phy80211p 	busyTime 	0
scalar IntersectionExampleScenario.node[22].nic.mac1609_4 	ReceivedUnicastPackets 	0
scalar IntersectionExampleScenario.node[22].nic.mac1609_4 	ReceivedBroadcasts 	0
scalar IntersectionExampleScenario.node[22].nic.mac1609_4 	SentPackets 	0
scalar IntersectionExampleScenario.node[22].nic.mac1609_4 	SNIRLostPackets 	0
scalar IntersectionExampleScenario.node[22].nic.mac1609_4 	RXTXLostPackets 	0
scalar IntersectionExampleScenario.node[22].nic.mac1609_4 	TotalLostPackets 	0
scalar IntersectionExampleScenario.node[22].nic.mac1609_4 	DroppedPacketsInMac 	0
scalar IntersectionExampleScenario.node[22].nic.mac1609_4 	TooLittleTime 	0
scalar IntersectionExampleScenario.node[22].nic.mac1609_4 	TimesIntoBackoff 	0
scalar IntersectionExampleScenario.node[22].nic.mac1609_4 	SlotsBackoff 	0
scalar IntersectionExampleScenario.node[22].nic.mac1609_4 	NumInternalContention 	0
scalar IntersectionExampleScenario.node[22].nic.mac1609_4 	totalBusyTime 	0
scalar IntersectionExampleScenario.node[22].veinsmobility 	startTime 	43.5
scalar IntersectionExampleScenario.node[22].veinsmobility 	totalTime 	44.25
scalar IntersectionExampleScenario.node[22].veinsmobility 	stopTime 	88
scalar IntersectionExampleScenario.node[22].veinsmobility 	minSpeed 	5.6500000953674
scalar IntersectionExampleScenario.node[22].veinsmobility 	maxSpeed 	14.625
scalar IntersectionExampleScenario.node[22].veinsmobility 	totalDistance 	546.37735049966
scalar IntersectionExampleScenario.node[22].veinsmobility 	totalCO2Emission 	134.31185767269
scalar IntersectionExampleScenario.node[6].appl 	VehicleRemoved 	0
scalar IntersectionExampleScenario.node[6].appl 	ArrivedAtDest 	1
scalar IntersectionExampleScenario.node[6].appl 	IntersectionEnterTime 	13.5
scalar IntersectionExampleScenario.node[6].appl 	IntersectionExitTime 	76.352021037368
scalar IntersectionExampleScenario.node[6].appl 	NumberOfCollisions 	0
scalar IntersectionExampleScenario.node[6].nic.phy80211p 	busyTime 	0
scalar IntersectionExampleScenario.node[6].nic.mac1609_4 	ReceivedUnicastPackets 	0
scalar IntersectionExampleScenario.node[6].nic.mac1609_4 	ReceivedBroadcasts 	0
scalar IntersectionExampleScenario.node[6].nic.mac1609_4 	SentPackets 	0
scalar IntersectionExampleScenario.node[6].nic.mac1609_4 	SNIRLostPackets 	0
scalar IntersectionExampleScenario.node[6].nic.mac1609_4 	RXTXLostPackets 	0
scalar IntersectionExampleScenario.node[6].nic.mac1609_4 	TotalLostPackets 	0
scalar IntersectionExampleScenario.node[6].nic.mac1609_4 	DroppedPacketsInMac 	0
scalar IntersectionExampleScenario.node[6].nic.mac1609_4 	TooLittleTime 	0
scalar IntersectionExampleScenario.node[6].nic.mac1609_4 	TimesIntoBackoff 	0
scalar IntersectionExampleScenario.node[6].nic.mac1609_4 	SlotsBackoff 	0
scalar IntersectionExampleScenario.node[6].nic.mac1609_4 	NumInternalContention 	0
scalar IntersectionExampleScenario.node[6].nic.mac1609_4 	totalBusyTime 	0
scalar IntersectionExampleScenario.node[6].veinsmobility 	startTime 	13.5
scalar IntersectionExampleScenario.node[6].veinsmobility 	totalTime 	78.25
scalar IntersectionExampleScenario.node[6].veinsmobility 	stopTime 	92
scalar IntersectionExampleScenario.node[6].veinsmobility 	minSpeed 	0
scalar IntersectionExampleScenario.node[6].veinsmobility 	maxSpeed 	16
scalar IntersectionExampleScenario.node[6].veinsmobility 	totalDistance 	561.17089189639
scalar IntersectionExampleScenario.node[6].veinsmobility 	totalCO2Emission 	188.89641302824
scalar IntersectionExampleScenario.node[9].appl 	VehicleRemoved 	0
scalar IntersectionExampleScenario.node[9].appl 	ArrivedAtDest 	1
scalar IntersectionExampleScenario.node[9].appl 	IntersectionEnterTime 	16
scalar IntersectionExampleScenario.node[9].appl 	IntersectionExitTime 	77.306413551152
scalar IntersectionExampleScenario.node[9].appl 	NumberOfCollisions 	0
scalar IntersectionExampleScenario.node[9].nic.phy80211p 	busyTime 	0
scalar IntersectionExampleScenario.node[9].nic.mac1609_4 	ReceivedUnicastPackets 	0
scalar IntersectionExampleScenario.node[9].nic.mac1609_4 	ReceivedBroadcasts 	0
scalar IntersectionExampleScenario.node[9].nic.mac1609_4 	SentPackets 	0
scalar IntersectionExampleScenario.node[9].nic.mac1609_4 	SNIRLostPackets 	0
scalar IntersectionExampleScenario.node[9].nic.mac1609_4 	RXTXLostPackets 	0
scalar IntersectionExampleScenario.node[9].nic.mac1609_4 	TotalLostPackets 	0
scalar IntersectionExampleScenario.node[9].nic.mac1609_4 	DroppedPacketsInMac 	0
scalar IntersectionExampleScenario.node[9].nic.mac1609_4 	TooLittleTime 	0
scalar IntersectionExampleScenario.node[9].nic.mac1609_4 	TimesIntoBackoff 	0
scalar IntersectionExampleScenario.node[9].nic.mac1609_4 	SlotsBackoff 	0
scalar IntersectionExampleScenario.node[9].nic.mac1609_4 	NumInternalContention 	0
scalar IntersectionExampleScenario.node[9].nic.mac1609_4 	totalBusyTime 	0
scalar IntersectionExampleScenario.node[9].veinsmobility 	startTime 	16
scalar IntersectionExampleScenario.node[9].veinsmobility 	totalTime 	77.5
scalar IntersectionExampleScenario.node[9].veinsmobility 	stopTime 	93.75
scalar IntersectionExampleScenario.node[9].veinsmobility 	minSpeed 	0
scalar IntersectionExampleScenario.node[9].veinsmobility 	maxSpeed 	15.355266571045
scalar IntersectionExampleScenario.node[9].veinsmobility 	totalDistance 	577.35949707031
scalar IntersectionExampleScenario.node[9].veinsmobility 	totalCO2Emission 	176.19153741233
scalar IntersectionExampleScenario.node[10].appl 	VehicleRemoved 	0
scalar IntersectionExampleScenario.node[10].appl 	ArrivedAtDest 	1
scalar IntersectionExampleScenario.node[10].appl 	IntersectionEnterTime 	16.75
scalar IntersectionExampleScenario.node[10].appl 	IntersectionExitTime 	79.533571971871
scalar IntersectionExampleScenario.node[10].appl 	NumberOfCollisions 	0
scalar IntersectionExampleScenario.node[10].nic.phy80211p 	busyTime 	0
scalar IntersectionExampleScenario.node[10].nic.mac1609_4 	ReceivedUnicastPackets 	0
scalar IntersectionExampleScenario.node[10].nic.mac1609_4 	ReceivedBroadcasts 	0
scalar IntersectionExampleScenario.node[10].nic.mac1609_4 	SentPackets 	0
scalar IntersectionExampleScenario.node[10].nic.mac1609_4 	SNIRLostPackets 	0
scalar IntersectionExampleScenario.node[10].nic.mac1609_4 	RXTXLostPackets 	0
scalar IntersectionExampleScenario.node[10].nic.mac1609_4 	TotalLostPackets 	0
scalar IntersectionExampleScenario.node[10].nic.mac1609_4 	DroppedPacketsInMac 	0
scalar IntersectionExampleScenario.node[10].nic.mac1609_4 	TooLittleTime 	0
scalar IntersectionExampleScenario.node[10].nic.mac1609_4 	TimesIntoBackoff 	0
scalar IntersectionExampleScenario.node[10].nic.mac1609_4 	SlotsBackoff 	0
scalar IntersectionExampleScenario.node[10].nic.mac1609_4 	NumInternalContention 	0
scalar IntersectionExampleScenario.node[10].nic.mac1609_4 	totalBusyTime 	0
scalar IntersectionExampleScenario.node[10].veinsmobility 	startTime 	16.75
scalar IntersectionExampleScenario.node[10].veinsmobility 	totalTime 	79.25
scalar IntersectionExampleScenario.node[10].veinsmobility 	stopTime 	96.25
scalar IntersectionExampleScenario.node[10].veinsmobility 	minSpeed 	0
scalar IntersectionExampleScenario.node[10].veinsmobility 	maxSpeed 	15.875
scalar IntersectionExampleScenario.node[10].veinsmobility 	totalDistance 	577.74203820501
scalar IntersectionExampleScenario.node[10].veinsmobility 	totalCO2Emission 	177.10137617241
scalar IntersectionExampleScenario.node[13].appl 	VehicleRemoved 	0
scalar IntersectionExampleScenario.node[13].appl 	ArrivedAtDest 	1
scalar IntersectionExampleScenario.node[13].appl 	IntersectionEnterTime 	23
scalar IntersectionExampleScenario.node[13].appl 	IntersectionExitTime 	82.055399946577
scalar IntersectionExampleScenario.node[13].appl 	NumberOfCollisions 	0
scalar IntersectionExampleScenario.node[13].nic.phy80211p 	busyTime 	0
scalar IntersectionExampleScenario.node[13].nic.mac1609_4 	ReceivedUnicastPackets 	0
scalar IntersectionExampleScenario.node[13].nic.mac1609_4 	ReceivedBroadcasts 	0
scalar IntersectionExampleScenario.node[13].nic.mac1609_4 	SentPackets 	0
scalar IntersectionExampleScenario.node[13].nic.mac1609_4 	SNIRLostPackets 	0
scalar IntersectionExampleScenario.node[13].nic.mac1609_4 	RXTXLostPackets 	0
scalar IntersectionExampleScenario.node[13].nic.mac1609_4 	TotalLostPackets 	0
scalar IntersectionExampleScenario.node[13].nic.mac1609_4 	DroppedPacketsInMac 	0
scalar IntersectionExampleScenario.node[13].nic.mac1609_4 	TooLittleTime 	0
scalar IntersectionExampleScenario.node[13].nic.mac1609_4 	TimesIntoBackoff 	0
scalar IntersectionExampleScenario.node[13].nic.mac1609_4 	SlotsBackoff 	0
scalar IntersectionExampleScenario.node[13].nic.mac1609_4 	NumInternalContention 	0
scalar IntersectionExampleScenario.node[13].nic.mac1609_4 	totalBusyTime 	0
scalar IntersectionExampleScenario.node[13].veinsmobility 	startTime 	23
scalar IntersectionExampleScenario.node[13].veinsmobility 	totalTime 	76
scalar IntersectionExampleScenario.node[13].veinsmobility 	stopTime 	99.25
scalar IntersectionExampleScenario.node[13].veinsmobility 	minSpeed 	0
scalar IntersectionExampleScenario.node[13].veinsmobility 	maxSpeed 	15.25
scalar IntersectionExampleScenario.node[13].veinsmobility 	totalDistance 	536.06168356033
scalar IntersectionExampleScenario.node[13].veinsmobility 	totalCO2Emission 	165.47165664281
scalar IntersectionExampleScenario.node[11].appl 	VehicleRemoved 	0
scalar IntersectionExampleScenario.node[11].appl 	ArrivedAtDest 	1
scalar IntersectionExampleScenario.node[11].appl 	IntersectionEnterTime 	21
scalar IntersectionExampleScenario.node[11].appl 	IntersectionExitTime 	83.752571544261
scalar IntersectionExampleScenario.node[11].appl 	NumberOfCollisions 	0
scalar IntersectionExampleScenario.node[11].nic.phy80211p 	busyTime 	0
scalar IntersectionExampleScenario.node[11].nic.mac1609_4 	ReceivedUnicastPackets 	0
scalar IntersectionExampleScenario.node[11].nic.mac1609_4 	ReceivedBroadcasts 	0
scalar IntersectionExampleScenario.node[11].nic.mac1609_4 	SentPackets 	0
scalar IntersectionExampleScenario.node[11].nic.mac1609_4 	SNIRLostPackets 	0
scalar IntersectionExampleScenario.node[11].nic.mac1609_4 	RXTXLostPackets 	0
scalar IntersectionExampleScenario.node[11].nic.mac1609_4 	TotalLostPackets 	0
scalar IntersectionExampleScenario.node[11].nic.mac1609_4 	DroppedPacketsInMac 	0
scalar IntersectionExampleScenario.node[11].nic.mac1609_4 	TooLittleTime 	0
scalar IntersectionExampleScenario.node[11].nic.mac1609_4 	TimesIntoBackoff 	0
scalar IntersectionExampleScenario.node[11].nic.mac1609_4 	SlotsBackoff 	0
scalar IntersectionExampleScenario.node[11].nic.mac1609_4 	NumInternalContention 	0
scalar IntersectionExampleScenario.node[11].nic.mac1609_4 	totalBusyTime 	0
scalar IntersectionExampleScenario.node[11].veinsmobility 	startTime 	21
scalar IntersectionExampleScenario.node[11].veinsmobility 	totalTime 	78.75
scalar IntersectionExampleScenario.node[11].veinsmobility 	stopTime 	100
scalar IntersectionExampleScenario.node[11].veinsmobility 	minSpeed 	0
scalar IntersectionExampleScenario.node[11].veinsmobility 	maxSpeed 	15.5
scalar IntersectionExampleScenario.node[11].veinsmobility 	totalDistance 	578.4838180542
scalar IntersectionExampleScenario.node[11].veinsmobility 	totalCO2Emission 	177.96792333108
scalar IntersectionExampleScenario.node[21].appl 	VehicleRemoved 	0
scalar IntersectionExampleScenario.node[21].appl 	ArrivedAtDest 	1
scalar IntersectionExampleScenario.node[21].appl 	IntersectionEnterTime 	42.75
scalar IntersectionExampleScenario.node[21].appl 	IntersectionExitTime 	86.57742793372
scalar IntersectionExampleScenario.node[21].appl 	NumberOfCollisions 	0
scalar IntersectionExampleScenario.node[21].nic.phy80211p 	busyTime 	0
scalar IntersectionExampleScenario.node[21].nic.mac1609_4 	ReceivedUnicastPackets 	0
scalar IntersectionExampleScenario.node[21].nic.mac1609_4 	ReceivedBroadcasts 	0
scalar IntersectionExampleScenario.node[21].nic.mac1609_4 	SentPackets 	0
scalar IntersectionExampleScenario.node[21].nic.mac1609_4 	SNIRLostPackets 	0
scalar IntersectionExampleScenario.node[21].nic.mac1609_4 	RXTXLostPackets 	0
scalar IntersectionExampleScenario.node[21].nic.mac1609_4 	TotalLostPackets 	0
scalar IntersectionExampleScenario.node[21].nic.mac1609_4 	DroppedPacketsInMac 	0
scalar IntersectionExampleScenario.node[21].nic.mac1609_4 	TooLittleTime 	0
scalar IntersectionExampleScenario.node[21].nic.mac1609_4 	TimesIntoBackoff 	0
scalar IntersectionExampleScenario.node[21].nic.mac1609_4 	SlotsBackoff 	0
scalar IntersectionExampleScenario.node[21].nic.mac1609_4 	NumInternalContention 	0
scalar IntersectionExampleScenario.node[21].nic.mac1609_4 	totalBusyTime 	0
scalar IntersectionExampleScenario.node[21].veinsmobility 	startTime 	42.75
scalar IntersectionExampleScenario.node[21].veinsmobility 	totalTime 	60
scalar IntersectionExampleScenario.node[21].veinsmobility 	stopTime 	103
scalar IntersectionExampleScenario.node[21].veinsmobility 	minSpeed 	0
scalar IntersectionExampleScenario.node[21].veinsmobility 	maxSpeed 	16.322818756104
scalar IntersectionExampleScenario.node[21].veinsmobility 	totalDistance 	544.9174718991
scalar IntersectionExampleScenario.node[21].veinsmobility 	totalCO2Emission 	159.78751511296
scalar IntersectionExampleScenario.node[23].appl 	VehicleRemoved 	0
scalar IntersectionExampleScenario.node[23].appl 	ArrivedAtDest 	1
scalar IntersectionExampleScenario.node[23].appl 	IntersectionEnterTime 	47.25
scalar IntersectionExampleScenario.node[23].appl 	IntersectionExitTime 	89.086115959013
scalar IntersectionExampleScenario.node[23].appl 	NumberOfCollisions 	0
scalar IntersectionExampleScenario.node[23].nic.phy80211p 	busyTime 	0
scalar IntersectionExampleScenario.node[23].nic.mac1609_4 	ReceivedUnicastPackets 	0
scalar IntersectionExampleScenario.node[23].nic.mac1609_4 	ReceivedBroadcasts 	0
scalar IntersectionExampleScenario.node[23].nic.mac1609_4 	SentPackets 	0
scalar IntersectionExampleScenario.node[23].nic.mac1609_4 	SNIRLostPackets 	0
scalar IntersectionExampleScenario.node[23].nic.mac1609_4 	RXTXLostPackets 	0
scalar IntersectionExampleScenario.node[23].nic.mac1609_4 	TotalLostPackets 	0
scalar IntersectionExampleScenario.node[23].nic.mac1609_4 	DroppedPacketsInMac 	0
scalar IntersectionExampleScenario.node[23].nic.mac1609_4 	TooLittleTime 	0
scalar IntersectionExampleScenario.node[23].nic.mac1609_4 	TimesIntoBackoff 	0
scalar IntersectionExampleScenario.node[23].nic.mac1609_4 	SlotsBackoff 	0
scalar IntersectionExampleScenario.node[23].nic.mac1609_4 	NumInternalContention 	0
scalar IntersectionExampleScenario.node[23].nic.mac1609_4 	totalBusyTime 	0
scalar IntersectionExampleScenario.node[23].veinsmobility 	startTime 	47.25
scalar IntersectionExampleScenario.node[23].veinsmobility 	totalTime 	58.5
scalar IntersectionExampleScenario.node[23].veinsmobility 	stopTime 	106
scalar IntersectionExampleScenario.node[23].veinsmobility 	minSpeed 	0
scalar IntersectionExampleScenario.node[23].veinsmobility 	maxSpeed 	15.25
scalar IntersectionExampleScenario.node[23].veinsmobility 	totalDistance 	543.18667863822
scalar IntersectionExampleScenario.node[23].veinsmobility 	totalCO2Emission 	146.72339685224
scalar IntersectionExampleScenario.node[25].appl 	VehicleRemoved 	0
scalar IntersectionExampleScenario.node[25].appl 	ArrivedAtDest 	1
scalar IntersectionExampleScenario.node[25].appl 	IntersectionEnterTime 	61.75
scalar IntersectionExampleScenario.node[25].appl 	IntersectionExitTime 	96.576350882329
scalar IntersectionExampleScenario.node[25].appl 	NumberOfCollisions 	0
scalar IntersectionExampleScenario.node[25].nic.phy80211p 	busyTime 	0
scalar IntersectionExampleScenario.node[25].nic.mac1609_4 	ReceivedUnicastPackets 	0
scalar IntersectionExampleScenario.node[25].nic.mac1609_4 	ReceivedBroadcasts 	0
scalar IntersectionExampleScenario.node[25].nic.mac1609_4 	SentPackets 	0
scalar IntersectionExampleScenario.node[25].nic.mac1609_4 	SNIRLostPackets 	0
scalar IntersectionExampleScenario.node[25].nic.mac1609_4 	RXTXLostPackets 	0
scalar IntersectionExampleScenario.node[25].nic.mac1609_4 	TotalLostPackets 	0
scalar IntersectionExampleScenario.node[25].nic.mac1609_4 	DroppedPacketsInMac 	0
scalar IntersectionExampleScenario.node[25].nic.mac1609_4 	TooLittleTime 	0
scalar IntersectionExampleScenario.node[25].nic.mac1609_4 	TimesIntoBackoff 	0
scalar IntersectionExampleScenario.node[25].nic.mac1609_4 	SlotsBackoff 	0
scalar IntersectionExampleScenario.node[25].nic.mac1609_4 	NumInternalContention 	0
scalar IntersectionExampleScenario.node[25].nic.mac1609_4 	totalBusyTime 	0
scalar IntersectionExampleScenario.node[25].veinsmobility 	startTime 	61.75
scalar IntersectionExampleScenario.node[25].veinsmobility 	totalTime 	51.5
scalar IntersectionExampleScenario.node[25].veinsmobility 	stopTime 	113.5
scalar IntersectionExampleScenario.node[25].veinsmobility 	minSpeed 	0
scalar IntersectionExampleScenario.node[25].veinsmobility 	maxSpeed 	15.875
scalar IntersectionExampleScenario.node[25].veinsmobility 	totalDistance 	546.14745236785
scalar IntersectionExampleScenario.node[25].veinsmobility 	totalCO2Emission 	144.39318789864
scalar IntersectionExampleScenario.node[24].appl 	VehicleRemoved 	0
scalar IntersectionExampleScenario.node[24].appl 	ArrivedAtDest 	1
scalar IntersectionExampleScenario.node[24].appl 	IntersectionEnterTime 	52.5
scalar IntersectionExampleScenario.node[24].appl 	IntersectionExitTime 	96.500738669769
scalar IntersectionExampleScenario.node[24].appl 	NumberOfCollisions 	0
scalar IntersectionExampleScenario.node[24].nic.phy80211p 	busyTime 	0
scalar IntersectionExampleScenario.node[24].nic.mac1609_4 	ReceivedUnicastPackets 	0
scalar IntersectionExampleScenario.node[24].nic.mac1609_4 	ReceivedBroadcasts 	0
scalar IntersectionExampleScenario.node[24].nic.mac1609_4 	SentPackets 	0
scalar IntersectionExampleScenario.node[24].nic.mac1609_4 	SNIRLostPackets 	0
scalar IntersectionExampleScenario.node[24].nic.mac1609_4 	RXTXLostPackets 	0
scalar IntersectionExampleScenario.node[24].nic.mac1609_4 	TotalLostPackets 	0
scalar IntersectionExampleScenario.node[24].nic.mac1609_4 	DroppedPacketsInMac 	0
scalar IntersectionExampleScenario.node[24].nic.mac1609_4 	TooLittleTime 	0
scalar IntersectionExampleScenario.node[24].nic.mac1609_4 	TimesIntoBackoff 	0
scalar IntersectionExampleScenario.node[24].nic.mac1609_4 	SlotsBackoff 	0
scalar IntersectionExampleScenario.node[24].nic.mac1609_4 	NumInternalContention 	0
scalar IntersectionExampleScenario.node[24].nic.mac1609_4 	totalBusyTime 	0
scalar IntersectionExampleScenario.node[24].veinsmobility 	startTime 	52.5
scalar IntersectionExampleScenario.node[24].veinsmobility 	totalTime 	61
scalar IntersectionExampleScenario.node[24].veinsmobility 	stopTime 	113.75
scalar IntersectionExampleScenario.node[24].veinsmobility 	minSpeed 	0
scalar IntersectionExampleScenario.node[24].veinsmobility 	maxSpeed 	15.371500015259
scalar IntersectionExampleScenario.node[24].veinsmobility 	totalDistance 	545.00277615935
scalar IntersectionExampleScenario.node[24].veinsmobility 	totalCO2Emission 	151.37736303462
scalar IntersectionExampleScenario.node[26].appl 	VehicleRemoved 	0
scalar IntersectionExampleScenario.node[26].appl 	ArrivedAtDest 	1
scalar IntersectionExampleScenario.node[26].appl 	IntersectionEnterTime 	65
scalar IntersectionExampleScenario.node[26].appl 	IntersectionExitTime 	98.600091778877
scalar IntersectionExampleScenario.node[26].appl 	NumberOfCollisions 	0
scalar IntersectionExampleScenario.node[26].nic.phy80211p 	busyTime 	0
scalar IntersectionExampleScenario.node[26].nic.mac1609_4 	ReceivedUnicastPackets 	0
scalar IntersectionExampleScenario.node[26].nic.mac1609_4 	ReceivedBroadcasts 	0
scalar IntersectionExampleScenario.node[26].nic.mac1609_4 	SentPackets 	0
scalar IntersectionExampleScenario.node[26].nic.mac1609_4 	SNIRLostPackets 	0
scalar IntersectionExampleScenario.node[26].nic.mac1609_4 	RXTXLostPackets 	0
scalar IntersectionExampleScenario.node[26].nic.mac1609_4 	TotalLostPackets 	0
scalar IntersectionExampleScenario.node[26].nic.mac1609_4 	DroppedPacketsInMac 	0
scalar IntersectionExampleScenario.node[26].nic.mac1609_4 	TooLittleTime 	0
scalar IntersectionExampleScenario.node[26].nic.mac1609_4 	TimesIntoBackoff 	0
scalar IntersectionExampleScenario.node[26].nic.mac1609_4 	SlotsBackoff 	0
scalar IntersectionExampleScenario.node[26].nic.mac1609_4 	NumInternalContention 	0
scalar IntersectionExampleScenario.node[26].nic.mac1609_4 	totalBusyTime 	0
scalar IntersectionExampleScenario.node[26].veinsmobility 	startTime 	65
scalar IntersectionExampleScenario.node[26].veinsmobility 	totalTime 	49.25
scalar IntersectionExampleScenario.node[26].veinsmobility 	stopTime 	114.5
scalar IntersectionExampleScenario.node[26].veinsmobility 	minSpeed 	0.98592746257782
scalar IntersectionExampleScenario.node[26].veinsmobility 	maxSpeed 	16.372333526611
scalar IntersectionExampleScenario.node[26].veinsmobility 	totalDistance 	550.46464212992
scalar IntersectionExampleScenario.node[26].veinsmobility 	totalCO2Emission 	148.05855182564
scalar IntersectionExampleScenario.node[28].appl 	VehicleRemoved 	0
scalar IntersectionExampleScenario.node[28].appl 	ArrivedAtDest 	1
scalar IntersectionExampleScenario.node[28].appl 	IntersectionEnterTime 	71.75
scalar IntersectionExampleScenario.node[28].appl 	IntersectionExitTime 	99.302376853535
scalar IntersectionExampleScenario.node[28].appl 	NumberOfCollisions 	0
scalar IntersectionExampleScenario.node[28].nic.phy80211p 	busyTime 	0
scalar IntersectionExampleScenario.node[28].nic.mac1609_4 	ReceivedUnicastPackets 	0
scalar IntersectionExampleScenario.node[28].nic.mac1609_4 	ReceivedBroadcasts 	0
scalar IntersectionExampleScenario.node[28].nic.mac1609_4 	SentPackets 	0
scalar IntersectionExampleScenario.node[28].nic.mac1609_4 	SNIRLostPackets 	0
scalar IntersectionExampleScenario.node[28].nic.mac1609_4 	RXTXLostPackets 	0
scalar IntersectionExampleScenario.node[28].nic.mac1609_4 	TotalLostPackets 	0
scalar IntersectionExampleScenario.node[28].nic.mac1609_4 	DroppedPacketsInMac 	0
scalar IntersectionExampleScenario.node[28].nic.mac1609_4 	TooLittleTime 	0
scalar IntersectionExampleScenario.node[28].nic.mac1609_4 	TimesIntoBackoff 	0
scalar IntersectionExampleScenario.node[28].nic.mac1609_4 	SlotsBackoff 	0
scalar IntersectionExampleScenario.node[28].nic.mac1609_4 	NumInternalContention 	0
scalar IntersectionExampleScenario.node[28].nic.mac1609_4 	totalBusyTime 	0
scalar IntersectionExampleScenario.node[28].veinsmobility 	startTime 	71.75
scalar IntersectionExampleScenario.node[28].veinsmobility 	totalTime 	44.25
scalar IntersectionExampleScenario.node[28].veinsmobility 	stopTime 	116.25
scalar IntersectionExampleScenario.node[28].veinsmobility 	minSpeed 	4.886908531189
scalar IntersectionExampleScenario.node[28].veinsmobility 	maxSpeed 	15.293361663818
scalar IntersectionExampleScenario.node[28].veinsmobility 	totalDistance 	551.71737348023
scalar IntersectionExampleScenario.node[28].veinsmobility 	totalCO2Emission 	132.52986945572
scalar IntersectionExampleScenario.node[27].appl 	VehicleRemoved 	0
scalar IntersectionExampleScenario.node[27].appl 	ArrivedAtDest 	1
scalar IntersectionExampleScenario.node[27].appl 	IntersectionEnterTime 	66.75
scalar IntersectionExampleScenario.node[27].appl 	IntersectionExitTime 	101.29718009755
scalar IntersectionExampleScenario.node[27].appl 	NumberOfCollisions 	0
scalar IntersectionExampleScenario.node[27].nic.phy80211p 	busyTime 	0
scalar IntersectionExampleScenario.node[27].nic.mac1609_4 	ReceivedUnicastPackets 	0
scalar IntersectionExampleScenario.node[27].nic.mac1609_4 	ReceivedBroadcasts 	0
scalar IntersectionExampleScenario.node[27].nic.mac1609_4 	SentPackets 	0
scalar IntersectionExampleScenario.node[27].nic.mac1609_4 	SNIRLostPackets 	0
scalar IntersectionExampleScenario.node[27].nic.mac1609_4 	RXTXLostPackets 	0
scalar IntersectionExampleScenario.node[27].nic.mac1609_4 	TotalLostPackets 	0
scalar IntersectionExampleScenario.node[27].nic.mac1609_4 	DroppedPacketsInMac 	0
scalar IntersectionExampleScenario.node[27].nic.mac1609_4 	TooLittleTime 	0
scalar IntersectionExampleScenario.node[27].nic.mac1609_4 	TimesIntoBackoff 	0
scalar IntersectionExampleScenario.node[27].nic.mac1609_4 	SlotsBackoff 	0
scalar IntersectionExampleScenario.node[27].nic.mac1609_4 	NumInternalContention 	0
scalar IntersectionExampleScenario.node[27].nic.mac1609_4 	totalBusyTime 	0
scalar IntersectionExampleScenario.node[27].veinsmobility 	startTime 	66.75
scalar IntersectionExampleScenario.node[27].veinsmobility 	totalTime 	50.75
scalar IntersectionExampleScenario.node[27].veinsmobility 	stopTime 	117.75
scalar IntersectionExampleScenario.node[27].veinsmobility 	minSpeed 	0
scalar IntersectionExampleScenario.node[27].veinsmobility 	maxSpeed 	16.27499961853
scalar IntersectionExampleScenario.node[27].veinsmobility 	totalDistance 	564.76753140837
scalar IntersectionExampleScenario.node[27].veinsmobility 	totalCO2Emission 	160.5230911361
scalar IntersectionExampleScenario.node[31].appl 	VehicleRemoved 	0
scalar IntersectionExampleScenario.node[31].appl 	ArrivedAtDest 	1
scalar IntersectionExampleScenario.node[31].appl 	IntersectionEnterTime 	79.75
scalar IntersectionExampleScenario.node[31].appl 	IntersectionExitTime 	103.76930401361
scalar IntersectionExampleScenario.node[31].appl 	NumberOfCollisions 	0
scalar IntersectionExampleScenario.node[31].nic.phy80211p 	busyTime 	0
scalar IntersectionExampleScenario.node[31].nic.mac1609_4 	ReceivedUnicastPackets 	0
scalar IntersectionExampleScenario.node[31].nic.mac1609_4 	ReceivedBroadcasts 	0
scalar IntersectionExampleScenario.node[31].nic.mac1609_4 	SentPackets 	0
scalar IntersectionExampleScenario.node[31].nic.mac1609_4 	SNIRLostPackets 	0
scalar IntersectionExampleScenario.node[31].nic.mac1609_4 	RXTXLostPackets 	0
scalar IntersectionExampleScenario.node[31].nic.mac1609_4 	TotalLostPackets 	0
scalar IntersectionExampleScenario.node[31].nic.mac1609_4 	DroppedPacketsInMac 	0
scalar IntersectionExampleScenario.node[31].nic.mac1609_4 	TooLittleTime 	0
scalar IntersectionExampleScenario.node[31].nic.mac1609_4 	TimesIntoBackoff 	0
scalar IntersectionExampleScenario.node[31].nic.mac1609_4 	SlotsBackoff 	0
scalar IntersectionExampleScenario.node[31].nic.mac1609_4 	NumInternalContention 	0
scalar IntersectionExampleScenario.node[31].nic.mac1609_4 	totalBusyTime 	0
scalar IntersectionExampleScenario.node[31].veinsmobility 	startTime 	79.75
scalar IntersectionExampleScenario.node[31].veinsmobility 	totalTime 	40.5
scalar IntersectionExampleScenario.node[31].veinsmobility 	stopTime 	120.5
scalar IntersectionExampleScenario.node[31].veinsmobility 	minSpeed 	5.6500000953674
scalar IntersectionExampleScenario.node[31].veinsmobility 	maxSpeed 	15.876915931702
scalar IntersectionExampleScenario.node[31].veinsmobility 	totalDistance 	543.49567158386
scalar IntersectionExampleScenario.node[31].veinsmobility 	totalCO2Emission 	141.70636394374
scalar IntersectionExampleScenario.node[33].appl 	VehicleRemoved 	0
scalar IntersectionExampleScenario.node[33].appl 	ArrivedAtDest 	1
scalar IntersectionExampleScenario.node[33].appl 	IntersectionEnterTime 	82
scalar IntersectionExampleScenario.node[33].appl 	IntersectionExitTime 	105.52322854951
scalar IntersectionExampleScenario.node[33].appl 	NumberOfCollisions 	0
scalar IntersectionExampleScenario.node[33].nic.phy80211p 	busyTime 	0
scalar IntersectionExampleScenario.node[33].nic.mac1609_4 	ReceivedUnicastPackets 	0
scalar IntersectionExampleScenario.node[33].nic.mac1609_4 	ReceivedBroadcasts 	0
scalar IntersectionExampleScenario.node[33].nic.mac1609_4 	SentPackets 	0
scalar IntersectionExampleScenario.node[33].nic.mac1609_4 	SNIRLostPackets 	0
scalar IntersectionExampleScenario.node[33].nic.mac1609_4 	RXTXLostPackets 	0
scalar IntersectionExampleScenario.node[33].nic.mac1609_4 	TotalLostPackets 	0
scalar IntersectionExampleScenario.node[33].nic.mac1609_4 	DroppedPacketsInMac 	0
scalar IntersectionExampleScenario.node[33].nic.mac1609_4 	TooLittleTime 	0
scalar IntersectionExampleScenario.node[33].nic.mac1609_4 	TimesIntoBackoff 	0
scalar IntersectionExampleScenario.node[33].nic.mac1609_4 	SlotsBackoff 	0
scalar IntersectionExampleScenario.node[33].nic.mac1609_4 	NumInternalContention 	0
scalar IntersectionExampleScenario.node[33].nic.mac1609_4 	totalBusyTime 	0
scalar IntersectionExampleScenario.node[33].veinsmobility 	startTime 	82
scalar IntersectionExampleScenario.node[33].veinsmobility 	totalTime 	40.25
scalar IntersectionExampleScenario.node[33].veinsmobility 	stopTime 	122.5
scalar IntersectionExampleScenario.node[33].veinsmobility 	minSpeed 	5.6500000953674
scalar IntersectionExampleScenario.node[33].veinsmobility 	maxSpeed 	15.64999961853
scalar IntersectionExampleScenario.node[33].veinsmobility 	totalDistance 	544.61460114383
scalar IntersectionExampleScenario.node[33].veinsmobility 	totalCO2Emission 	126.5328211973
scalar IntersectionExampleScenario.node[14].appl 	VehicleRemoved 	0
scalar IntersectionExampleScenario.node[14].appl 	ArrivedAtDest 	1
scalar IntersectionExampleScenario.node[14].appl 	IntersectionEnterTime 	26.25
scalar IntersectionExampleScenario.node[14].appl 	IntersectionExitTime 	107.30127765163
scalar IntersectionExampleScenario.node[14].appl 	NumberOfCollisions 	0
scalar IntersectionExampleScenario.node[14].nic.phy80211p 	busyTime 	0
scalar IntersectionExampleScenario.node[14].nic.mac1609_4 	ReceivedUnicastPackets 	0
scalar IntersectionExampleScenario.node[14].nic.mac1609_4 	ReceivedBroadcasts 	0
scalar IntersectionExampleScenario.node[14].nic.mac1609_4 	SentPackets 	0
scalar IntersectionExampleScenario.node[14].nic.mac1609_4 	SNIRLostPackets 	0
scalar IntersectionExampleScenario.node[14].nic.mac1609_4 	RXTXLostPackets 	0
scalar IntersectionExampleScenario.node[14].nic.mac1609_4 	TotalLostPackets 	0
scalar IntersectionExampleScenario.node[14].nic.mac1609_4 	DroppedPacketsInMac 	0
scalar IntersectionExampleScenario.node[14].nic.mac1609_4 	TooLittleTime 	0
scalar IntersectionExampleScenario.node[14].nic.mac1609_4 	TimesIntoBackoff 	0
scalar IntersectionExampleScenario.node[14].nic.mac1609_4 	SlotsBackoff 	0
scalar IntersectionExampleScenario.node[14].nic.mac1609_4 	NumInternalContention 	0
scalar IntersectionExampleScenario.node[14].nic.mac1609_4 	totalBusyTime 	0
scalar IntersectionExampleScenario.node[14].veinsmobility 	startTime 	26.25
scalar IntersectionExampleScenario.node[14].veinsmobility 	totalTime 	97
scalar IntersectionExampleScenario.node[14].veinsmobility 	stopTime 	123.5
scalar IntersectionExampleScenario.node[14].veinsmobility 	minSpeed 	0
scalar IntersectionExampleScenario.node[14].veinsmobility 	maxSpeed 	15.375
scalar IntersectionExampleScenario.node[14].veinsmobility 	totalDistance 	566.70611681094
scalar IntersectionExampleScenario.node[14].veinsmobility 	totalCO2Emission 	208.19586977193
scalar IntersectionExampleScenario.node[32].appl 	VehicleRemoved 	0
scalar IntersectionExampleScenario.node[32].appl 	ArrivedAtDest 	1
scalar IntersectionExampleScenario.node[32].appl 	IntersectionEnterTime 	81.25
scalar IntersectionExampleScenario.node[32].appl 	IntersectionExitTime 	108.81363361873
scalar IntersectionExampleScenario.node[32].appl 	NumberOfCollisions 	0
scalar IntersectionExampleScenario.node[32].nic.phy80211p 	busyTime 	0
scalar IntersectionExampleScenario.node[32].nic.mac1609_4 	ReceivedUnicastPackets 	0
scalar IntersectionExampleScenario.node[32].nic.mac1609_4 	ReceivedBroadcasts 	0
scalar IntersectionExampleScenario.node[32].nic.mac1609_4 	SentPackets 	0
scalar IntersectionExampleScenario.node[32].nic.mac1609_4 	SNIRLostPackets 	0
scalar IntersectionExampleScenario.node[32].nic.mac1609_4 	RXTXLostPackets 	0
scalar IntersectionExampleScenario.node[32].nic.mac1609_4 	TotalLostPackets 	0
scalar IntersectionExampleScenario.node[32].nic.mac1609_4 	DroppedPacketsInMac 	0
scalar IntersectionExampleScenario.node[32].nic.mac1609_4 	TooLittleTime 	0
scalar IntersectionExampleScenario.node[32].nic.mac1609_4 	TimesIntoBackoff 	0
scalar IntersectionExampleScenario.node[32].nic.mac1609_4 	SlotsBackoff 	0
scalar IntersectionExampleScenario.node[32].nic.mac1609_4 	NumInternalContention 	0
scalar IntersectionExampleScenario.node[32].nic.mac1609_4 	totalBusyTime 	0
scalar IntersectionExampleScenario.node[32].veinsmobility 	startTime 	81.25
scalar IntersectionExampleScenario.node[32].veinsmobility 	totalTime 	43
scalar IntersectionExampleScenario.node[32].veinsmobility 	stopTime 	124.5
scalar IntersectionExampleScenario.node[32].veinsmobility 	minSpeed 	4.0116004943848
scalar IntersectionExampleScenario.node[32].veinsmobility 	maxSpeed 	16.27499961853
scalar IntersectionExampleScenario.node[32].veinsmobility 	totalDistance 	554.03787994385
scalar IntersectionExampleScenario.node[32].veinsmobility 	totalCO2Emission 	136.58262544296
scalar IntersectionExampleScenario.node[34].appl 	VehicleRemoved 	0
scalar IntersectionExampleScenario.node[34].appl 	ArrivedAtDest 	1
scalar IntersectionExampleScenario.node[34].appl 	IntersectionEnterTime 	85
scalar IntersectionExampleScenario.node[34].appl 	IntersectionExitTime 	111.79153237355
scalar IntersectionExampleScenario.node[34].appl 	NumberOfCollisions 	0
scalar IntersectionExampleScenario.node[34].nic.phy80211p 	busyTime 	0
scalar IntersectionExampleScenario.node[34].nic.mac1609_4 	ReceivedUnicastPackets 	0
scalar IntersectionExampleScenario.node[34].nic.mac1609_4 	ReceivedBroadcasts 	0
scalar IntersectionExampleScenario.node[34].nic.mac1609_4 	SentPackets 	0
scalar IntersectionExampleScenario.node[34].nic.mac1609_4 	SNIRLostPackets 	0
scalar IntersectionExampleScenario.node[34].nic.mac1609_4 	RXTXLostPackets 	0
scalar IntersectionExampleScenario.node[34].nic.mac1609_4 	TotalLostPackets 	0
scalar IntersectionExampleScenario.node[34].nic.mac1609_4 	DroppedPacketsInMac 	0
scalar IntersectionExampleScenario.node[34].nic.mac1609_4 	TooLittleTime 	0
scalar IntersectionExampleScenario.node[34].nic.mac1609_4 	TimesIntoBackoff 	0
scalar IntersectionExampleScenario.node[34].nic.mac1609_4 	SlotsBackoff 	0
scalar IntersectionExampleScenario.node[34].nic.mac1609_4 	NumInternalContention 	0
scalar IntersectionExampleScenario.node[34].nic.mac1609_4 	totalBusyTime 	0
scalar IntersectionExampleScenario.node[34].veinsmobility 	startTime 	85
scalar IntersectionExampleScenario.node[34].veinsmobility 	totalTime 	42.75
scalar IntersectionExampleScenario.node[34].veinsmobility 	stopTime 	128
scalar IntersectionExampleScenario.node[34].veinsmobility 	minSpeed 	5.4168906211853
scalar IntersectionExampleScenario.node[34].veinsmobility 	maxSpeed 	16.5
scalar IntersectionExampleScenario.node[34].veinsmobility 	totalDistance 	554.30457823899
scalar IntersectionExampleScenario.node[34].veinsmobility 	totalCO2Emission 	151.97104885745
scalar IntersectionExampleScenario.node[36].appl 	VehicleRemoved 	0
scalar IntersectionExampleScenario.node[36].appl 	ArrivedAtDest 	1
scalar IntersectionExampleScenario.node[36].appl 	IntersectionEnterTime 	91.75
scalar IntersectionExampleScenario.node[36].appl 	IntersectionExitTime 	116.11410574612
scalar IntersectionExampleScenario.node[36].appl 	NumberOfCollisions 	0
scalar IntersectionExampleScenario.node[36].nic.phy80211p 	busyTime 	0
scalar IntersectionExampleScenario.node[36].nic.mac1609_4 	ReceivedUnicastPackets 	0
scalar IntersectionExampleScenario.node[36].nic.mac1609_4 	ReceivedBroadcasts 	0
scalar IntersectionExampleScenario.node[36].nic.mac1609_4 	SentPackets 	0
scalar IntersectionExampleScenario.node[36].nic.mac1609_4 	SNIRLostPackets 	0
scalar IntersectionExampleScenario.node[36].nic.mac1609_4 	RXTXLostPackets 	0
scalar IntersectionExampleScenario.node[36].nic.mac1609_4 	TotalLostPackets 	0
scalar IntersectionExampleScenario.node[36].nic.mac1609_4 	DroppedPacketsInMac 	0
scalar IntersectionExampleScenario.node[36].nic.mac1609_4 	TooLittleTime 	0
scalar IntersectionExampleScenario.node[36].nic.mac1609_4 	TimesIntoBackoff 	0
scalar IntersectionExampleScenario.node[36].nic.mac1609_4 	SlotsBackoff 	0
scalar IntersectionExampleScenario.node[36].nic.mac1609_4 	NumInternalContention 	0
scalar IntersectionExampleScenario.node[36].nic.mac1609_4 	totalBusyTime 	0
scalar IntersectionExampleScenario.node[36].veinsmobility 	startTime 	91.75
scalar IntersectionExampleScenario.node[36].veinsmobility 	totalTime 	41.5
scalar IntersectionExampleScenario.node[36].veinsmobility 	stopTime 	133.5
scalar IntersectionExampleScenario.node[36].veinsmobility 	minSpeed 	5.6500000953674
scalar IntersectionExampleScenario.node[36].veinsmobility 	maxSpeed 	15.147025108337
scalar IntersectionExampleScenario.node[36].veinsmobility 	totalDistance 	543.84081037367
scalar IntersectionExampleScenario.node[36].veinsmobility 	totalCO2Emission 	123.92516736767
scalar IntersectionExampleScenario.node[29].appl 	VehicleRemoved 	0
scalar IntersectionExampleScenario.node[29].appl 	ArrivedAtDest 	1
scalar IntersectionExampleScenario.node[29].appl 	IntersectionEnterTime 	75.5
scalar IntersectionExampleScenario.node[29].appl 	IntersectionExitTime 	117.59730917893
scalar IntersectionExampleScenario.node[29].appl 	NumberOfCollisions 	0
scalar IntersectionExampleScenario.node[29].nic.phy80211p 	busyTime 	0
scalar IntersectionExampleScenario.node[29].nic.mac1609_4 	ReceivedUnicastPackets 	0
scalar IntersectionExampleScenario.node[29].nic.mac1609_4 	ReceivedBroadcasts 	0
scalar IntersectionExampleScenario.node[29].nic.mac1609_4 	SentPackets 	0
scalar IntersectionExampleScenario.node[29].nic.mac1609_4 	SNIRLostPackets 	0
scalar IntersectionExampleScenario.node[29].nic.mac1609_4 	RXTXLostPackets 	0
scalar IntersectionExampleScenario.node[29].nic.mac1609_4 	TotalLostPackets 	0
scalar IntersectionExampleScenario.node[29].nic.mac1609_4 	DroppedPacketsInMac 	0
scalar IntersectionExampleScenario.node[29].nic.mac1609_4 	TooLittleTime 	0
scalar IntersectionExampleScenario.node[29].nic.mac1609_4 	TimesIntoBackoff 	0
scalar IntersectionExampleScenario.node[29].nic.mac1609_4 	SlotsBackoff 	0
scalar IntersectionExampleScenario.node[29].nic.mac1609_4 	NumInternalContention 	0
scalar IntersectionExampleScenario.node[29].nic.mac1609_4 	totalBusyTime 	0
scalar IntersectionExampleScenario.node[29].veinsmobility 	startTime 	75.5
scalar IntersectionExampleScenario.node[29].veinsmobility 	totalTime 	59
scalar IntersectionExampleScenario.node[29].veinsmobility 	stopTime 	134.75
scalar IntersectionExampleScenario.node[29].veinsmobility 	minSpeed 	0
scalar IntersectionExampleScenario.node[29].veinsmobility 	maxSpeed 	15.64999961853
scalar IntersectionExampleScenario.node[29].veinsmobility 	totalDistance 	546.08061887175
scalar IntersectionExampleScenario.node[29].veinsmobility 	totalCO2Emission 	149.62829750121
scalar IntersectionExampleScenario.node[30].appl 	VehicleRemoved 	0
scalar IntersectionExampleScenario.node[30].appl 	ArrivedAtDest 	1
scalar IntersectionExampleScenario.node[30].appl 	IntersectionEnterTime 	79.25
scalar IntersectionExampleScenario.node[30].appl 	IntersectionExitTime 	119.34350654672
scalar IntersectionExampleScenario.node[30].appl 	NumberOfCollisions 	0
scalar IntersectionExampleScenario.node[30].nic.phy80211p 	busyTime 	0
scalar IntersectionExampleScenario.node[30].nic.mac1609_4 	ReceivedUnicastPackets 	0
scalar IntersectionExampleScenario.node[30].nic.mac1609_4 	ReceivedBroadcasts 	0
scalar IntersectionExampleScenario.node[30].nic.mac1609_4 	SentPackets 	0
scalar IntersectionExampleScenario.node[30].nic.mac1609_4 	SNIRLostPackets 	0
scalar IntersectionExampleScenario.node[30].nic.mac1609_4 	RXTXLostPackets 	0
scalar IntersectionExampleScenario.node[30].nic.mac1609_4 	TotalLostPackets 	0
scalar IntersectionExampleScenario.node[30].nic.mac1609_4 	DroppedPacketsInMac 	0
scalar IntersectionExampleScenario.node[30].nic.mac1609_4 	TooLittleTime 	0
scalar IntersectionExampleScenario.node[30].nic.mac1609_4 	TimesIntoBackoff 	0
scalar IntersectionExampleScenario.node[30].nic.mac1609_4 	SlotsBackoff 	0
scalar IntersectionExampleScenario.node[30].nic.mac1609_4 	NumInternalContention 	0
scalar IntersectionExampleScenario.node[30].nic.mac1609_4 	totalBusyTime 	0
scalar IntersectionExampleScenario.node[30].veinsmobility 	startTime 	79.25
scalar IntersectionExampleScenario.node[30].veinsmobility 	totalTime 	56
scalar IntersectionExampleScenario.node[30].veinsmobility 	stopTime 	135.5
scalar IntersectionExampleScenario.node[30].veinsmobility 	minSpeed 	0
scalar IntersectionExampleScenario.node[30].veinsmobility 	maxSpeed 	15.64999961853
scalar IntersectionExampleScenario.node[30].veinsmobility 	totalDistance 	560.01965332031
scalar IntersectionExampleScenario.node[30].veinsmobility 	totalCO2Emission 	148.30341886865
scalar IntersectionExampleScenario.node[37].appl 	VehicleRemoved 	0
scalar IntersectionExampleScenario.node[37].appl 	ArrivedAtDest 	1
scalar IntersectionExampleScenario.node[37].appl 	IntersectionEnterTime 	92.25
scalar IntersectionExampleScenario.node[37].appl 	IntersectionExitTime 	121.5597947136
scalar IntersectionExampleScenario.node[37].appl 	NumberOfCollisions 	0
scalar IntersectionExampleScenario.node[37].nic.phy80211p 	busyTime 	0
scalar IntersectionExampleScenario.node[37].nic.mac1609_4 	ReceivedUnicastPackets 	0
scalar IntersectionExampleScenario.node[37].nic.mac1609_4 	ReceivedBroadcasts 	0
scalar IntersectionExampleScenario.node[37].nic.mac1609_4 	SentPackets 	0
scalar IntersectionExampleScenario.node[37].nic.mac1609_4 	SNIRLostPackets 	0
scalar IntersectionExampleScenario.node[37].nic.mac1609_4 	RXTXLostPackets 	0
scalar IntersectionExampleScenario.node[37].nic.mac1609_4 	TotalLostPackets 	0
scalar IntersectionExampleScenario.node[37].nic.mac1609_4 	DroppedPacketsInMac 	0
scalar IntersectionExampleScenario.node[37].nic.mac1609_4 	TooLittleTime 	0
scalar IntersectionExampleScenario.node[37].nic.mac1609_4 	TimesIntoBackoff 	0
scalar IntersectionExampleScenario.node[37].nic.mac1609_4 	SlotsBackoff 	0
scalar IntersectionExampleScenario.node[37].nic.mac1609_4 	NumInternalContention 	0
scalar IntersectionExampleScenario.node[37].nic.mac1609_4 	totalBusyTime 	0
scalar IntersectionExampleScenario.node[37].veinsmobility 	startTime 	92.25
scalar IntersectionExampleScenario.node[37].veinsmobility 	totalTime 	45.75
scalar IntersectionExampleScenario.node[37].veinsmobility 	stopTime 	138.25
scalar IntersectionExampleScenario.node[37].veinsmobility 	minSpeed 	4.1096391677856
scalar IntersectionExampleScenario.node[37].veinsmobility 	maxSpeed 	15.02499961853
scalar IntersectionExampleScenario.node[37].veinsmobility 	totalDistance 	552.97868347168
scalar IntersectionExampleScenario.node[37].veinsmobility 	totalCO2Emission 	129.42057650435
scalar IntersectionExampleScenario.node[44].appl 	VehicleRemoved 	0
scalar IntersectionExampleScenario.node[44].appl 	ArrivedAtDest 	1
scalar IntersectionExampleScenario.node[44].appl 	IntersectionEnterTime 	103.75
scalar IntersectionExampleScenario.node[44].appl 	IntersectionExitTime 	127.56471116163
scalar IntersectionExampleScenario.node[44].appl 	NumberOfCollisions 	0
scalar IntersectionExampleScenario.node[44].nic.phy80211p 	busyTime 	0
scalar IntersectionExampleScenario.node[44].nic.mac1609_4 	ReceivedUnicastPackets 	0
scalar IntersectionExampleScenario.node[44].nic.mac1609_4 	ReceivedBroadcasts 	0
scalar IntersectionExampleScenario.node[44].nic.mac1609_4 	SentPackets 	0
scalar IntersectionExampleScenario.node[44].nic.mac1609_4 	SNIRLostPackets 	0
scalar IntersectionExampleScenario.node[44].nic.mac1609_4 	RXTXLostPackets 	0
scalar IntersectionExampleScenario.node[44].nic.mac1609_4 	TotalLostPackets 	0
scalar IntersectionExampleScenario.node[44].nic.mac1609_4 	DroppedPacketsInMac 	0
scalar IntersectionExampleScenario.node[44].nic.mac1609_4 	TooLittleTime 	0
scalar IntersectionExampleScenario.node[44].nic.mac1609_4 	TimesIntoBackoff 	0
scalar IntersectionExampleScenario.node[44].nic.mac1609_4 	SlotsBackoff 	0
scalar IntersectionExampleScenario.node[44].nic.mac1609_4 	NumInternalContention 	0
scalar IntersectionExampleScenario.node[44].nic.mac1609_4 	totalBusyTime 	0
scalar IntersectionExampleScenario.node[44].veinsmobility 	startTime 	103.75
scalar IntersectionExampleScenario.node[44].veinsmobility 	totalTime 	39.5
scalar IntersectionExampleScenario.node[44].veinsmobility 	stopTime 	143.5
scalar IntersectionExampleScenario.node[44].veinsmobility 	minSpeed 	5.6500000953674
scalar IntersectionExampleScenario.node[44].veinsmobility 	maxSpeed 	16.27499961853
scalar IntersectionExampleScenario.node[44].veinsmobility 	totalDistance 	549.49887383947
scalar IntersectionExampleScenario.node[44].veinsmobility 	totalCO2Emission 	133.86169407443
scalar IntersectionExampleScenario.node[43].appl 	VehicleRemoved 	0
scalar IntersectionExampleScenario.node[43].appl 	ArrivedAtDest 	1
scalar IntersectionExampleScenario.node[43].appl 	IntersectionEnterTime 	103
scalar IntersectionExampleScenario.node[43].appl 	IntersectionExitTime 	126.79024594836
scalar IntersectionExampleScenario.node[43].appl 	NumberOfCollisions 	0
scalar IntersectionExampleScenario.node[43].nic.phy80211p 	busyTime 	0
scalar IntersectionExampleScenario.node[43].nic.mac1609_4 	ReceivedUnicastPackets 	0
scalar IntersectionExampleScenario.node[43].nic.mac1609_4 	ReceivedBroadcasts 	0
scalar IntersectionExampleScenario.node[43].nic.mac1609_4 	SentPackets 	0
scalar IntersectionExampleScenario.node[43].nic.mac1609_4 	SNIRLostPackets 	0
scalar IntersectionExampleScenario.node[43].nic.mac1609_4 	RXTXLostPackets 	0
scalar IntersectionExampleScenario.node[43].nic.mac1609_4 	TotalLostPackets 	0
scalar IntersectionExampleScenario.node[43].nic.mac1609_4 	DroppedPacketsInMac 	0
scalar IntersectionExampleScenario.node[43].nic.mac1609_4 	TooLittleTime 	0
scalar IntersectionExampleScenario.node[43].nic.mac1609_4 	TimesIntoBackoff 	0
scalar IntersectionExampleScenario.node[43].nic.mac1609_4 	SlotsBackoff 	0
scalar IntersectionExampleScenario.node[43].nic.mac1609_4 	NumInternalContention 	0
scalar IntersectionExampleScenario.node[43].nic.mac1609_4 	totalBusyTime 	0
scalar IntersectionExampleScenario.node[43].veinsmobility 	startTime 	103
scalar IntersectionExampleScenario.node[43].veinsmobility 	totalTime 	40.75
scalar IntersectionExampleScenario.node[43].veinsmobility 	stopTime 	144
scalar IntersectionExampleScenario.node[43].veinsmobility 	minSpeed 	5.6500000953674
scalar IntersectionExampleScenario.node[43].veinsmobility 	maxSpeed 	15.332042694092
scalar IntersectionExampleScenario.node[43].veinsmobility 	totalDistance 	544.43606624905
scalar IntersectionExampleScenario.node[43].veinsmobility 	totalCO2Emission 	125.48524754001
scalar IntersectionExampleScenario.node[35].appl 	VehicleRemoved 	0
scalar IntersectionExampleScenario.node[35].appl 	ArrivedAtDest 	1
scalar IntersectionExampleScenario.node[35].appl 	IntersectionEnterTime 	87
scalar IntersectionExampleScenario.node[35].appl 	IntersectionExitTime 	128.2809344334
scalar IntersectionExampleScenario.node[35].appl 	NumberOfCollisions 	0
scalar IntersectionExampleScenario.node[35].nic.phy80211p 	busyTime 	0
scalar IntersectionExampleScenario.node[35].nic.mac1609_4 	ReceivedUnicastPackets 	0
scalar IntersectionExampleScenario.node[35].nic.mac1609_4 	ReceivedBroadcasts 	0
scalar IntersectionExampleScenario.node[35].nic.mac1609_4 	SentPackets 	0
scalar IntersectionExampleScenario.node[35].nic.mac1609_4 	SNIRLostPackets 	0
scalar IntersectionExampleScenario.node[35].nic.mac1609_4 	RXTXLostPackets 	0
scalar IntersectionExampleScenario.node[35].nic.mac1609_4 	TotalLostPackets 	0
scalar IntersectionExampleScenario.node[35].nic.mac1609_4 	DroppedPacketsInMac 	0
scalar IntersectionExampleScenario.node[35].nic.mac1609_4 	TooLittleTime 	0
scalar IntersectionExampleScenario.node[35].nic.mac1609_4 	TimesIntoBackoff 	0
scalar IntersectionExampleScenario.node[35].nic.mac1609_4 	SlotsBackoff 	0
scalar IntersectionExampleScenario.node[35].nic.mac1609_4 	NumInternalContention 	0
[...]
scalar IntersectionExampleScenario.node[812].veinsmobility 	minSpeed 	0
scalar IntersectionExampleScenario.node[812].veinsmobility 	maxSpeed 	14.39999961853
scalar IntersectionExampleScenario.node[812].veinsmobility 	totalDistance 	287.42188262939
scalar IntersectionExampleScenario.node[812].veinsmobility 	totalCO2Emission 	63.255263184088
scalar IntersectionExampleScenario.node[813].appl 	VehicleRemoved 	0
scalar IntersectionExampleScenario.node[813].appl 	ArrivedAtDest 	0
scalar IntersectionExampleScenario.node[813].appl 	IntersectionEnterTime 	1778.75
scalar IntersectionExampleScenario.node[813].appl 	IntersectionExitTime 	-1
scalar IntersectionExampleScenario.node[813].appl 	NumberOfCollisions 	0
scalar IntersectionExampleScenario.node[813].nic.phy80211p 	busyTime 	0
scalar IntersectionExampleScenario.node[813].nic.mac1609_4 	ReceivedUnicastPackets 	0
scalar IntersectionExampleScenario.node[813].nic.mac1609_4 	ReceivedBroadcasts 	0
scalar IntersectionExampleScenario.node[813].nic.mac1609_4 	SentPackets 	0
scalar IntersectionExampleScenario.node[813].nic.mac1609_4 	SNIRLostPackets 	0
scalar IntersectionExampleScenario.node[813].nic.mac1609_4 	RXTXLostPackets 	0
scalar IntersectionExampleScenario.node[813].nic.mac1609_4 	TotalLostPackets 	0
scalar IntersectionExampleScenario.node[813].nic.mac1609_4 	DroppedPacketsInMac 	0
scalar IntersectionExampleScenario.node[813].nic.mac1609_4 	TooLittleTime 	0
scalar IntersectionExampleScenario.node[813].nic.mac1609_4 	TimesIntoBackoff 	0
scalar IntersectionExampleScenario.node[813].nic.mac1609_4 	SlotsBackoff 	0
scalar IntersectionExampleScenario.node[813].nic.mac1609_4 	NumInternalContention 	0
scalar IntersectionExampleScenario.node[813].nic.mac1609_4 	totalBusyTime 	0
scalar IntersectionExampleScenario.node[813].veinsmobility 	startTime 	1778.75
scalar IntersectionExampleScenario.node[813].veinsmobility 	totalTime 	21.25
scalar IntersectionExampleScenario.node[813].veinsmobility 	stopTime 	1800
scalar IntersectionExampleScenario.node[813].veinsmobility 	minSpeed 	5.6500000953674
scalar IntersectionExampleScenario.node[813].veinsmobility 	maxSpeed 	16.266767501831
scalar IntersectionExampleScenario.node[813].veinsmobility 	totalDistance 	300.86176300049
scalar IntersectionExampleScenario.node[813].veinsmobility 	totalCO2Emission 	68.220978029573
scalar IntersectionExampleScenario.node[814].appl 	VehicleRemoved 	0
scalar IntersectionExampleScenario.node[814].appl 	ArrivedAtDest 	0
scalar IntersectionExampleScenario.node[814].appl 	IntersectionEnterTime 	1780.25
scalar IntersectionExampleScenario.node[814].appl 	IntersectionExitTime 	-1
scalar IntersectionExampleScenario.node[814].appl 	NumberOfCollisions 	0
scalar IntersectionExampleScenario.node[814].nic.phy80211p 	busyTime 	0
scalar IntersectionExampleScenario.node[814].nic.mac1609_4 	ReceivedUnicastPackets 	0
scalar IntersectionExampleScenario.node[814].nic.mac1609_4 	ReceivedBroadcasts 	0
scalar IntersectionExampleScenario.node[814].nic.mac1609_4 	SentPackets 	0
scalar IntersectionExampleScenario.node[814].nic.mac1609_4 	SNIRLostPackets 	0
scalar IntersectionExampleScenario.node[814].nic.mac1609_4 	RXTXLostPackets 	0
scalar IntersectionExampleScenario.node[814].nic.mac1609_4 	TotalLostPackets 	0
scalar IntersectionExampleScenario.node[814].nic.mac1609_4 	DroppedPacketsInMac 	0
scalar IntersectionExampleScenario.node[814].nic.mac1609_4 	TooLittleTime 	0
scalar IntersectionExampleScenario.node[814].nic.mac1609_4 	TimesIntoBackoff 	0
scalar IntersectionExampleScenario.node[814].nic.mac1609_4 	SlotsBackoff 	0
scalar IntersectionExampleScenario.node[814].nic.mac1609_4 	NumInternalContention 	0
scalar IntersectionExampleScenario.node[814].nic.mac1609_4 	totalBusyTime 	0
scalar IntersectionExampleScenario.node[814].veinsmobility 	startTime 	1780.25
scalar IntersectionExampleScenario.node[814].veinsmobility 	totalTime 	19.75
scalar IntersectionExampleScenario.node[814].veinsmobility 	stopTime 	1800
scalar IntersectionExampleScenario.node[814].veinsmobility 	minSpeed 	5.6500000953674
scalar IntersectionExampleScenario.node[814].veinsmobility 	maxSpeed 	16.181100845337
scalar IntersectionExampleScenario.node[814].veinsmobility 	totalDistance 	287.96762084961
scalar IntersectionExampleScenario.node[814].veinsmobility 	totalCO2Emission 	67.345023949147
scalar IntersectionExampleScenario.node[815].appl 	VehicleRemoved 	0
scalar IntersectionExampleScenario.node[815].appl 	ArrivedAtDest 	0
scalar IntersectionExampleScenario.node[815].appl 	IntersectionEnterTime 	1783.5
scalar IntersectionExampleScenario.node[815].appl 	IntersectionExitTime 	-1
scalar IntersectionExampleScenario.node[815].appl 	NumberOfCollisions 	0
scalar IntersectionExampleScenario.node[815].nic.phy80211p 	busyTime 	0
scalar IntersectionExampleScenario.node[815].nic.mac1609_4 	ReceivedUnicastPackets 	0
scalar IntersectionExampleScenario.node[815].nic.mac1609_4 	ReceivedBroadcasts 	0
scalar IntersectionExampleScenario.node[815].nic.mac1609_4 	SentPackets 	0
scalar IntersectionExampleScenario.node[815].nic.mac1609_4 	SNIRLostPackets 	0
scalar IntersectionExampleScenario.node[815].nic.mac1609_4 	RXTXLostPackets 	0
scalar IntersectionExampleScenario.node[815].nic.mac1609_4 	TotalLostPackets 	0
scalar IntersectionExampleScenario.node[815].nic.mac1609_4 	DroppedPacketsInMac 	0
scalar IntersectionExampleScenario.node[815].nic.mac1609_4 	TooLittleTime 	0
scalar IntersectionExampleScenario.node[815].nic.mac1609_4 	TimesIntoBackoff 	0
scalar IntersectionExampleScenario.node[815].nic.mac1609_4 	SlotsBackoff 	0
scalar IntersectionExampleScenario.node[815].nic.mac1609_4 	NumInternalContention 	0
scalar IntersectionExampleScenario.node[815].nic.mac1609_4 	totalBusyTime 	0
scalar IntersectionExampleScenario.node[815].veinsmobility 	startTime 	1783.5
scalar IntersectionExampleScenario.node[815].veinsmobility 	totalTime 	16.5
scalar IntersectionExampleScenario.node[815].veinsmobility 	stopTime 	1800
scalar IntersectionExampleScenario.node[815].veinsmobility 	minSpeed 	5.6500000953674
scalar IntersectionExampleScenario.node[815].veinsmobility 	maxSpeed 	15.64999961853
scalar IntersectionExampleScenario.node[815].veinsmobility 	totalDistance 	220.39862823486
scalar IntersectionExampleScenario.node[815].veinsmobility 	totalCO2Emission 	56.389571425659
scalar IntersectionExampleScenario.node[816].appl 	VehicleRemoved 	0
scalar IntersectionExampleScenario.node[816].appl 	ArrivedAtDest 	0
scalar IntersectionExampleScenario.node[816].appl 	IntersectionEnterTime 	1791.25
scalar IntersectionExampleScenario.node[816].appl 	IntersectionExitTime 	-1
scalar IntersectionExampleScenario.node[816].appl 	NumberOfCollisions 	0
scalar IntersectionExampleScenario.node[816].nic.phy80211p 	busyTime 	0
scalar IntersectionExampleScenario.node[816].nic.mac1609_4 	ReceivedUnicastPackets 	0
scalar IntersectionExampleScenario.node[816].nic.mac1609_4 	ReceivedBroadcasts 	0
scalar IntersectionExampleScenario.node[816].nic.mac1609_4 	SentPackets 	0
scalar IntersectionExampleScenario.node[816].nic.mac1609_4 	SNIRLostPackets 	0
scalar IntersectionExampleScenario.node[816].nic.mac1609_4 	RXTXLostPackets 	0
scalar IntersectionExampleScenario.node[816].nic.mac1609_4 	TotalLostPackets 	0
scalar IntersectionExampleScenario.node[816].nic.mac1609_4 	DroppedPacketsInMac 	0
scalar IntersectionExampleScenario.node[816].nic.mac1609_4 	TooLittleTime 	0
scalar IntersectionExampleScenario.node[816].nic.mac1609_4 	TimesIntoBackoff 	0
scalar IntersectionExampleScenario.node[816].nic.mac1609_4 	SlotsBackoff 	0
scalar IntersectionExampleScenario.node[816].nic.mac1609_4 	NumInternalContention 	0
scalar IntersectionExampleScenario.node[816].nic.mac1609_4 	totalBusyTime 	0
scalar IntersectionExampleScenario.node[816].veinsmobility 	startTime 	1791.25
scalar IntersectionExampleScenario.node[816].veinsmobility 	totalTime 	8.75
scalar IntersectionExampleScenario.node[816].veinsmobility 	stopTime 	1800
scalar IntersectionExampleScenario.node[816].veinsmobility 	minSpeed 	5.6500000953674
scalar IntersectionExampleScenario.node[816].veinsmobility 	maxSpeed 	15.64999961853
scalar IntersectionExampleScenario.node[816].veinsmobility 	totalDistance 	112.51000213623
scalar IntersectionExampleScenario.node[816].veinsmobility 	totalCO2Emission 	41.69719768457
scalar IntersectionExampleScenario.node[817].appl 	VehicleRemoved 	0
scalar IntersectionExampleScenario.node[817].appl 	ArrivedAtDest 	0
scalar IntersectionExampleScenario.node[817].appl 	IntersectionEnterTime 	1793
scalar IntersectionExampleScenario.node[817].appl 	IntersectionExitTime 	-1
scalar IntersectionExampleScenario.node[817].appl 	NumberOfCollisions 	0
scalar IntersectionExampleScenario.node[817].nic.phy80211p 	busyTime 	0
scalar IntersectionExampleScenario.node[817].nic.mac1609_4 	ReceivedUnicastPackets 	0
scalar IntersectionExampleScenario.node[817].nic.mac1609_4 	ReceivedBroadcasts 	0
scalar IntersectionExampleScenario.node[817].nic.mac1609_4 	SentPackets 	0
scalar IntersectionExampleScenario.node[817].nic.mac1609_4 	SNIRLostPackets 	0
scalar IntersectionExampleScenario.node[817].nic.mac1609_4 	RXTXLostPackets 	0
scalar IntersectionExampleScenario.node[817].nic.mac1609_4 	TotalLostPackets 	0
scalar IntersectionExampleScenario.node[817].nic.mac1609_4 	DroppedPacketsInMac 	0
scalar IntersectionExampleScenario.node[817].nic.mac1609_4 	TooLittleTime 	0
scalar IntersectionExampleScenario.node[817].nic.mac1609_4 	TimesIntoBackoff 	0
scalar IntersectionExampleScenario.node[817].nic.mac1609_4 	SlotsBackoff 	0
scalar IntersectionExampleScenario.node[817].nic.mac1609_4 	NumInternalContention 	0
scalar IntersectionExampleScenario.node[817].nic.mac1609_4 	totalBusyTime 	0
scalar IntersectionExampleScenario.node[817].veinsmobility 	startTime 	1793
scalar IntersectionExampleScenario.node[817].veinsmobility 	totalTime 	7
scalar IntersectionExampleScenario.node[817].veinsmobility 	stopTime 	1800
scalar IntersectionExampleScenario.node[817].veinsmobility 	minSpeed 	5.6500000953674
scalar IntersectionExampleScenario.node[817].veinsmobility 	maxSpeed 	15.64999961853
scalar IntersectionExampleScenario.node[817].veinsmobility 	totalDistance 	86.149047851562
scalar IntersectionExampleScenario.node[817].veinsmobility 	totalCO2Emission 	38.172347322079
scalar IntersectionExampleScenario.node[818].appl 	VehicleRemoved 	0
scalar IntersectionExampleScenario.node[818].appl 	ArrivedAtDest 	0
scalar IntersectionExampleScenario.node[818].appl 	IntersectionEnterTime 	1794.25
scalar IntersectionExampleScenario.node[818].appl 	IntersectionExitTime 	-1
scalar IntersectionExampleScenario.node[818].appl 	NumberOfCollisions 	0
scalar IntersectionExampleScenario.node[818].nic.phy80211p 	busyTime 	0
scalar IntersectionExampleScenario.node[818].nic.mac1609_4 	ReceivedUnicastPackets 	0
scalar IntersectionExampleScenario.node[818].nic.mac1609_4 	ReceivedBroadcasts 	0
scalar IntersectionExampleScenario.node[818].nic.mac1609_4 	SentPackets 	0
scalar IntersectionExampleScenario.node[818].nic.mac1609_4 	SNIRLostPackets 	0
scalar IntersectionExampleScenario.node[818].nic.mac1609_4 	RXTXLostPackets 	0
scalar IntersectionExampleScenario.node[818].nic.mac1609_4 	TotalLostPackets 	0
scalar IntersectionExampleScenario.node[818].nic.mac1609_4 	DroppedPacketsInMac 	0
scalar IntersectionExampleScenario.node[818].nic.mac1609_4 	TooLittleTime 	0
scalar IntersectionExampleScenario.node[818].nic.mac1609_4 	TimesIntoBackoff 	0
scalar IntersectionExampleScenario.node[818].nic.mac1609_4 	SlotsBackoff 	0
scalar IntersectionExampleScenario.node[818].nic.mac1609_4 	NumInternalContention 	0
scalar IntersectionExampleScenario.node[818].nic.mac1609_4 	totalBusyTime 	0
scalar IntersectionExampleScenario.node[818].veinsmobility 	startTime 	1794.25
scalar IntersectionExampleScenario.node[818].veinsmobility 	totalTime 	5.75
scalar IntersectionExampleScenario.node[818].veinsmobility 	stopTime 	1800
scalar IntersectionExampleScenario.node[818].veinsmobility 	minSpeed 	5.6500000953674
scalar IntersectionExampleScenario.node[818].veinsmobility 	maxSpeed 	15.64999961853
scalar IntersectionExampleScenario.node[818].veinsmobility 	totalDistance 	67.182922363281
scalar IntersectionExampleScenario.node[818].veinsmobility 	totalCO2Emission 	35.979157449021
scalar IntersectionExampleScenario.node[819].appl 	VehicleRemoved 	0
scalar IntersectionExampleScenario.node[819].appl 	ArrivedAtDest 	0
scalar IntersectionExampleScenario.node[819].appl 	IntersectionEnterTime 	1796.5
scalar IntersectionExampleScenario.node[819].appl 	IntersectionExitTime 	-1
scalar IntersectionExampleScenario.node[819].appl 	NumberOfCollisions 	0
scalar IntersectionExampleScenario.node[819].nic.phy80211p 	busyTime 	0
scalar IntersectionExampleScenario.node[819].nic.mac1609_4 	ReceivedUnicastPackets 	0
scalar IntersectionExampleScenario.node[819].nic.mac1609_4 	ReceivedBroadcasts 	0
scalar IntersectionExampleScenario.node[819].nic.mac1609_4 	SentPackets 	0
scalar IntersectionExampleScenario.node[819].nic.mac1609_4 	SNIRLostPackets 	0
scalar IntersectionExampleScenario.node[819].nic.mac1609_4 	RXTXLostPackets 	0
scalar IntersectionExampleScenario.node[819].nic.mac1609_4 	TotalLostPackets 	0
scalar IntersectionExampleScenario.node[819].nic.mac1609_4 	DroppedPacketsInMac 	0
scalar IntersectionExampleScenario.node[819].nic.mac1609_4 	TooLittleTime 	0
scalar IntersectionExampleScenario.node[819].nic.mac1609_4 	TimesIntoBackoff 	0
scalar IntersectionExampleScenario.node[819].nic.mac1609_4 	SlotsBackoff 	0
scalar IntersectionExampleScenario.node[819].nic.mac1609_4 	NumInternalContention 	0
scalar IntersectionExampleScenario.node[819].nic.mac1609_4 	totalBusyTime 	0
scalar IntersectionExampleScenario.node[819].veinsmobility 	startTime 	1796.5
scalar IntersectionExampleScenario.node[819].veinsmobility 	totalTime 	3.5
scalar IntersectionExampleScenario.node[819].veinsmobility 	stopTime 	1800
scalar IntersectionExampleScenario.node[819].veinsmobility 	minSpeed 	5.6500000953674
scalar IntersectionExampleScenario.node[819].veinsmobility 	maxSpeed 	13.77499961853
scalar IntersectionExampleScenario.node[819].veinsmobility 	totalDistance 	32.899963378906
scalar IntersectionExampleScenario.node[819].veinsmobility 	totalCO2Emission 	25.161289661203
scalar IntersectionExampleScenario.node[820].appl 	VehicleRemoved 	0
scalar IntersectionExampleScenario.node[820].appl 	ArrivedAtDest 	0
scalar IntersectionExampleScenario.node[820].appl 	IntersectionEnterTime 	1797.5
scalar IntersectionExampleScenario.node[820].appl 	IntersectionExitTime 	-1
scalar IntersectionExampleScenario.node[820].appl 	NumberOfCollisions 	0
scalar IntersectionExampleScenario.node[820].nic.phy80211p 	busyTime 	0
scalar IntersectionExampleScenario.node[820].nic.mac1609_4 	ReceivedUnicastPackets 	0
scalar IntersectionExampleScenario.node[820].nic.mac1609_4 	ReceivedBroadcasts 	0
scalar IntersectionExampleScenario.node[820].nic.mac1609_4 	SentPackets 	0
scalar IntersectionExampleScenario.node[820].nic.mac1609_4 	SNIRLostPackets 	0
scalar IntersectionExampleScenario.node[820].nic.mac1609_4 	RXTXLostPackets 	0
scalar IntersectionExampleScenario.node[820].nic.mac1609_4 	TotalLostPackets 	0
scalar IntersectionExampleScenario.node[820].nic.mac1609_4 	DroppedPacketsInMac 	0
scalar IntersectionExampleScenario.node[820].nic.mac1609_4 	TooLittleTime 	0
scalar IntersectionExampleScenario.node[820].nic.mac1609_4 	TimesIntoBackoff 	0
scalar IntersectionExampleScenario.node[820].nic.mac1609_4 	SlotsBackoff 	0
scalar IntersectionExampleScenario.node[820].nic.mac1609_4 	NumInternalContention 	0
scalar IntersectionExampleScenario.node[820].nic.mac1609_4 	totalBusyTime 	0
scalar IntersectionExampleScenario.node[820].veinsmobility 	startTime 	1797.5
scalar IntersectionExampleScenario.node[820].veinsmobility 	totalTime 	2.5
scalar IntersectionExampleScenario.node[820].veinsmobility 	stopTime 	1800
scalar IntersectionExampleScenario.node[820].veinsmobility 	minSpeed 	5.6500000953674
scalar IntersectionExampleScenario.node[820].veinsmobility 	maxSpeed 	11.27499961853
scalar IntersectionExampleScenario.node[820].veinsmobility 	totalDistance 	20.374992370605
scalar IntersectionExampleScenario.node[820].veinsmobility 	totalCO2Emission 	15.500237724595
scalar IntersectionExampleScenario.node[821].appl 	VehicleRemoved 	0
scalar IntersectionExampleScenario.node[821].appl 	ArrivedAtDest 	0
scalar IntersectionExampleScenario.node[821].appl 	IntersectionEnterTime 	1798
scalar IntersectionExampleScenario.node[821].appl 	IntersectionExitTime 	-1
scalar IntersectionExampleScenario.node[821].appl 	NumberOfCollisions 	0
scalar IntersectionExampleScenario.node[821].nic.phy80211p 	busyTime 	0
scalar IntersectionExampleScenario.node[821].nic.mac1609_4 	ReceivedUnicastPackets 	0
scalar IntersectionExampleScenario.node[821].nic.mac1609_4 	ReceivedBroadcasts 	0
scalar IntersectionExampleScenario.node[821].nic.mac1609_4 	SentPackets 	0
scalar IntersectionExampleScenario.node[821].nic.mac1609_4 	SNIRLostPackets 	0
scalar IntersectionExampleScenario.node[821].nic.mac1609_4 	RXTXLostPackets 	0
scalar IntersectionExampleScenario.node[821].nic.mac1609_4 	TotalLostPackets 	0
scalar IntersectionExampleScenario.node[821].nic.mac1609_4 	DroppedPacketsInMac 	0
scalar IntersectionExampleScenario.node[821].nic.mac1609_4 	TooLittleTime 	0
scalar IntersectionExampleScenario.node[821].nic.mac1609_4 	TimesIntoBackoff 	0
scalar IntersectionExampleScenario.node[821].nic.mac1609_4 	SlotsBackoff 	0
scalar IntersectionExampleScenario.node[821].nic.mac1609_4 	NumInternalContention 	0
scalar IntersectionExampleScenario.node[821].nic.mac1609_4 	totalBusyTime 	0
scalar IntersectionExampleScenario.node[821].veinsmobility 	startTime 	1798
scalar IntersectionExampleScenario.node[821].veinsmobility 	totalTime 	2
scalar IntersectionExampleScenario.node[821].veinsmobility 	stopTime 	1800
scalar IntersectionExampleScenario.node[821].veinsmobility 	minSpeed 	5.6500000953674
scalar IntersectionExampleScenario.node[821].veinsmobility 	maxSpeed 	10.02499961853
scalar IntersectionExampleScenario.node[821].veinsmobility 	totalDistance 	15.049987792969
scalar IntersectionExampleScenario.node[821].veinsmobility 	totalCO2Emission 	11.317369352905
scalar IntersectionExampleScenario.node[822].appl 	VehicleRemoved 	0
scalar IntersectionExampleScenario.node[822].appl 	ArrivedAtDest 	0
scalar IntersectionExampleScenario.node[822].appl 	IntersectionEnterTime 	1800
scalar IntersectionExampleScenario.node[822].appl 	IntersectionExitTime 	-1
scalar IntersectionExampleScenario.node[822].appl 	NumberOfCollisions 	0
scalar IntersectionExampleScenario.node[822].nic.phy80211p 	busyTime 	nan
scalar IntersectionExampleScenario.node[822].nic.mac1609_4 	ReceivedUnicastPackets 	0
scalar IntersectionExampleScenario.node[822].nic.mac1609_4 	ReceivedBroadcasts 	0
scalar IntersectionExampleScenario.node[822].nic.mac1609_4 	SentPackets 	0
scalar IntersectionExampleScenario.node[822].nic.mac1609_4 	SNIRLostPackets 	0
scalar IntersectionExampleScenario.node[822].nic.mac1609_4 	RXTXLostPackets 	0
scalar IntersectionExampleScenario.node[822].nic.mac1609_4 	TotalLostPackets 	0
scalar IntersectionExampleScenario.node[822].nic.mac1609_4 	DroppedPacketsInMac 	0
scalar IntersectionExampleScenario.node[822].nic.mac1609_4 	TooLittleTime 	0
scalar IntersectionExampleScenario.node[822].nic.mac1609_4 	TimesIntoBackoff 	0
scalar IntersectionExampleScenario.node[822].nic.mac1609_4 	SlotsBackoff 	0
scalar IntersectionExampleScenario.node[822].nic.mac1609_4 	NumInternalContention 	0
scalar IntersectionExampleScenario.node[822].nic.mac1609_4 	totalBusyTime 	0
scalar IntersectionExampleScenario.node[822].veinsmobility 	startTime 	1800
scalar IntersectionExampleScenario.node[822].veinsmobility 	totalTime 	0
scalar IntersectionExampleScenario.node[822].veinsmobility 	stopTime 	1800
scalar IntersectionExampleScenario.node[822].veinsmobility 	totalDistance 	0
scalar IntersectionExampleScenario.node[822].veinsmobility 	totalCO2Emission 	0
