version 2
run nodebug-41-20200606-11:36:38-6208
attr configname nodebug
attr datetime 20200606-11:36:38
attr experiment nodebug
attr inifile omnetpp.ini
attr iterationvars ""
attr iterationvars2 $repetition=41
attr measurement ""
attr network "\"org.car2x.veins.modules.application.ExtTraCIScenarioManagerLaunchd.IntersectionExampleScenario\""
attr processid 6208
attr repetition 41
attr replication #41
attr resultdir results
attr runnumber 41
attr seedset 41
param **.coreDebug false
param **.debug false
param *.**.nic.mac1609_4.bitrate 18Mbps
param *.**.nic.mac1609_4.txPower 20mW
param *.**.nic.mac1609_4.useServiceChannel false
param *.**.nic.phy80211p.analogueModels "xmldoc(\"config.xml\")"
param *.**.nic.phy80211p.decider "xmldoc(\"config.xml\")"
param *.**.nic.phy80211p.sensitivity -89dBm
param *.**.nic.phy80211p.thermalNoise -110dBm
param *.**.nic.phy80211p.usePropagationDelay true
param *.**.nic.phy80211p.useThermalNoise true
param *.annotations.draw false
param *.connectionManager.alpha 2.0
param *.connectionManager.carrierFrequency "5.890e9 Hz"
param *.connectionManager.pMax 20mW
param *.connectionManager.sat -89dBm
param *.connectionManager.sendDirect true
param *.manager.autoShutdown true
param *.manager.host "\"localhost\""
param *.manager.launchConfig "xmldoc(\"paramics.launchd.xml\")"
param *.manager.margin 25
param *.manager.moduleDisplayString "\"\""
param *.manager.moduleName "\"node\""
param *.manager.moduleType "\"org.car2x.veins.nodes.Car\""
param *.manager.port 9999
param *.manager.updateInterval 250ms
param *.node[*0].veinsmobility.accidentCount 0
param *.node[*0].veinsmobility.accidentDuration 30s
param *.node[*0].veinsmobility.accidentStart 75s
param *.node[*].appl.LiderSelectZoneRadio 55.0
param *.node[*].appl.ShareDataZoneRadio 110.0
param *.node[*].appl.TiempoSemaforo 30.0
param *.node[*].appl.beaconInterval 1s
param *.node[*].appl.beaconPriority 3
param *.node[*].appl.dataOnSch false
param *.node[*].appl.dataPriority 2
param *.node[*].appl.debug false
param *.node[*].appl.headerLength "256 bit"
param *.node[*].appl.maxOffset 0.005s
param *.node[*].appl.sendBeacons false
param *.node[*].appl.sendData true
param *.node[*].applType "\"Dummy\""
param *.node[*].mobilityType "\"TraCIMobility\""
param *.node[*].mobilityType.debug true
param *.node[*].veinsmobility.x 0
param *.node[*].veinsmobility.y 0
param *.node[*].veinsmobility.z 1.895
param *.node[*].veinsmobilityType "\"org.car2x.veins.modules.mobility.traci.TraCIMobility\""
param *.node[*].veinsmobilityType.debug true
param *.playgroundSizeX 8500m
param *.playgroundSizeY 8500m
param *.playgroundSizeZ 50m
param *.world.use2D false
param *.world.useTorus false

scalar IntersectionExampleScenario.node[0].appl 	VehicleRemoved 	0
scalar IntersectionExampleScenario.node[0].appl 	ArrivedAtDest 	1
scalar IntersectionExampleScenario.node[0].appl 	IntersectionEnterTime 	3.75
scalar IntersectionExampleScenario.node[0].appl 	IntersectionExitTime 	35.255433685699
scalar IntersectionExampleScenario.node[0].appl 	NumberOfCollisions 	0
scalar IntersectionExampleScenario.node[0].nic.phy80211p 	busyTime 	0
scalar IntersectionExampleScenario.node[0].nic.mac1609_4 	ReceivedUnicastPackets 	0
scalar IntersectionExampleScenario.node[0].nic.mac1609_4 	ReceivedBroadcasts 	0
scalar IntersectionExampleScenario.node[0].nic.mac1609_4 	SentPackets 	0
scalar IntersectionExampleScenario.node[0].nic.mac1609_4 	SNIRLostPackets 	0
scalar IntersectionExampleScenario.node[0].nic.mac1609_4 	RXTXLostPackets 	0
scalar IntersectionExampleScenario.node[0].nic.mac1609_4 	TotalLostPackets 	0
scalar IntersectionExampleScenario.node[0].nic.mac1609_4 	DroppedPacketsInMac 	0
scalar IntersectionExampleScenario.node[0].nic.mac1609_4 	TooLittleTime 	0
scalar IntersectionExampleScenario.node[0].nic.mac1609_4 	TimesIntoBackoff 	0
scalar IntersectionExampleScenario.node[0].nic.mac1609_4 	SlotsBackoff 	0
scalar IntersectionExampleScenario.node[0].nic.mac1609_4 	NumInternalContention 	0
scalar IntersectionExampleScenario.node[0].nic.mac1609_4 	totalBusyTime 	0
scalar IntersectionExampleScenario.node[0].veinsmobility 	startTime 	3.75
scalar IntersectionExampleScenario.node[0].veinsmobility 	totalTime 	47.5
scalar IntersectionExampleScenario.node[0].veinsmobility 	stopTime 	51.5
scalar IntersectionExampleScenario.node[0].veinsmobility 	minSpeed 	0
scalar IntersectionExampleScenario.node[0].veinsmobility 	maxSpeed 	15.64999961853
scalar IntersectionExampleScenario.node[0].veinsmobility 	totalDistance 	554.18717956543
scalar IntersectionExampleScenario.node[0].veinsmobility 	totalCO2Emission 	140.91144230539
scalar IntersectionExampleScenario.node[2].appl 	VehicleRemoved 	0
scalar IntersectionExampleScenario.node[2].appl 	ArrivedAtDest 	1
scalar IntersectionExampleScenario.node[2].appl 	IntersectionEnterTime 	7
scalar IntersectionExampleScenario.node[2].appl 	IntersectionExitTime 	35.28537920423
scalar IntersectionExampleScenario.node[2].appl 	NumberOfCollisions 	0
scalar IntersectionExampleScenario.node[2].nic.phy80211p 	busyTime 	0
scalar IntersectionExampleScenario.node[2].nic.mac1609_4 	ReceivedUnicastPackets 	0
scalar IntersectionExampleScenario.node[2].nic.mac1609_4 	ReceivedBroadcasts 	0
scalar IntersectionExampleScenario.node[2].nic.mac1609_4 	SentPackets 	0
scalar IntersectionExampleScenario.node[2].nic.mac1609_4 	SNIRLostPackets 	0
scalar IntersectionExampleScenario.node[2].nic.mac1609_4 	RXTXLostPackets 	0
scalar IntersectionExampleScenario.node[2].nic.mac1609_4 	TotalLostPackets 	0
scalar IntersectionExampleScenario.node[2].nic.mac1609_4 	DroppedPacketsInMac 	0
scalar IntersectionExampleScenario.node[2].nic.mac1609_4 	TooLittleTime 	0
scalar IntersectionExampleScenario.node[2].nic.mac1609_4 	TimesIntoBackoff 	0
scalar IntersectionExampleScenario.node[2].nic.mac1609_4 	SlotsBackoff 	0
scalar IntersectionExampleScenario.node[2].nic.mac1609_4 	NumInternalContention 	0
scalar IntersectionExampleScenario.node[2].nic.mac1609_4 	totalBusyTime 	0
scalar IntersectionExampleScenario.node[2].veinsmobility 	startTime 	7
scalar IntersectionExampleScenario.node[2].veinsmobility 	totalTime 	44.75
scalar IntersectionExampleScenario.node[2].veinsmobility 	stopTime 	52
scalar IntersectionExampleScenario.node[2].veinsmobility 	minSpeed 	0
scalar IntersectionExampleScenario.node[2].veinsmobility 	maxSpeed 	15.02499961853
scalar IntersectionExampleScenario.node[2].veinsmobility 	totalDistance 	552.3733291626
scalar IntersectionExampleScenario.node[2].veinsmobility 	totalCO2Emission 	132.99438173579
scalar IntersectionExampleScenario.node[1].appl 	VehicleRemoved 	0
scalar IntersectionExampleScenario.node[1].appl 	ArrivedAtDest 	1
scalar IntersectionExampleScenario.node[1].appl 	IntersectionEnterTime 	4.5
scalar IntersectionExampleScenario.node[1].appl 	IntersectionExitTime 	37.33356446409
scalar IntersectionExampleScenario.node[1].appl 	NumberOfCollisions 	0
scalar IntersectionExampleScenario.node[1].nic.phy80211p 	busyTime 	0
scalar IntersectionExampleScenario.node[1].nic.mac1609_4 	ReceivedUnicastPackets 	0
scalar IntersectionExampleScenario.node[1].nic.mac1609_4 	ReceivedBroadcasts 	0
scalar IntersectionExampleScenario.node[1].nic.mac1609_4 	SentPackets 	0
scalar IntersectionExampleScenario.node[1].nic.mac1609_4 	SNIRLostPackets 	0
scalar IntersectionExampleScenario.node[1].nic.mac1609_4 	RXTXLostPackets 	0
scalar IntersectionExampleScenario.node[1].nic.mac1609_4 	TotalLostPackets 	0
scalar IntersectionExampleScenario.node[1].nic.mac1609_4 	DroppedPacketsInMac 	0
scalar IntersectionExampleScenario.node[1].nic.mac1609_4 	TooLittleTime 	0
scalar IntersectionExampleScenario.node[1].nic.mac1609_4 	TimesIntoBackoff 	0
scalar IntersectionExampleScenario.node[1].nic.mac1609_4 	SlotsBackoff 	0
scalar IntersectionExampleScenario.node[1].nic.mac1609_4 	NumInternalContention 	0
scalar IntersectionExampleScenario.node[1].nic.mac1609_4 	totalBusyTime 	0
scalar IntersectionExampleScenario.node[1].veinsmobility 	startTime 	4.5
scalar IntersectionExampleScenario.node[1].veinsmobility 	totalTime 	48.5
scalar IntersectionExampleScenario.node[1].veinsmobility 	stopTime 	53.25
scalar IntersectionExampleScenario.node[1].veinsmobility 	minSpeed 	0
scalar IntersectionExampleScenario.node[1].veinsmobility 	maxSpeed 	15.64999961853
scalar IntersectionExampleScenario.node[1].veinsmobility 	totalDistance 	575.11689758301
scalar IntersectionExampleScenario.node[1].veinsmobility 	totalCO2Emission 	143.62008861273
scalar IntersectionExampleScenario.node[5].appl 	VehicleRemoved 	0
scalar IntersectionExampleScenario.node[5].appl 	ArrivedAtDest 	1
scalar IntersectionExampleScenario.node[5].appl 	IntersectionEnterTime 	10.75
scalar IntersectionExampleScenario.node[5].appl 	IntersectionExitTime 	39.299238527048
scalar IntersectionExampleScenario.node[5].appl 	NumberOfCollisions 	0
scalar IntersectionExampleScenario.node[5].nic.phy80211p 	busyTime 	0
scalar IntersectionExampleScenario.node[5].nic.mac1609_4 	ReceivedUnicastPackets 	0
scalar IntersectionExampleScenario.node[5].nic.mac1609_4 	ReceivedBroadcasts 	0
scalar IntersectionExampleScenario.node[5].nic.mac1609_4 	SentPackets 	0
scalar IntersectionExampleScenario.node[5].nic.mac1609_4 	SNIRLostPackets 	0
scalar IntersectionExampleScenario.node[5].nic.mac1609_4 	RXTXLostPackets 	0
scalar IntersectionExampleScenario.node[5].nic.mac1609_4 	TotalLostPackets 	0
scalar IntersectionExampleScenario.node[5].nic.mac1609_4 	DroppedPacketsInMac 	0
scalar IntersectionExampleScenario.node[5].nic.mac1609_4 	TooLittleTime 	0
scalar IntersectionExampleScenario.node[5].nic.mac1609_4 	TimesIntoBackoff 	0
scalar IntersectionExampleScenario.node[5].nic.mac1609_4 	SlotsBackoff 	0
scalar IntersectionExampleScenario.node[5].nic.mac1609_4 	NumInternalContention 	0
scalar IntersectionExampleScenario.node[5].nic.mac1609_4 	totalBusyTime 	0
scalar IntersectionExampleScenario.node[5].veinsmobility 	startTime 	10.75
scalar IntersectionExampleScenario.node[5].veinsmobility 	totalTime 	45
scalar IntersectionExampleScenario.node[5].veinsmobility 	stopTime 	56
scalar IntersectionExampleScenario.node[5].veinsmobility 	minSpeed 	2.0983264446259
scalar IntersectionExampleScenario.node[5].veinsmobility 	maxSpeed 	15.347575187683
scalar IntersectionExampleScenario.node[5].veinsmobility 	totalDistance 	530.69328308105
scalar IntersectionExampleScenario.node[5].veinsmobility 	totalCO2Emission 	131.89762632482
scalar IntersectionExampleScenario.node[7].appl 	VehicleRemoved 	0
scalar IntersectionExampleScenario.node[7].appl 	ArrivedAtDest 	1
scalar IntersectionExampleScenario.node[7].appl 	IntersectionEnterTime 	19.5
scalar IntersectionExampleScenario.node[7].appl 	IntersectionExitTime 	41.515777993394
scalar IntersectionExampleScenario.node[7].appl 	NumberOfCollisions 	0
scalar IntersectionExampleScenario.node[7].nic.phy80211p 	busyTime 	0
scalar IntersectionExampleScenario.node[7].nic.mac1609_4 	ReceivedUnicastPackets 	0
scalar IntersectionExampleScenario.node[7].nic.mac1609_4 	ReceivedBroadcasts 	0
scalar IntersectionExampleScenario.node[7].nic.mac1609_4 	SentPackets 	0
scalar IntersectionExampleScenario.node[7].nic.mac1609_4 	SNIRLostPackets 	0
scalar IntersectionExampleScenario.node[7].nic.mac1609_4 	RXTXLostPackets 	0
scalar IntersectionExampleScenario.node[7].nic.mac1609_4 	TotalLostPackets 	0
scalar IntersectionExampleScenario.node[7].nic.mac1609_4 	DroppedPacketsInMac 	0
scalar IntersectionExampleScenario.node[7].nic.mac1609_4 	TooLittleTime 	0
scalar IntersectionExampleScenario.node[7].nic.mac1609_4 	TimesIntoBackoff 	0
scalar IntersectionExampleScenario.node[7].nic.mac1609_4 	SlotsBackoff 	0
scalar IntersectionExampleScenario.node[7].nic.mac1609_4 	NumInternalContention 	0
scalar IntersectionExampleScenario.node[7].nic.mac1609_4 	totalBusyTime 	0
scalar IntersectionExampleScenario.node[7].veinsmobility 	startTime 	19.5
scalar IntersectionExampleScenario.node[7].veinsmobility 	totalTime 	37.25
scalar IntersectionExampleScenario.node[7].veinsmobility 	stopTime 	57
scalar IntersectionExampleScenario.node[7].veinsmobility 	minSpeed 	5.6500000953674
scalar IntersectionExampleScenario.node[7].veinsmobility 	maxSpeed 	16.282884597778
scalar IntersectionExampleScenario.node[7].veinsmobility 	totalDistance 	553.31949615479
scalar IntersectionExampleScenario.node[7].veinsmobility 	totalCO2Emission 	124.47719138709
scalar IntersectionExampleScenario.node[3].appl 	VehicleRemoved 	0
scalar IntersectionExampleScenario.node[3].appl 	ArrivedAtDest 	1
scalar IntersectionExampleScenario.node[3].appl 	IntersectionEnterTime 	10.25
scalar IntersectionExampleScenario.node[3].appl 	IntersectionExitTime 	41.508690058894
scalar IntersectionExampleScenario.node[3].appl 	NumberOfCollisions 	0
scalar IntersectionExampleScenario.node[3].nic.phy80211p 	busyTime 	0
scalar IntersectionExampleScenario.node[3].nic.mac1609_4 	ReceivedUnicastPackets 	0
scalar IntersectionExampleScenario.node[3].nic.mac1609_4 	ReceivedBroadcasts 	0
scalar IntersectionExampleScenario.node[3].nic.mac1609_4 	SentPackets 	0
scalar IntersectionExampleScenario.node[3].nic.mac1609_4 	SNIRLostPackets 	0
scalar IntersectionExampleScenario.node[3].nic.mac1609_4 	RXTXLostPackets 	0
scalar IntersectionExampleScenario.node[3].nic.mac1609_4 	TotalLostPackets 	0
scalar IntersectionExampleScenario.node[3].nic.mac1609_4 	DroppedPacketsInMac 	0
scalar IntersectionExampleScenario.node[3].nic.mac1609_4 	TooLittleTime 	0
scalar IntersectionExampleScenario.node[3].nic.mac1609_4 	TimesIntoBackoff 	0
scalar IntersectionExampleScenario.node[3].nic.mac1609_4 	SlotsBackoff 	0
scalar IntersectionExampleScenario.node[3].nic.mac1609_4 	NumInternalContention 	0
scalar IntersectionExampleScenario.node[3].nic.mac1609_4 	totalBusyTime 	0
scalar IntersectionExampleScenario.node[3].veinsmobility 	startTime 	10.25
scalar IntersectionExampleScenario.node[3].veinsmobility 	totalTime 	48.25
scalar IntersectionExampleScenario.node[3].veinsmobility 	stopTime 	58.75
scalar IntersectionExampleScenario.node[3].veinsmobility 	minSpeed 	4.5126481056213
scalar IntersectionExampleScenario.node[3].veinsmobility 	maxSpeed 	15.25
scalar IntersectionExampleScenario.node[3].veinsmobility 	totalDistance 	549.53823617347
scalar IntersectionExampleScenario.node[3].veinsmobility 	totalCO2Emission 	141.39365197415
scalar IntersectionExampleScenario.node[10].appl 	VehicleRemoved 	0
scalar IntersectionExampleScenario.node[10].appl 	ArrivedAtDest 	1
scalar IntersectionExampleScenario.node[10].appl 	IntersectionEnterTime 	26.75
scalar IntersectionExampleScenario.node[10].appl 	IntersectionExitTime 	50.012467240507
scalar IntersectionExampleScenario.node[10].appl 	NumberOfCollisions 	0
scalar IntersectionExampleScenario.node[10].nic.phy80211p 	busyTime 	0
scalar IntersectionExampleScenario.node[10].nic.mac1609_4 	ReceivedUnicastPackets 	0
scalar IntersectionExampleScenario.node[10].nic.mac1609_4 	ReceivedBroadcasts 	0
scalar IntersectionExampleScenario.node[10].nic.mac1609_4 	SentPackets 	0
scalar IntersectionExampleScenario.node[10].nic.mac1609_4 	SNIRLostPackets 	0
scalar IntersectionExampleScenario.node[10].nic.mac1609_4 	RXTXLostPackets 	0
scalar IntersectionExampleScenario.node[10].nic.mac1609_4 	TotalLostPackets 	0
scalar IntersectionExampleScenario.node[10].nic.mac1609_4 	DroppedPacketsInMac 	0
scalar IntersectionExampleScenario.node[10].nic.mac1609_4 	TooLittleTime 	0
scalar IntersectionExampleScenario.node[10].nic.mac1609_4 	TimesIntoBackoff 	0
scalar IntersectionExampleScenario.node[10].nic.mac1609_4 	SlotsBackoff 	0
scalar IntersectionExampleScenario.node[10].nic.mac1609_4 	NumInternalContention 	0
scalar IntersectionExampleScenario.node[10].nic.mac1609_4 	totalBusyTime 	0
scalar IntersectionExampleScenario.node[10].veinsmobility 	startTime 	26.75
scalar IntersectionExampleScenario.node[10].veinsmobility 	totalTime 	39.5
scalar IntersectionExampleScenario.node[10].veinsmobility 	stopTime 	66.5
scalar IntersectionExampleScenario.node[10].veinsmobility 	minSpeed 	5.6500000953674
scalar IntersectionExampleScenario.node[10].veinsmobility 	maxSpeed 	15.64999961853
scalar IntersectionExampleScenario.node[10].veinsmobility 	totalDistance 	548.74129521157
scalar IntersectionExampleScenario.node[10].veinsmobility 	totalCO2Emission 	122.10212715358
scalar IntersectionExampleScenario.node[4].appl 	VehicleRemoved 	0
scalar IntersectionExampleScenario.node[4].appl 	ArrivedAtDest 	1
scalar IntersectionExampleScenario.node[4].appl 	IntersectionEnterTime 	10.25
scalar IntersectionExampleScenario.node[4].appl 	IntersectionExitTime 	55.549776599364
scalar IntersectionExampleScenario.node[4].appl 	NumberOfCollisions 	0
scalar IntersectionExampleScenario.node[4].nic.phy80211p 	busyTime 	0
scalar IntersectionExampleScenario.node[4].nic.mac1609_4 	ReceivedUnicastPackets 	0
scalar IntersectionExampleScenario.node[4].nic.mac1609_4 	ReceivedBroadcasts 	0
scalar IntersectionExampleScenario.node[4].nic.mac1609_4 	SentPackets 	0
scalar IntersectionExampleScenario.node[4].nic.mac1609_4 	SNIRLostPackets 	0
scalar IntersectionExampleScenario.node[4].nic.mac1609_4 	RXTXLostPackets 	0
scalar IntersectionExampleScenario.node[4].nic.mac1609_4 	TotalLostPackets 	0
scalar IntersectionExampleScenario.node[4].nic.mac1609_4 	DroppedPacketsInMac 	0
scalar IntersectionExampleScenario.node[4].nic.mac1609_4 	TooLittleTime 	0
scalar IntersectionExampleScenario.node[4].nic.mac1609_4 	TimesIntoBackoff 	0
scalar IntersectionExampleScenario.node[4].nic.mac1609_4 	SlotsBackoff 	0
scalar IntersectionExampleScenario.node[4].nic.mac1609_4 	NumInternalContention 	0
scalar IntersectionExampleScenario.node[4].nic.mac1609_4 	totalBusyTime 	0
scalar IntersectionExampleScenario.node[4].veinsmobility 	startTime 	10.25
scalar IntersectionExampleScenario.node[4].veinsmobility 	totalTime 	62.25
scalar IntersectionExampleScenario.node[4].veinsmobility 	stopTime 	72.75
scalar IntersectionExampleScenario.node[4].veinsmobility 	minSpeed 	0
scalar IntersectionExampleScenario.node[4].veinsmobility 	maxSpeed 	15.25
scalar IntersectionExampleScenario.node[4].veinsmobility 	totalDistance 	543.92479611785
scalar IntersectionExampleScenario.node[4].veinsmobility 	totalCO2Emission 	151.84877963486
scalar IntersectionExampleScenario.node[8].appl 	VehicleRemoved 	0
scalar IntersectionExampleScenario.node[8].appl 	ArrivedAtDest 	1
scalar IntersectionExampleScenario.node[8].appl 	IntersectionEnterTime 	23.75
scalar IntersectionExampleScenario.node[8].appl 	IntersectionExitTime 	57.285125206661
scalar IntersectionExampleScenario.node[8].appl 	NumberOfCollisions 	0
scalar IntersectionExampleScenario.node[8].nic.phy80211p 	busyTime 	0
scalar IntersectionExampleScenario.node[8].nic.mac1609_4 	ReceivedUnicastPackets 	0
scalar IntersectionExampleScenario.node[8].nic.mac1609_4 	ReceivedBroadcasts 	0
scalar IntersectionExampleScenario.node[8].nic.mac1609_4 	SentPackets 	0
scalar IntersectionExampleScenario.node[8].nic.mac1609_4 	SNIRLostPackets 	0
scalar IntersectionExampleScenario.node[8].nic.mac1609_4 	RXTXLostPackets 	0
scalar IntersectionExampleScenario.node[8].nic.mac1609_4 	TotalLostPackets 	0
scalar IntersectionExampleScenario.node[8].nic.mac1609_4 	DroppedPacketsInMac 	0
scalar IntersectionExampleScenario.node[8].nic.mac1609_4 	TooLittleTime 	0
scalar IntersectionExampleScenario.node[8].nic.mac1609_4 	TimesIntoBackoff 	0
scalar IntersectionExampleScenario.node[8].nic.mac1609_4 	SlotsBackoff 	0
scalar IntersectionExampleScenario.node[8].nic.mac1609_4 	NumInternalContention 	0
scalar IntersectionExampleScenario.node[8].nic.mac1609_4 	totalBusyTime 	0
scalar IntersectionExampleScenario.node[8].veinsmobility 	startTime 	23.75
scalar IntersectionExampleScenario.node[8].veinsmobility 	totalTime 	49.75
scalar IntersectionExampleScenario.node[8].veinsmobility 	stopTime 	73.75
scalar IntersectionExampleScenario.node[8].veinsmobility 	minSpeed 	1.115281701088
scalar IntersectionExampleScenario.node[8].veinsmobility 	maxSpeed 	15.5
scalar IntersectionExampleScenario.node[8].veinsmobility 	totalDistance 	551.81266784668
scalar IntersectionExampleScenario.node[8].veinsmobility 	totalCO2Emission 	136.48830944347
scalar IntersectionExampleScenario.node[11].appl 	VehicleRemoved 	0
scalar IntersectionExampleScenario.node[11].appl 	ArrivedAtDest 	1
scalar IntersectionExampleScenario.node[11].appl 	IntersectionEnterTime 	27.5
scalar IntersectionExampleScenario.node[11].appl 	IntersectionExitTime 	59.506872427039
scalar IntersectionExampleScenario.node[11].appl 	NumberOfCollisions 	0
scalar IntersectionExampleScenario.node[11].nic.phy80211p 	busyTime 	0
scalar IntersectionExampleScenario.node[11].nic.mac1609_4 	ReceivedUnicastPackets 	0
scalar IntersectionExampleScenario.node[11].nic.mac1609_4 	ReceivedBroadcasts 	0
scalar IntersectionExampleScenario.node[11].nic.mac1609_4 	SentPackets 	0
scalar IntersectionExampleScenario.node[11].nic.mac1609_4 	SNIRLostPackets 	0
scalar IntersectionExampleScenario.node[11].nic.mac1609_4 	RXTXLostPackets 	0
scalar IntersectionExampleScenario.node[11].nic.mac1609_4 	TotalLostPackets 	0
scalar IntersectionExampleScenario.node[11].nic.mac1609_4 	DroppedPacketsInMac 	0
scalar IntersectionExampleScenario.node[11].nic.mac1609_4 	TooLittleTime 	0
scalar IntersectionExampleScenario.node[11].nic.mac1609_4 	TimesIntoBackoff 	0
scalar IntersectionExampleScenario.node[11].nic.mac1609_4 	SlotsBackoff 	0
scalar IntersectionExampleScenario.node[11].nic.mac1609_4 	NumInternalContention 	0
scalar IntersectionExampleScenario.node[11].nic.mac1609_4 	totalBusyTime 	0
scalar IntersectionExampleScenario.node[11].veinsmobility 	startTime 	27.5
scalar IntersectionExampleScenario.node[11].veinsmobility 	totalTime 	48.25
scalar IntersectionExampleScenario.node[11].veinsmobility 	stopTime 	76
scalar IntersectionExampleScenario.node[11].veinsmobility 	minSpeed 	3.3396673202515
scalar IntersectionExampleScenario.node[11].veinsmobility 	maxSpeed 	15.166205406189
scalar IntersectionExampleScenario.node[11].veinsmobility 	totalDistance 	562.27006530762
scalar IntersectionExampleScenario.node[11].veinsmobility 	totalCO2Emission 	135.71553698084
scalar IntersectionExampleScenario.node[18].appl 	VehicleRemoved 	0
scalar IntersectionExampleScenario.node[18].appl 	ArrivedAtDest 	1
scalar IntersectionExampleScenario.node[18].appl 	IntersectionEnterTime 	41.25
scalar IntersectionExampleScenario.node[18].appl 	IntersectionExitTime 	62.871084298095
scalar IntersectionExampleScenario.node[18].appl 	NumberOfCollisions 	0
scalar IntersectionExampleScenario.node[18].nic.phy80211p 	busyTime 	0
scalar IntersectionExampleScenario.node[18].nic.mac1609_4 	ReceivedUnicastPackets 	0
scalar IntersectionExampleScenario.node[18].nic.mac1609_4 	ReceivedBroadcasts 	0
scalar IntersectionExampleScenario.node[18].nic.mac1609_4 	SentPackets 	0
scalar IntersectionExampleScenario.node[18].nic.mac1609_4 	SNIRLostPackets 	0
scalar IntersectionExampleScenario.node[18].nic.mac1609_4 	RXTXLostPackets 	0
scalar IntersectionExampleScenario.node[18].nic.mac1609_4 	TotalLostPackets 	0
scalar IntersectionExampleScenario.node[18].nic.mac1609_4 	DroppedPacketsInMac 	0
scalar IntersectionExampleScenario.node[18].nic.mac1609_4 	TooLittleTime 	0
scalar IntersectionExampleScenario.node[18].nic.mac1609_4 	TimesIntoBackoff 	0
scalar IntersectionExampleScenario.node[18].nic.mac1609_4 	SlotsBackoff 	0
scalar IntersectionExampleScenario.node[18].nic.mac1609_4 	NumInternalContention 	0
scalar IntersectionExampleScenario.node[18].nic.mac1609_4 	totalBusyTime 	0
scalar IntersectionExampleScenario.node[18].veinsmobility 	startTime 	41.25
scalar IntersectionExampleScenario.node[18].veinsmobility 	totalTime 	37.75
scalar IntersectionExampleScenario.node[18].veinsmobility 	stopTime 	79.25
scalar IntersectionExampleScenario.node[18].veinsmobility 	minSpeed 	5.6500000953674
scalar IntersectionExampleScenario.node[18].veinsmobility 	maxSpeed 	15.64999961853
scalar IntersectionExampleScenario.node[18].veinsmobility 	totalDistance 	518.53418636571
scalar IntersectionExampleScenario.node[18].veinsmobility 	totalCO2Emission 	128.8117925719
scalar IntersectionExampleScenario.node[14].appl 	VehicleRemoved 	0
scalar IntersectionExampleScenario.node[14].appl 	ArrivedAtDest 	1
scalar IntersectionExampleScenario.node[14].appl 	IntersectionEnterTime 	39.5
scalar IntersectionExampleScenario.node[14].appl 	IntersectionExitTime 	64.316410343687
scalar IntersectionExampleScenario.node[14].appl 	NumberOfCollisions 	0
scalar IntersectionExampleScenario.node[14].nic.phy80211p 	busyTime 	0
scalar IntersectionExampleScenario.node[14].nic.mac1609_4 	ReceivedUnicastPackets 	0
scalar IntersectionExampleScenario.node[14].nic.mac1609_4 	ReceivedBroadcasts 	0
scalar IntersectionExampleScenario.node[14].nic.mac1609_4 	SentPackets 	0
scalar IntersectionExampleScenario.node[14].nic.mac1609_4 	SNIRLostPackets 	0
scalar IntersectionExampleScenario.node[14].nic.mac1609_4 	RXTXLostPackets 	0
scalar IntersectionExampleScenario.node[14].nic.mac1609_4 	TotalLostPackets 	0
scalar IntersectionExampleScenario.node[14].nic.mac1609_4 	DroppedPacketsInMac 	0
scalar IntersectionExampleScenario.node[14].nic.mac1609_4 	TooLittleTime 	0
scalar IntersectionExampleScenario.node[14].nic.mac1609_4 	TimesIntoBackoff 	0
scalar IntersectionExampleScenario.node[14].nic.mac1609_4 	SlotsBackoff 	0
scalar IntersectionExampleScenario.node[14].nic.mac1609_4 	NumInternalContention 	0
scalar IntersectionExampleScenario.node[14].nic.mac1609_4 	totalBusyTime 	0
scalar IntersectionExampleScenario.node[14].veinsmobility 	startTime 	39.5
scalar IntersectionExampleScenario.node[14].veinsmobility 	totalTime 	40.25
scalar IntersectionExampleScenario.node[14].veinsmobility 	stopTime 	80
scalar IntersectionExampleScenario.node[14].veinsmobility 	minSpeed 	5.6500000953674
scalar IntersectionExampleScenario.node[14].veinsmobility 	maxSpeed 	15.714168548584
scalar IntersectionExampleScenario.node[14].veinsmobility 	totalDistance 	552.09210205078
scalar IntersectionExampleScenario.node[14].veinsmobility 	totalCO2Emission 	134.6636145333
scalar IntersectionExampleScenario.node[6].appl 	VehicleRemoved 	0
scalar IntersectionExampleScenario.node[6].appl 	ArrivedAtDest 	1
scalar IntersectionExampleScenario.node[6].appl 	IntersectionEnterTime 	11.75
scalar IntersectionExampleScenario.node[6].appl 	IntersectionExitTime 	67.072950754897
scalar IntersectionExampleScenario.node[6].appl 	NumberOfCollisions 	0
scalar IntersectionExampleScenario.node[6].nic.phy80211p 	busyTime 	0
scalar IntersectionExampleScenario.node[6].nic.mac1609_4 	ReceivedUnicastPackets 	0
scalar IntersectionExampleScenario.node[6].nic.mac1609_4 	ReceivedBroadcasts 	0
scalar IntersectionExampleScenario.node[6].nic.mac1609_4 	SentPackets 	0
scalar IntersectionExampleScenario.node[6].nic.mac1609_4 	SNIRLostPackets 	0
scalar IntersectionExampleScenario.node[6].nic.mac1609_4 	RXTXLostPackets 	0
scalar IntersectionExampleScenario.node[6].nic.mac1609_4 	TotalLostPackets 	0
scalar IntersectionExampleScenario.node[6].nic.mac1609_4 	DroppedPacketsInMac 	0
scalar IntersectionExampleScenario.node[6].nic.mac1609_4 	TooLittleTime 	0
scalar IntersectionExampleScenario.node[6].nic.mac1609_4 	TimesIntoBackoff 	0
scalar IntersectionExampleScenario.node[6].nic.mac1609_4 	SlotsBackoff 	0
scalar IntersectionExampleScenario.node[6].nic.mac1609_4 	NumInternalContention 	0
scalar IntersectionExampleScenario.node[6].nic.mac1609_4 	totalBusyTime 	0
scalar IntersectionExampleScenario.node[6].veinsmobility 	startTime 	11.75
scalar IntersectionExampleScenario.node[6].veinsmobility 	totalTime 	72.75
scalar IntersectionExampleScenario.node[6].veinsmobility 	stopTime 	84.75
scalar IntersectionExampleScenario.node[6].veinsmobility 	minSpeed 	0
scalar IntersectionExampleScenario.node[6].veinsmobility 	maxSpeed 	15.031377792358
scalar IntersectionExampleScenario.node[6].veinsmobility 	totalDistance 	568.70353648986
scalar IntersectionExampleScenario.node[6].veinsmobility 	totalCO2Emission 	165.2513556034
scalar IntersectionExampleScenario.node[9].appl 	VehicleRemoved 	0
scalar IntersectionExampleScenario.node[9].appl 	ArrivedAtDest 	1
scalar IntersectionExampleScenario.node[9].appl 	IntersectionEnterTime 	24.75
scalar IntersectionExampleScenario.node[9].appl 	IntersectionExitTime 	68.777260961419
scalar IntersectionExampleScenario.node[9].appl 	NumberOfCollisions 	0
scalar IntersectionExampleScenario.node[9].nic.phy80211p 	busyTime 	0
scalar IntersectionExampleScenario.node[9].nic.mac1609_4 	ReceivedUnicastPackets 	0
scalar IntersectionExampleScenario.node[9].nic.mac1609_4 	ReceivedBroadcasts 	0
scalar IntersectionExampleScenario.node[9].nic.mac1609_4 	SentPackets 	0
scalar IntersectionExampleScenario.node[9].nic.mac1609_4 	SNIRLostPackets 	0
scalar IntersectionExampleScenario.node[9].nic.mac1609_4 	RXTXLostPackets 	0
scalar IntersectionExampleScenario.node[9].nic.mac1609_4 	TotalLostPackets 	0
scalar IntersectionExampleScenario.node[9].nic.mac1609_4 	DroppedPacketsInMac 	0
scalar IntersectionExampleScenario.node[9].nic.mac1609_4 	TooLittleTime 	0
scalar IntersectionExampleScenario.node[9].nic.mac1609_4 	TimesIntoBackoff 	0
scalar IntersectionExampleScenario.node[9].nic.mac1609_4 	SlotsBackoff 	0
scalar IntersectionExampleScenario.node[9].nic.mac1609_4 	NumInternalContention 	0
scalar IntersectionExampleScenario.node[9].nic.mac1609_4 	totalBusyTime 	0
scalar IntersectionExampleScenario.node[9].veinsmobility 	startTime 	24.75
scalar IntersectionExampleScenario.node[9].veinsmobility 	totalTime 	60
scalar IntersectionExampleScenario.node[9].veinsmobility 	stopTime 	85
scalar IntersectionExampleScenario.node[9].veinsmobility 	minSpeed 	0
scalar IntersectionExampleScenario.node[9].veinsmobility 	maxSpeed 	15.64999961853
scalar IntersectionExampleScenario.node[9].veinsmobility 	totalDistance 	552.05151367188
scalar IntersectionExampleScenario.node[9].veinsmobility 	totalCO2Emission 	156.06703864869
scalar IntersectionExampleScenario.node[16].appl 	VehicleRemoved 	0
scalar IntersectionExampleScenario.node[16].appl 	ArrivedAtDest 	1
scalar IntersectionExampleScenario.node[16].appl 	IntersectionEnterTime 	40.5
scalar IntersectionExampleScenario.node[16].appl 	IntersectionExitTime 	69.292218018352
scalar IntersectionExampleScenario.node[16].appl 	NumberOfCollisions 	0
scalar IntersectionExampleScenario.node[16].nic.phy80211p 	busyTime 	0
scalar IntersectionExampleScenario.node[16].nic.mac1609_4 	ReceivedUnicastPackets 	0
scalar IntersectionExampleScenario.node[16].nic.mac1609_4 	ReceivedBroadcasts 	0
scalar IntersectionExampleScenario.node[16].nic.mac1609_4 	SentPackets 	0
scalar IntersectionExampleScenario.node[16].nic.mac1609_4 	SNIRLostPackets 	0
scalar IntersectionExampleScenario.node[16].nic.mac1609_4 	RXTXLostPackets 	0
scalar IntersectionExampleScenario.node[16].nic.mac1609_4 	TotalLostPackets 	0
scalar IntersectionExampleScenario.node[16].nic.mac1609_4 	DroppedPacketsInMac 	0
scalar IntersectionExampleScenario.node[16].nic.mac1609_4 	TooLittleTime 	0
scalar IntersectionExampleScenario.node[16].nic.mac1609_4 	TimesIntoBackoff 	0
scalar IntersectionExampleScenario.node[16].nic.mac1609_4 	SlotsBackoff 	0
scalar IntersectionExampleScenario.node[16].nic.mac1609_4 	NumInternalContention 	0
scalar IntersectionExampleScenario.node[16].nic.mac1609_4 	totalBusyTime 	0
scalar IntersectionExampleScenario.node[16].veinsmobility 	startTime 	40.5
scalar IntersectionExampleScenario.node[16].veinsmobility 	totalTime 	45.75
scalar IntersectionExampleScenario.node[16].veinsmobility 	stopTime 	86.5
scalar IntersectionExampleScenario.node[16].veinsmobility 	minSpeed 	0
scalar IntersectionExampleScenario.node[16].veinsmobility 	maxSpeed 	15.02499961853
scalar IntersectionExampleScenario.node[16].veinsmobility 	totalDistance 	550.32818309508
scalar IntersectionExampleScenario.node[16].veinsmobility 	totalCO2Emission 	134.43080488592
scalar IntersectionExampleScenario.node[13].appl 	VehicleRemoved 	0
scalar IntersectionExampleScenario.node[13].appl 	ArrivedAtDest 	1
scalar IntersectionExampleScenario.node[13].appl 	IntersectionEnterTime 	37.5
scalar IntersectionExampleScenario.node[13].appl 	IntersectionExitTime 	71.020735385275
scalar IntersectionExampleScenario.node[13].appl 	NumberOfCollisions 	0
scalar IntersectionExampleScenario.node[13].nic.phy80211p 	busyTime 	0
scalar IntersectionExampleScenario.node[13].nic.mac1609_4 	ReceivedUnicastPackets 	0
scalar IntersectionExampleScenario.node[13].nic.mac1609_4 	ReceivedBroadcasts 	0
scalar IntersectionExampleScenario.node[13].nic.mac1609_4 	SentPackets 	0
scalar IntersectionExampleScenario.node[13].nic.mac1609_4 	SNIRLostPackets 	0
scalar IntersectionExampleScenario.node[13].nic.mac1609_4 	RXTXLostPackets 	0
scalar IntersectionExampleScenario.node[13].nic.mac1609_4 	TotalLostPackets 	0
scalar IntersectionExampleScenario.node[13].nic.mac1609_4 	DroppedPacketsInMac 	0
scalar IntersectionExampleScenario.node[13].nic.mac1609_4 	TooLittleTime 	0
scalar IntersectionExampleScenario.node[13].nic.mac1609_4 	TimesIntoBackoff 	0
scalar IntersectionExampleScenario.node[13].nic.mac1609_4 	SlotsBackoff 	0
scalar IntersectionExampleScenario.node[13].nic.mac1609_4 	NumInternalContention 	0
scalar IntersectionExampleScenario.node[13].nic.mac1609_4 	totalBusyTime 	0
scalar IntersectionExampleScenario.node[13].veinsmobility 	startTime 	37.5
scalar IntersectionExampleScenario.node[13].veinsmobility 	totalTime 	50.25
scalar IntersectionExampleScenario.node[13].veinsmobility 	stopTime 	88
scalar IntersectionExampleScenario.node[13].veinsmobility 	minSpeed 	1.7860722541809
scalar IntersectionExampleScenario.node[13].veinsmobility 	maxSpeed 	15.02499961853
scalar IntersectionExampleScenario.node[13].veinsmobility 	totalDistance 	551.89523444323
scalar IntersectionExampleScenario.node[13].veinsmobility 	totalCO2Emission 	134.73527840354
scalar IntersectionExampleScenario.node[22].appl 	VehicleRemoved 	0
scalar IntersectionExampleScenario.node[22].appl 	ArrivedAtDest 	1
scalar IntersectionExampleScenario.node[22].appl 	IntersectionEnterTime 	52.25
scalar IntersectionExampleScenario.node[22].appl 	IntersectionExitTime 	74.554365415883
scalar IntersectionExampleScenario.node[22].appl 	NumberOfCollisions 	0
scalar IntersectionExampleScenario.node[22].nic.phy80211p 	busyTime 	0
scalar IntersectionExampleScenario.node[22].nic.mac1609_4 	ReceivedUnicastPackets 	0
scalar IntersectionExampleScenario.node[22].nic.mac1609_4 	ReceivedBroadcasts 	0
scalar IntersectionExampleScenario.node[22].nic.mac1609_4 	SentPackets 	0
scalar IntersectionExampleScenario.node[22].nic.mac1609_4 	SNIRLostPackets 	0
scalar IntersectionExampleScenario.node[22].nic.mac1609_4 	RXTXLostPackets 	0
scalar IntersectionExampleScenario.node[22].nic.mac1609_4 	TotalLostPackets 	0
scalar IntersectionExampleScenario.node[22].nic.mac1609_4 	DroppedPacketsInMac 	0
scalar IntersectionExampleScenario.node[22].nic.mac1609_4 	TooLittleTime 	0
scalar IntersectionExampleScenario.node[22].nic.mac1609_4 	TimesIntoBackoff 	0
scalar IntersectionExampleScenario.node[22].nic.mac1609_4 	SlotsBackoff 	0
scalar IntersectionExampleScenario.node[22].nic.mac1609_4 	NumInternalContention 	0
scalar IntersectionExampleScenario.node[22].nic.mac1609_4 	totalBusyTime 	0
scalar IntersectionExampleScenario.node[22].veinsmobility 	startTime 	52.25
scalar IntersectionExampleScenario.node[22].veinsmobility 	totalTime 	37.75
scalar IntersectionExampleScenario.node[22].veinsmobility 	stopTime 	90.25
scalar IntersectionExampleScenario.node[22].veinsmobility 	minSpeed 	5.6500000953674
scalar IntersectionExampleScenario.node[22].veinsmobility 	maxSpeed 	16.27499961853
scalar IntersectionExampleScenario.node[22].veinsmobility 	totalDistance 	554.0364151001
scalar IntersectionExampleScenario.node[22].veinsmobility 	totalCO2Emission 	121.70077273678
scalar IntersectionExampleScenario.node[20].appl 	VehicleRemoved 	0
scalar IntersectionExampleScenario.node[20].appl 	ArrivedAtDest 	1
scalar IntersectionExampleScenario.node[20].appl 	IntersectionEnterTime 	49.5
scalar IntersectionExampleScenario.node[20].appl 	IntersectionExitTime 	74.314375093032
scalar IntersectionExampleScenario.node[20].appl 	NumberOfCollisions 	0
scalar IntersectionExampleScenario.node[20].nic.phy80211p 	busyTime 	0
scalar IntersectionExampleScenario.node[20].nic.mac1609_4 	ReceivedUnicastPackets 	0
scalar IntersectionExampleScenario.node[20].nic.mac1609_4 	ReceivedBroadcasts 	0
scalar IntersectionExampleScenario.node[20].nic.mac1609_4 	SentPackets 	0
scalar IntersectionExampleScenario.node[20].nic.mac1609_4 	SNIRLostPackets 	0
scalar IntersectionExampleScenario.node[20].nic.mac1609_4 	RXTXLostPackets 	0
scalar IntersectionExampleScenario.node[20].nic.mac1609_4 	TotalLostPackets 	0
scalar IntersectionExampleScenario.node[20].nic.mac1609_4 	DroppedPacketsInMac 	0
scalar IntersectionExampleScenario.node[20].nic.mac1609_4 	TooLittleTime 	0
scalar IntersectionExampleScenario.node[20].nic.mac1609_4 	TimesIntoBackoff 	0
scalar IntersectionExampleScenario.node[20].nic.mac1609_4 	SlotsBackoff 	0
scalar IntersectionExampleScenario.node[20].nic.mac1609_4 	NumInternalContention 	0
scalar IntersectionExampleScenario.node[20].nic.mac1609_4 	totalBusyTime 	0
scalar IntersectionExampleScenario.node[20].veinsmobility 	startTime 	49.5
scalar IntersectionExampleScenario.node[20].veinsmobility 	totalTime 	41.5
scalar IntersectionExampleScenario.node[20].veinsmobility 	stopTime 	91.25
scalar IntersectionExampleScenario.node[20].veinsmobility 	minSpeed 	5.6500000953674
scalar IntersectionExampleScenario.node[20].veinsmobility 	maxSpeed 	15.64999961853
scalar IntersectionExampleScenario.node[20].veinsmobility 	totalDistance 	546.56496399525
scalar IntersectionExampleScenario.node[20].veinsmobility 	totalCO2Emission 	140.1881530866
scalar IntersectionExampleScenario.node[12].appl 	VehicleRemoved 	0
scalar IntersectionExampleScenario.node[12].appl 	ArrivedAtDest 	1
scalar IntersectionExampleScenario.node[12].appl 	IntersectionEnterTime 	35.5
scalar IntersectionExampleScenario.node[12].appl 	IntersectionExitTime 	76.330043566937
scalar IntersectionExampleScenario.node[12].appl 	NumberOfCollisions 	0
scalar IntersectionExampleScenario.node[12].nic.phy80211p 	busyTime 	0
scalar IntersectionExampleScenario.node[12].nic.mac1609_4 	ReceivedUnicastPackets 	0
scalar IntersectionExampleScenario.node[12].nic.mac1609_4 	ReceivedBroadcasts 	0
scalar IntersectionExampleScenario.node[12].nic.mac1609_4 	SentPackets 	0
scalar IntersectionExampleScenario.node[12].nic.mac1609_4 	SNIRLostPackets 	0
scalar IntersectionExampleScenario.node[12].nic.mac1609_4 	RXTXLostPackets 	0
scalar IntersectionExampleScenario.node[12].nic.mac1609_4 	TotalLostPackets 	0
scalar IntersectionExampleScenario.node[12].nic.mac1609_4 	DroppedPacketsInMac 	0
scalar IntersectionExampleScenario.node[12].nic.mac1609_4 	TooLittleTime 	0
scalar IntersectionExampleScenario.node[12].nic.mac1609_4 	TimesIntoBackoff 	0
scalar IntersectionExampleScenario.node[12].nic.mac1609_4 	SlotsBackoff 	0
scalar IntersectionExampleScenario.node[12].nic.mac1609_4 	NumInternalContention 	0
scalar IntersectionExampleScenario.node[12].nic.mac1609_4 	totalBusyTime 	0
scalar IntersectionExampleScenario.node[12].veinsmobility 	startTime 	35.5
scalar IntersectionExampleScenario.node[12].veinsmobility 	totalTime 	57.25
scalar IntersectionExampleScenario.node[12].veinsmobility 	stopTime 	93
scalar IntersectionExampleScenario.node[12].veinsmobility 	minSpeed 	0
scalar IntersectionExampleScenario.node[12].veinsmobility 	maxSpeed 	15.02499961853
scalar IntersectionExampleScenario.node[12].veinsmobility 	totalDistance 	551.17227935791
scalar IntersectionExampleScenario.node[12].veinsmobility 	totalCO2Emission 	144.661402419
scalar IntersectionExampleScenario.node[17].appl 	VehicleRemoved 	0
scalar IntersectionExampleScenario.node[17].appl 	ArrivedAtDest 	1
scalar IntersectionExampleScenario.node[17].appl 	IntersectionEnterTime 	40.75
scalar IntersectionExampleScenario.node[17].appl 	IntersectionExitTime 	78.266083014925
scalar IntersectionExampleScenario.node[17].appl 	NumberOfCollisions 	0
scalar IntersectionExampleScenario.node[17].nic.phy80211p 	busyTime 	0
scalar IntersectionExampleScenario.node[17].nic.mac1609_4 	ReceivedUnicastPackets 	0
scalar IntersectionExampleScenario.node[17].nic.mac1609_4 	ReceivedBroadcasts 	0
scalar IntersectionExampleScenario.node[17].nic.mac1609_4 	SentPackets 	0
scalar IntersectionExampleScenario.node[17].nic.mac1609_4 	SNIRLostPackets 	0
scalar IntersectionExampleScenario.node[17].nic.mac1609_4 	RXTXLostPackets 	0
scalar IntersectionExampleScenario.node[17].nic.mac1609_4 	TotalLostPackets 	0
scalar IntersectionExampleScenario.node[17].nic.mac1609_4 	DroppedPacketsInMac 	0
scalar IntersectionExampleScenario.node[17].nic.mac1609_4 	TooLittleTime 	0
scalar IntersectionExampleScenario.node[17].nic.mac1609_4 	TimesIntoBackoff 	0
scalar IntersectionExampleScenario.node[17].nic.mac1609_4 	SlotsBackoff 	0
scalar IntersectionExampleScenario.node[17].nic.mac1609_4 	NumInternalContention 	0
scalar IntersectionExampleScenario.node[17].nic.mac1609_4 	totalBusyTime 	0
scalar IntersectionExampleScenario.node[17].veinsmobility 	startTime 	40.75
scalar IntersectionExampleScenario.node[17].veinsmobility 	totalTime 	53.25
scalar IntersectionExampleScenario.node[17].veinsmobility 	stopTime 	94.25
scalar IntersectionExampleScenario.node[17].veinsmobility 	minSpeed 	0
scalar IntersectionExampleScenario.node[17].veinsmobility 	maxSpeed 	16.249877929688
scalar IntersectionExampleScenario.node[17].veinsmobility 	totalDistance 	551.63596343994
scalar IntersectionExampleScenario.node[17].veinsmobility 	totalCO2Emission 	152.13986990739
scalar IntersectionExampleScenario.node[19].appl 	VehicleRemoved 	0
scalar IntersectionExampleScenario.node[19].appl 	ArrivedAtDest 	1
scalar IntersectionExampleScenario.node[19].appl 	IntersectionEnterTime 	43
scalar IntersectionExampleScenario.node[19].appl 	IntersectionExitTime 	80.846126349672
scalar IntersectionExampleScenario.node[19].appl 	NumberOfCollisions 	0
scalar IntersectionExampleScenario.node[19].nic.phy80211p 	busyTime 	0
scalar IntersectionExampleScenario.node[19].nic.mac1609_4 	ReceivedUnicastPackets 	0
scalar IntersectionExampleScenario.node[19].nic.mac1609_4 	ReceivedBroadcasts 	0
scalar IntersectionExampleScenario.node[19].nic.mac1609_4 	SentPackets 	0
scalar IntersectionExampleScenario.node[19].nic.mac1609_4 	SNIRLostPackets 	0
scalar IntersectionExampleScenario.node[19].nic.mac1609_4 	RXTXLostPackets 	0
scalar IntersectionExampleScenario.node[19].nic.mac1609_4 	TotalLostPackets 	0
scalar IntersectionExampleScenario.node[19].nic.mac1609_4 	DroppedPacketsInMac 	0
scalar IntersectionExampleScenario.node[19].nic.mac1609_4 	TooLittleTime 	0
scalar IntersectionExampleScenario.node[19].nic.mac1609_4 	TimesIntoBackoff 	0
scalar IntersectionExampleScenario.node[19].nic.mac1609_4 	SlotsBackoff 	0
scalar IntersectionExampleScenario.node[19].nic.mac1609_4 	NumInternalContention 	0
scalar IntersectionExampleScenario.node[19].nic.mac1609_4 	totalBusyTime 	0
scalar IntersectionExampleScenario.node[19].veinsmobility 	startTime 	43
scalar IntersectionExampleScenario.node[19].veinsmobility 	totalTime 	54
scalar IntersectionExampleScenario.node[19].veinsmobility 	stopTime 	97.25
scalar IntersectionExampleScenario.node[19].veinsmobility 	minSpeed 	0
scalar IntersectionExampleScenario.node[19].veinsmobility 	maxSpeed 	15.64999961853
scalar IntersectionExampleScenario.node[19].veinsmobility 	totalDistance 	566.78268042207
scalar IntersectionExampleScenario.node[19].veinsmobility 	totalCO2Emission 	145.04699431752
scalar IntersectionExampleScenario.node[21].appl 	VehicleRemoved 	0
scalar IntersectionExampleScenario.node[21].appl 	ArrivedAtDest 	1
scalar IntersectionExampleScenario.node[21].appl 	IntersectionEnterTime 	50.25
scalar IntersectionExampleScenario.node[21].appl 	IntersectionExitTime 	82.603696232312
scalar IntersectionExampleScenario.node[21].appl 	NumberOfCollisions 	0
scalar IntersectionExampleScenario.node[21].nic.phy80211p 	busyTime 	0
scalar IntersectionExampleScenario.node[21].nic.mac1609_4 	ReceivedUnicastPackets 	0
scalar IntersectionExampleScenario.node[21].nic.mac1609_4 	ReceivedBroadcasts 	0
scalar IntersectionExampleScenario.node[21].nic.mac1609_4 	SentPackets 	0
scalar IntersectionExampleScenario.node[21].nic.mac1609_4 	SNIRLostPackets 	0
scalar IntersectionExampleScenario.node[21].nic.mac1609_4 	RXTXLostPackets 	0
scalar IntersectionExampleScenario.node[21].nic.mac1609_4 	TotalLostPackets 	0
scalar IntersectionExampleScenario.node[21].nic.mac1609_4 	DroppedPacketsInMac 	0
scalar IntersectionExampleScenario.node[21].nic.mac1609_4 	TooLittleTime 	0
scalar IntersectionExampleScenario.node[21].nic.mac1609_4 	TimesIntoBackoff 	0
scalar IntersectionExampleScenario.node[21].nic.mac1609_4 	SlotsBackoff 	0
scalar IntersectionExampleScenario.node[21].nic.mac1609_4 	NumInternalContention 	0
scalar IntersectionExampleScenario.node[21].nic.mac1609_4 	totalBusyTime 	0
scalar IntersectionExampleScenario.node[21].veinsmobility 	startTime 	50.25
scalar IntersectionExampleScenario.node[21].veinsmobility 	totalTime 	48.75
scalar IntersectionExampleScenario.node[21].veinsmobility 	stopTime 	99.25
scalar IntersectionExampleScenario.node[21].veinsmobility 	minSpeed 	3.4519312381744
scalar IntersectionExampleScenario.node[21].veinsmobility 	maxSpeed 	15.875
scalar IntersectionExampleScenario.node[21].veinsmobility 	totalDistance 	543.07261943851
scalar IntersectionExampleScenario.node[21].veinsmobility 	totalCO2Emission 	139.82071046558
scalar IntersectionExampleScenario.node[15].appl 	VehicleRemoved 	0
scalar IntersectionExampleScenario.node[15].appl 	ArrivedAtDest 	1
scalar IntersectionExampleScenario.node[15].appl 	IntersectionEnterTime 	40
scalar IntersectionExampleScenario.node[15].appl 	IntersectionExitTime 	87.259734733525
scalar IntersectionExampleScenario.node[15].appl 	NumberOfCollisions 	0
scalar IntersectionExampleScenario.node[15].nic.phy80211p 	busyTime 	0
scalar IntersectionExampleScenario.node[15].nic.mac1609_4 	ReceivedUnicastPackets 	0
scalar IntersectionExampleScenario.node[15].nic.mac1609_4 	ReceivedBroadcasts 	0
scalar IntersectionExampleScenario.node[15].nic.mac1609_4 	SentPackets 	0
scalar IntersectionExampleScenario.node[15].nic.mac1609_4 	SNIRLostPackets 	0
scalar IntersectionExampleScenario.node[15].nic.mac1609_4 	RXTXLostPackets 	0
scalar IntersectionExampleScenario.node[15].nic.mac1609_4 	TotalLostPackets 	0
scalar IntersectionExampleScenario.node[15].nic.mac1609_4 	DroppedPacketsInMac 	0
scalar IntersectionExampleScenario.node[15].nic.mac1609_4 	TooLittleTime 	0
scalar IntersectionExampleScenario.node[15].nic.mac1609_4 	TimesIntoBackoff 	0
scalar IntersectionExampleScenario.node[15].nic.mac1609_4 	SlotsBackoff 	0
scalar IntersectionExampleScenario.node[15].nic.mac1609_4 	NumInternalContention 	0
scalar IntersectionExampleScenario.node[15].nic.mac1609_4 	totalBusyTime 	0
scalar IntersectionExampleScenario.node[15].veinsmobility 	startTime 	40
scalar IntersectionExampleScenario.node[15].veinsmobility 	totalTime 	62.75
scalar IntersectionExampleScenario.node[15].veinsmobility 	stopTime 	103
scalar IntersectionExampleScenario.node[15].veinsmobility 	minSpeed 	0
scalar IntersectionExampleScenario.node[15].veinsmobility 	maxSpeed 	16.044178009033
scalar IntersectionExampleScenario.node[15].veinsmobility 	totalDistance 	578.40823364258
scalar IntersectionExampleScenario.node[15].veinsmobility 	totalCO2Emission 	167.65064913652
scalar IntersectionExampleScenario.node[23].appl 	VehicleRemoved 	0
scalar IntersectionExampleScenario.node[23].appl 	ArrivedAtDest 	1
scalar IntersectionExampleScenario.node[23].appl 	IntersectionEnterTime 	56.25
scalar IntersectionExampleScenario.node[23].appl 	IntersectionExitTime 	85.320343057101
scalar IntersectionExampleScenario.node[23].appl 	NumberOfCollisions 	0
scalar IntersectionExampleScenario.node[23].nic.phy80211p 	busyTime 	0
scalar IntersectionExampleScenario.node[23].nic.mac1609_4 	ReceivedUnicastPackets 	0
scalar IntersectionExampleScenario.node[23].nic.mac1609_4 	ReceivedBroadcasts 	0
scalar IntersectionExampleScenario.node[23].nic.mac1609_4 	SentPackets 	0
scalar IntersectionExampleScenario.node[23].nic.mac1609_4 	SNIRLostPackets 	0
scalar IntersectionExampleScenario.node[23].nic.mac1609_4 	RXTXLostPackets 	0
scalar IntersectionExampleScenario.node[23].nic.mac1609_4 	TotalLostPackets 	0
scalar IntersectionExampleScenario.node[23].nic.mac1609_4 	DroppedPacketsInMac 	0
scalar IntersectionExampleScenario.node[23].nic.mac1609_4 	TooLittleTime 	0
scalar IntersectionExampleScenario.node[23].nic.mac1609_4 	TimesIntoBackoff 	0
scalar IntersectionExampleScenario.node[23].nic.mac1609_4 	SlotsBackoff 	0
scalar IntersectionExampleScenario.node[23].nic.mac1609_4 	NumInternalContention 	0
scalar IntersectionExampleScenario.node[23].nic.mac1609_4 	totalBusyTime 	0
scalar IntersectionExampleScenario.node[23].veinsmobility 	startTime 	56.25
scalar IntersectionExampleScenario.node[23].veinsmobility 	totalTime 	46.75
scalar IntersectionExampleScenario.node[23].veinsmobility 	stopTime 	103.25
scalar IntersectionExampleScenario.node[23].veinsmobility 	minSpeed 	5.1268796920776
scalar IntersectionExampleScenario.node[23].veinsmobility 	maxSpeed 	14.625
scalar IntersectionExampleScenario.node[23].veinsmobility 	totalDistance 	544.87279954517
scalar IntersectionExampleScenario.node[23].veinsmobility 	totalCO2Emission 	122.91582368943
scalar IntersectionExampleScenario.node[26].appl 	VehicleRemoved 	0
scalar IntersectionExampleScenario.node[26].appl 	ArrivedAtDest 	1
scalar IntersectionExampleScenario.node[26].appl 	IntersectionEnterTime 	60.5
scalar IntersectionExampleScenario.node[26].appl 	IntersectionExitTime 	89.570376766525
scalar IntersectionExampleScenario.node[26].appl 	NumberOfCollisions 	0
scalar IntersectionExampleScenario.node[26].nic.phy80211p 	busyTime 	0
scalar IntersectionExampleScenario.node[26].nic.mac1609_4 	ReceivedUnicastPackets 	0
scalar IntersectionExampleScenario.node[26].nic.mac1609_4 	ReceivedBroadcasts 	0
scalar IntersectionExampleScenario.node[26].nic.mac1609_4 	SentPackets 	0
scalar IntersectionExampleScenario.node[26].nic.mac1609_4 	SNIRLostPackets 	0
scalar IntersectionExampleScenario.node[26].nic.mac1609_4 	RXTXLostPackets 	0
scalar IntersectionExampleScenario.node[26].nic.mac1609_4 	TotalLostPackets 	0
scalar IntersectionExampleScenario.node[26].nic.mac1609_4 	DroppedPacketsInMac 	0
scalar IntersectionExampleScenario.node[26].nic.mac1609_4 	TooLittleTime 	0
scalar IntersectionExampleScenario.node[26].nic.mac1609_4 	TimesIntoBackoff 	0
scalar IntersectionExampleScenario.node[26].nic.mac1609_4 	SlotsBackoff 	0
scalar IntersectionExampleScenario.node[26].nic.mac1609_4 	NumInternalContention 	0
scalar IntersectionExampleScenario.node[26].nic.mac1609_4 	totalBusyTime 	0
scalar IntersectionExampleScenario.node[26].veinsmobility 	startTime 	60.5
scalar IntersectionExampleScenario.node[26].veinsmobility 	totalTime 	45.25
scalar IntersectionExampleScenario.node[26].veinsmobility 	stopTime 	106
scalar IntersectionExampleScenario.node[26].veinsmobility 	minSpeed 	3.910192489624
scalar IntersectionExampleScenario.node[26].veinsmobility 	maxSpeed 	15.5
scalar IntersectionExampleScenario.node[26].veinsmobility 	totalDistance 	553.35372924805
scalar IntersectionExampleScenario.node[26].veinsmobility 	totalCO2Emission 	131.43288258544
scalar IntersectionExampleScenario.node[24].appl 	VehicleRemoved 	0
scalar IntersectionExampleScenario.node[24].appl 	ArrivedAtDest 	1
scalar IntersectionExampleScenario.node[24].appl 	IntersectionEnterTime 	56.75
scalar IntersectionExampleScenario.node[24].appl 	IntersectionExitTime 	97.257358805306
scalar IntersectionExampleScenario.node[24].appl 	NumberOfCollisions 	0
scalar IntersectionExampleScenario.node[24].nic.phy80211p 	busyTime 	0
scalar IntersectionExampleScenario.node[24].nic.mac1609_4 	ReceivedUnicastPackets 	0
scalar IntersectionExampleScenario.node[24].nic.mac1609_4 	ReceivedBroadcasts 	0
scalar IntersectionExampleScenario.node[24].nic.mac1609_4 	SentPackets 	0
scalar IntersectionExampleScenario.node[24].nic.mac1609_4 	SNIRLostPackets 	0
scalar IntersectionExampleScenario.node[24].nic.mac1609_4 	RXTXLostPackets 	0
scalar IntersectionExampleScenario.node[24].nic.mac1609_4 	TotalLostPackets 	0
scalar IntersectionExampleScenario.node[24].nic.mac1609_4 	DroppedPacketsInMac 	0
scalar IntersectionExampleScenario.node[24].nic.mac1609_4 	TooLittleTime 	0
scalar IntersectionExampleScenario.node[24].nic.mac1609_4 	TimesIntoBackoff 	0
scalar IntersectionExampleScenario.node[24].nic.mac1609_4 	SlotsBackoff 	0
scalar IntersectionExampleScenario.node[24].nic.mac1609_4 	NumInternalContention 	0
scalar IntersectionExampleScenario.node[24].nic.mac1609_4 	totalBusyTime 	0
scalar IntersectionExampleScenario.node[24].veinsmobility 	startTime 	56.75
scalar IntersectionExampleScenario.node[24].veinsmobility 	totalTime 	56
scalar IntersectionExampleScenario.node[24].veinsmobility 	stopTime 	113
scalar IntersectionExampleScenario.node[24].veinsmobility 	minSpeed 	0
scalar IntersectionExampleScenario.node[24].veinsmobility 	maxSpeed 	16.27499961853
scalar IntersectionExampleScenario.node[24].veinsmobility 	totalDistance 	551.43729400635
scalar IntersectionExampleScenario.node[24].veinsmobility 	totalCO2Emission 	152.38689344961
scalar IntersectionExampleScenario.node[30].appl 	VehicleRemoved 	0
scalar IntersectionExampleScenario.node[30].appl 	ArrivedAtDest 	1
scalar IntersectionExampleScenario.node[30].appl 	IntersectionEnterTime 	67.75
scalar IntersectionExampleScenario.node[30].appl 	IntersectionExitTime 	97.316674785368
scalar IntersectionExampleScenario.node[30].appl 	NumberOfCollisions 	0
scalar IntersectionExampleScenario.node[30].nic.phy80211p 	busyTime 	0
scalar IntersectionExampleScenario.node[30].nic.mac1609_4 	ReceivedUnicastPackets 	0
scalar IntersectionExampleScenario.node[30].nic.mac1609_4 	ReceivedBroadcasts 	0
scalar IntersectionExampleScenario.node[30].nic.mac1609_4 	SentPackets 	0
scalar IntersectionExampleScenario.node[30].nic.mac1609_4 	SNIRLostPackets 	0
scalar IntersectionExampleScenario.node[30].nic.mac1609_4 	RXTXLostPackets 	0
scalar IntersectionExampleScenario.node[30].nic.mac1609_4 	TotalLostPackets 	0
scalar IntersectionExampleScenario.node[30].nic.mac1609_4 	DroppedPacketsInMac 	0
scalar IntersectionExampleScenario.node[30].nic.mac1609_4 	TooLittleTime 	0
scalar IntersectionExampleScenario.node[30].nic.mac1609_4 	TimesIntoBackoff 	0
scalar IntersectionExampleScenario.node[30].nic.mac1609_4 	SlotsBackoff 	0
scalar IntersectionExampleScenario.node[30].nic.mac1609_4 	NumInternalContention 	0
scalar IntersectionExampleScenario.node[30].nic.mac1609_4 	totalBusyTime 	0
scalar IntersectionExampleScenario.node[30].veinsmobility 	startTime 	67.75
scalar IntersectionExampleScenario.node[30].veinsmobility 	totalTime 	45.75
scalar IntersectionExampleScenario.node[30].veinsmobility 	stopTime 	113.75
scalar IntersectionExampleScenario.node[30].veinsmobility 	minSpeed 	0
scalar IntersectionExampleScenario.node[30].veinsmobility 	maxSpeed 	15.375
scalar IntersectionExampleScenario.node[30].veinsmobility 	totalDistance 	552.21952819824
scalar IntersectionExampleScenario.node[30].veinsmobility 	totalCO2Emission 	136.13912850094
scalar IntersectionExampleScenario.node[28].appl 	VehicleRemoved 	0
scalar IntersectionExampleScenario.node[28].appl 	ArrivedAtDest 	1
scalar IntersectionExampleScenario.node[28].appl 	IntersectionEnterTime 	63.75
scalar IntersectionExampleScenario.node[28].appl 	IntersectionExitTime 	98.301295878569
scalar IntersectionExampleScenario.node[28].appl 	NumberOfCollisions 	0
scalar IntersectionExampleScenario.node[28].nic.phy80211p 	busyTime 	0
scalar IntersectionExampleScenario.node[28].nic.mac1609_4 	ReceivedUnicastPackets 	0
scalar IntersectionExampleScenario.node[28].nic.mac1609_4 	ReceivedBroadcasts 	0
scalar IntersectionExampleScenario.node[28].nic.mac1609_4 	SentPackets 	0
scalar IntersectionExampleScenario.node[28].nic.mac1609_4 	SNIRLostPackets 	0
scalar IntersectionExampleScenario.node[28].nic.mac1609_4 	RXTXLostPackets 	0
scalar IntersectionExampleScenario.node[28].nic.mac1609_4 	TotalLostPackets 	0
scalar IntersectionExampleScenario.node[28].nic.mac1609_4 	DroppedPacketsInMac 	0
scalar IntersectionExampleScenario.node[28].nic.mac1609_4 	TooLittleTime 	0
scalar IntersectionExampleScenario.node[28].nic.mac1609_4 	TimesIntoBackoff 	0
scalar IntersectionExampleScenario.node[28].nic.mac1609_4 	SlotsBackoff 	0
scalar IntersectionExampleScenario.node[28].nic.mac1609_4 	NumInternalContention 	0
scalar IntersectionExampleScenario.node[28].nic.mac1609_4 	totalBusyTime 	0
scalar IntersectionExampleScenario.node[28].veinsmobility 	startTime 	63.75
scalar IntersectionExampleScenario.node[28].veinsmobility 	totalTime 	50.75
scalar IntersectionExampleScenario.node[28].veinsmobility 	stopTime 	114.75
scalar IntersectionExampleScenario.node[28].veinsmobility 	minSpeed 	0
scalar IntersectionExampleScenario.node[28].veinsmobility 	maxSpeed 	16.27499961853
scalar IntersectionExampleScenario.node[28].veinsmobility 	totalDistance 	543.57192095952
scalar IntersectionExampleScenario.node[28].veinsmobility 	totalCO2Emission 	141.73460721969
scalar IntersectionExampleScenario.node[25].appl 	VehicleRemoved 	0
scalar IntersectionExampleScenario.node[25].appl 	ArrivedAtDest 	1
scalar IntersectionExampleScenario.node[25].appl 	IntersectionEnterTime 	59
scalar IntersectionExampleScenario.node[25].appl 	IntersectionExitTime 	107.29520505411
scalar IntersectionExampleScenario.node[25].appl 	NumberOfCollisions 	0
scalar IntersectionExampleScenario.node[25].nic.phy80211p 	busyTime 	0
scalar IntersectionExampleScenario.node[25].nic.mac1609_4 	ReceivedUnicastPackets 	0
scalar IntersectionExampleScenario.node[25].nic.mac1609_4 	ReceivedBroadcasts 	0
scalar IntersectionExampleScenario.node[25].nic.mac1609_4 	SentPackets 	0
scalar IntersectionExampleScenario.node[25].nic.mac1609_4 	SNIRLostPackets 	0
scalar IntersectionExampleScenario.node[25].nic.mac1609_4 	RXTXLostPackets 	0
scalar IntersectionExampleScenario.node[25].nic.mac1609_4 	TotalLostPackets 	0
scalar IntersectionExampleScenario.node[25].nic.mac1609_4 	DroppedPacketsInMac 	0
scalar IntersectionExampleScenario.node[25].nic.mac1609_4 	TooLittleTime 	0
scalar IntersectionExampleScenario.node[25].nic.mac1609_4 	TimesIntoBackoff 	0
scalar IntersectionExampleScenario.node[25].nic.mac1609_4 	SlotsBackoff 	0
scalar IntersectionExampleScenario.node[25].nic.mac1609_4 	NumInternalContention 	0
scalar IntersectionExampleScenario.node[25].nic.mac1609_4 	totalBusyTime 	0
scalar IntersectionExampleScenario.node[25].veinsmobility 	startTime 	59
scalar IntersectionExampleScenario.node[25].veinsmobility 	totalTime 	63.5
scalar IntersectionExampleScenario.node[25].veinsmobility 	stopTime 	122.75
scalar IntersectionExampleScenario.node[25].veinsmobility 	minSpeed 	0
scalar IntersectionExampleScenario.node[25].veinsmobility 	maxSpeed 	16.625
scalar IntersectionExampleScenario.node[25].veinsmobility 	totalDistance 	567.09085083008
scalar IntersectionExampleScenario.node[25].veinsmobility 	totalCO2Emission 	162.63304209852
scalar IntersectionExampleScenario.node[27].appl 	VehicleRemoved 	0
scalar IntersectionExampleScenario.node[27].appl 	ArrivedAtDest 	1
scalar IntersectionExampleScenario.node[27].appl 	IntersectionEnterTime 	63.75
scalar IntersectionExampleScenario.node[27].appl 	IntersectionExitTime 	108.09502558011
scalar IntersectionExampleScenario.node[27].appl 	NumberOfCollisions 	0
scalar IntersectionExampleScenario.node[27].nic.phy80211p 	busyTime 	0
scalar IntersectionExampleScenario.node[27].nic.mac1609_4 	ReceivedUnicastPackets 	0
scalar IntersectionExampleScenario.node[27].nic.mac1609_4 	ReceivedBroadcasts 	0
scalar IntersectionExampleScenario.node[27].nic.mac1609_4 	SentPackets 	0
scalar IntersectionExampleScenario.node[27].nic.mac1609_4 	SNIRLostPackets 	0
scalar IntersectionExampleScenario.node[27].nic.mac1609_4 	RXTXLostPackets 	0
scalar IntersectionExampleScenario.node[27].nic.mac1609_4 	TotalLostPackets 	0
scalar IntersectionExampleScenario.node[27].nic.mac1609_4 	DroppedPacketsInMac 	0
scalar IntersectionExampleScenario.node[27].nic.mac1609_4 	TooLittleTime 	0
scalar IntersectionExampleScenario.node[27].nic.mac1609_4 	TimesIntoBackoff 	0
scalar IntersectionExampleScenario.node[27].nic.mac1609_4 	SlotsBackoff 	0
scalar IntersectionExampleScenario.node[27].nic.mac1609_4 	NumInternalContention 	0
scalar IntersectionExampleScenario.node[27].nic.mac1609_4 	totalBusyTime 	0
scalar IntersectionExampleScenario.node[27].veinsmobility 	startTime 	63.75
scalar IntersectionExampleScenario.node[27].veinsmobility 	totalTime 	61.75
scalar IntersectionExampleScenario.node[27].veinsmobility 	stopTime 	125.75
scalar IntersectionExampleScenario.node[27].veinsmobility 	minSpeed 	0
scalar IntersectionExampleScenario.node[27].veinsmobility 	maxSpeed 	15.02499961853
scalar IntersectionExampleScenario.node[27].veinsmobility 	totalDistance 	553.75842127813
scalar IntersectionExampleScenario.node[27].veinsmobility 	totalCO2Emission 	147.39458654298
scalar IntersectionExampleScenario.node[29].appl 	VehicleRemoved 	0
scalar IntersectionExampleScenario.node[29].appl 	ArrivedAtDest 	1
scalar IntersectionExampleScenario.node[29].appl 	IntersectionEnterTime 	67.75
scalar IntersectionExampleScenario.node[29].appl 	IntersectionExitTime 	110.7778699153
scalar IntersectionExampleScenario.node[29].appl 	NumberOfCollisions 	0
scalar IntersectionExampleScenario.node[29].nic.phy80211p 	busyTime 	0
scalar IntersectionExampleScenario.node[29].nic.mac1609_4 	ReceivedUnicastPackets 	0
scalar IntersectionExampleScenario.node[29].nic.mac1609_4 	ReceivedBroadcasts 	0
scalar IntersectionExampleScenario.node[29].nic.mac1609_4 	SentPackets 	0
scalar IntersectionExampleScenario.node[29].nic.mac1609_4 	SNIRLostPackets 	0
scalar IntersectionExampleScenario.node[29].nic.mac1609_4 	RXTXLostPackets 	0
scalar IntersectionExampleScenario.node[29].nic.mac1609_4 	TotalLostPackets 	0
scalar IntersectionExampleScenario.node[29].nic.mac1609_4 	DroppedPacketsInMac 	0
scalar IntersectionExampleScenario.node[29].nic.mac1609_4 	TooLittleTime 	0
scalar IntersectionExampleScenario.node[29].nic.mac1609_4 	TimesIntoBackoff 	0
scalar IntersectionExampleScenario.node[29].nic.mac1609_4 	SlotsBackoff 	0
scalar IntersectionExampleScenario.node[29].nic.mac1609_4 	NumInternalContention 	0
scalar IntersectionExampleScenario.node[29].nic.mac1609_4 	totalBusyTime 	0
scalar IntersectionExampleScenario.node[29].veinsmobility 	startTime 	67.75
scalar IntersectionExampleScenario.node[29].veinsmobility 	totalTime 	60
scalar IntersectionExampleScenario.node[29].veinsmobility 	stopTime 	128
scalar IntersectionExampleScenario.node[29].veinsmobility 	minSpeed 	0
scalar IntersectionExampleScenario.node[29].veinsmobility 	maxSpeed 	15.02499961853
scalar IntersectionExampleScenario.node[29].veinsmobility 	totalDistance 	555.71904920424
scalar IntersectionExampleScenario.node[29].veinsmobility 	totalCO2Emission 	148.67040339446
scalar IntersectionExampleScenario.node[32].appl 	VehicleRemoved 	0
scalar IntersectionExampleScenario.node[32].appl 	ArrivedAtDest 	1
scalar IntersectionExampleScenario.node[32].appl 	IntersectionEnterTime 	74.25
scalar IntersectionExampleScenario.node[32].appl 	IntersectionExitTime 	113.07237316633
scalar IntersectionExampleScenario.node[32].appl 	NumberOfCollisions 	0
scalar IntersectionExampleScenario.node[32].nic.phy80211p 	busyTime 	0
scalar IntersectionExampleScenario.node[32].nic.mac1609_4 	ReceivedUnicastPackets 	0
scalar IntersectionExampleScenario.node[32].nic.mac1609_4 	ReceivedBroadcasts 	0
scalar IntersectionExampleScenario.node[32].nic.mac1609_4 	SentPackets 	0
scalar IntersectionExampleScenario.node[32].nic.mac1609_4 	SNIRLostPackets 	0
scalar IntersectionExampleScenario.node[32].nic.mac1609_4 	RXTXLostPackets 	0
scalar IntersectionExampleScenario.node[32].nic.mac1609_4 	TotalLostPackets 	0
scalar IntersectionExampleScenario.node[32].nic.mac1609_4 	DroppedPacketsInMac 	0
scalar IntersectionExampleScenario.node[32].nic.mac1609_4 	TooLittleTime 	0
scalar IntersectionExampleScenario.node[32].nic.mac1609_4 	TimesIntoBackoff 	0
scalar IntersectionExampleScenario.node[32].nic.mac1609_4 	SlotsBackoff 	0
scalar IntersectionExampleScenario.node[32].nic.mac1609_4 	NumInternalContention 	0
scalar IntersectionExampleScenario.node[32].nic.mac1609_4 	totalBusyTime 	0
scalar IntersectionExampleScenario.node[32].veinsmobility 	startTime 	74.25
scalar IntersectionExampleScenario.node[32].veinsmobility 	totalTime 	56
scalar IntersectionExampleScenario.node[32].veinsmobility 	stopTime 	130.5
scalar IntersectionExampleScenario.node[32].veinsmobility 	minSpeed 	0
scalar IntersectionExampleScenario.node[32].veinsmobility 	maxSpeed 	15.02499961853
scalar IntersectionExampleScenario.node[32].veinsmobility 	totalDistance 	544.40882569669
scalar IntersectionExampleScenario.node[32].veinsmobility 	totalCO2Emission 	140.20736149068
scalar IntersectionExampleScenario.node[34].appl 	VehicleRemoved 	0
scalar IntersectionExampleScenario.node[34].appl 	ArrivedAtDest 	1
scalar IntersectionExampleScenario.node[34].appl 	IntersectionEnterTime 	81.5
scalar IntersectionExampleScenario.node[34].appl 	IntersectionExitTime 	115.29912154973
scalar IntersectionExampleScenario.node[34].appl 	NumberOfCollisions 	0
scalar IntersectionExampleScenario.node[34].nic.phy80211p 	busyTime 	0
scalar IntersectionExampleScenario.node[34].nic.mac1609_4 	ReceivedUnicastPackets 	0
scalar IntersectionExampleScenario.node[34].nic.mac1609_4 	ReceivedBroadcasts 	0
scalar IntersectionExampleScenario.node[34].nic.mac1609_4 	SentPackets 	0
scalar IntersectionExampleScenario.node[34].nic.mac1609_4 	SNIRLostPackets 	0
scalar IntersectionExampleScenario.node[34].nic.mac1609_4 	RXTXLostPackets 	0
scalar IntersectionExampleScenario.node[34].nic.mac1609_4 	TotalLostPackets 	0
scalar IntersectionExampleScenario.node[34].nic.mac1609_4 	DroppedPacketsInMac 	0
scalar IntersectionExampleScenario.node[34].nic.mac1609_4 	TooLittleTime 	0
scalar IntersectionExampleScenario.node[34].nic.mac1609_4 	TimesIntoBackoff 	0
scalar IntersectionExampleScenario.node[34].nic.mac1609_4 	SlotsBackoff 	0
scalar IntersectionExampleScenario.node[34].nic.mac1609_4 	NumInternalContention 	0
scalar IntersectionExampleScenario.node[34].nic.mac1609_4 	totalBusyTime 	0
scalar IntersectionExampleScenario.node[34].veinsmobility 	startTime 	81.5
scalar IntersectionExampleScenario.node[34].veinsmobility 	totalTime 	50.25
scalar IntersectionExampleScenario.node[34].veinsmobility 	stopTime 	132
scalar IntersectionExampleScenario.node[34].veinsmobility 	minSpeed 	1.193473815918
scalar IntersectionExampleScenario.node[34].veinsmobility 	maxSpeed 	15.664785385132
scalar IntersectionExampleScenario.node[34].veinsmobility 	totalDistance 	545.38889235174
scalar IntersectionExampleScenario.node[34].veinsmobility 	totalCO2Emission 	139.33322554838
scalar IntersectionExampleScenario.node[31].appl 	VehicleRemoved 	0
scalar IntersectionExampleScenario.node[31].appl 	ArrivedAtDest 	1
scalar IntersectionExampleScenario.node[31].appl 	IntersectionEnterTime 	73.25
scalar IntersectionExampleScenario.node[31].appl 	IntersectionExitTime 	117.61288146707
scalar IntersectionExampleScenario.node[31].appl 	NumberOfCollisions 	0
scalar IntersectionExampleScenario.node[31].nic.phy80211p 	busyTime 	0
scalar IntersectionExampleScenario.node[31].nic.mac1609_4 	ReceivedUnicastPackets 	0
scalar IntersectionExampleScenario.node[31].nic.mac1609_4 	ReceivedBroadcasts 	0
scalar IntersectionExampleScenario.node[31].nic.mac1609_4 	SentPackets 	0
scalar IntersectionExampleScenario.node[31].nic.mac1609_4 	SNIRLostPackets 	0
scalar IntersectionExampleScenario.node[31].nic.mac1609_4 	RXTXLostPackets 	0
scalar IntersectionExampleScenario.node[31].nic.mac1609_4 	TotalLostPackets 	0
scalar IntersectionExampleScenario.node[31].nic.mac1609_4 	DroppedPacketsInMac 	0
scalar IntersectionExampleScenario.node[31].nic.mac1609_4 	TooLittleTime 	0
scalar IntersectionExampleScenario.node[31].nic.mac1609_4 	TimesIntoBackoff 	0
scalar IntersectionExampleScenario.node[31].nic.mac1609_4 	SlotsBackoff 	0
scalar IntersectionExampleScenario.node[31].nic.mac1609_4 	NumInternalContention 	0
scalar IntersectionExampleScenario.node[31].nic.mac1609_4 	totalBusyTime 	0
scalar IntersectionExampleScenario.node[31].veinsmobility 	startTime 	73.25
scalar IntersectionExampleScenario.node[31].veinsmobility 	totalTime 	61.25
scalar IntersectionExampleScenario.node[31].veinsmobility 	stopTime 	134.75
scalar IntersectionExampleScenario.node[31].veinsmobility 	minSpeed 	0
scalar IntersectionExampleScenario.node[31].veinsmobility 	maxSpeed 	15.25
scalar IntersectionExampleScenario.node[31].veinsmobility 	totalDistance 	545.00279904754
scalar IntersectionExampleScenario.node[31].veinsmobility 	totalCO2Emission 	151.417315107
scalar IntersectionExampleScenario.node[33].appl 	VehicleRemoved 	0
scalar IntersectionExampleScenario.node[33].appl 	ArrivedAtDest 	1
scalar IntersectionExampleScenario.node[33].appl 	IntersectionEnterTime 	75.5
scalar IntersectionExampleScenario.node[33].appl 	IntersectionExitTime 	119.31873284944
scalar IntersectionExampleScenario.node[33].appl 	NumberOfCollisions 	0
scalar IntersectionExampleScenario.node[33].nic.phy80211p 	busyTime 	0
scalar IntersectionExampleScenario.node[33].nic.mac1609_4 	ReceivedUnicastPackets 	0
scalar IntersectionExampleScenario.node[33].nic.mac1609_4 	ReceivedBroadcasts 	0
scalar IntersectionExampleScenario.node[33].nic.mac1609_4 	SentPackets 	0
scalar IntersectionExampleScenario.node[33].nic.mac1609_4 	SNIRLostPackets 	0
scalar IntersectionExampleScenario.node[33].nic.mac1609_4 	RXTXLostPackets 	0
scalar IntersectionExampleScenario.node[33].nic.mac1609_4 	TotalLostPackets 	0
scalar IntersectionExampleScenario.node[33].nic.mac1609_4 	DroppedPacketsInMac 	0
scalar IntersectionExampleScenario.node[33].nic.mac1609_4 	TooLittleTime 	0
scalar IntersectionExampleScenario.node[33].nic.mac1609_4 	TimesIntoBackoff 	0
scalar IntersectionExampleScenario.node[33].nic.mac1609_4 	SlotsBackoff 	0
scalar IntersectionExampleScenario.node[33].nic.mac1609_4 	NumInternalContention 	0
scalar IntersectionExampleScenario.node[33].nic.mac1609_4 	totalBusyTime 	0
scalar IntersectionExampleScenario.node[33].veinsmobility 	startTime 	75.5
scalar IntersectionExampleScenario.node[33].veinsmobility 	totalTime 	59.5
scalar IntersectionExampleScenario.node[33].veinsmobility 	stopTime 	135.25
scalar IntersectionExampleScenario.node[33].veinsmobility 	minSpeed 	0
scalar IntersectionExampleScenario.node[33].veinsmobility 	maxSpeed 	16.001188278198
scalar IntersectionExampleScenario.node[33].veinsmobility 	totalDistance 	567.43907660881
scalar IntersectionExampleScenario.node[33].veinsmobility 	totalCO2Emission 	160.21133767628
scalar IntersectionExampleScenario.node[35].appl 	VehicleRemoved 	0
scalar IntersectionExampleScenario.node[35].appl 	ArrivedAtDest 	1
scalar IntersectionExampleScenario.node[35].appl 	IntersectionEnterTime 	86.5
scalar IntersectionExampleScenario.node[35].appl 	IntersectionExitTime 	121.82078526329
scalar IntersectionExampleScenario.node[35].appl 	NumberOfCollisions 	0
scalar IntersectionExampleScenario.node[35].nic.phy80211p 	busyTime 	0
scalar IntersectionExampleScenario.node[35].nic.mac1609_4 	ReceivedUnicastPackets 	0
scalar IntersectionExampleScenario.node[35].nic.mac1609_4 	ReceivedBroadcasts 	0
scalar IntersectionExampleScenario.node[35].nic.mac1609_4 	SentPackets 	0
scalar IntersectionExampleScenario.node[35].nic.mac1609_4 	SNIRLostPackets 	0
scalar IntersectionExampleScenario.node[35].nic.mac1609_4 	RXTXLostPackets 	0
scalar IntersectionExampleScenario.node[35].nic.mac1609_4 	TotalLostPackets 	0
scalar IntersectionExampleScenario.node[35].nic.mac1609_4 	DroppedPacketsInMac 	0
scalar IntersectionExampleScenario.node[35].nic.mac1609_4 	TooLittleTime 	0
scalar IntersectionExampleScenario.node[35].nic.mac1609_4 	TimesIntoBackoff 	0
scalar IntersectionExampleScenario.node[35].nic.mac1609_4 	SlotsBackoff 	0
scalar IntersectionExampleScenario.node[35].nic.mac1609_4 	NumInternalContention 	0
scalar IntersectionExampleScenario.node[35].nic.mac1609_4 	totalBusyTime 	0
scalar IntersectionExampleScenario.node[35].veinsmobility 	startTime 	86.5
scalar IntersectionExampleScenario.node[35].veinsmobility 	totalTime 	52.25
scalar IntersectionExampleScenario.node[35].veinsmobility 	stopTime 	139
scalar IntersectionExampleScenario.node[35].veinsmobility 	minSpeed 	0
scalar IntersectionExampleScenario.node[35].veinsmobility 	maxSpeed 	15.25
scalar IntersectionExampleScenario.node[35].veinsmobility 	totalDistance 	544.1909906892
scalar IntersectionExampleScenario.node[35].veinsmobility 	totalCO2Emission 	138.96361391959
scalar IntersectionExampleScenario.node[40].appl 	VehicleRemoved 	0
scalar IntersectionExampleScenario.node[40].appl 	ArrivedAtDest 	1
scalar IntersectionExampleScenario.node[40].appl 	IntersectionEnterTime 	94.75
scalar IntersectionExampleScenario.node[40].appl 	IntersectionExitTime 	124.59089635618
scalar IntersectionExampleScenario.node[40].appl 	NumberOfCollisions 	0
scalar IntersectionExampleScenario.node[40].nic.phy80211p 	busyTime 	0
scalar IntersectionExampleScenario.node[40].nic.mac1609_4 	ReceivedUnicastPackets 	0
scalar IntersectionExampleScenario.node[40].nic.mac1609_4 	ReceivedBroadcasts 	0
scalar IntersectionExampleScenario.node[40].nic.mac1609_4 	SentPackets 	0
scalar IntersectionExampleScenario.node[40].nic.mac1609_4 	SNIRLostPackets 	0
scalar IntersectionExampleScenario.node[40].nic.mac1609_4 	RXTXLostPackets 	0
scalar IntersectionExampleScenario.node[40].nic.mac1609_4 	TotalLostPackets 	0
scalar IntersectionExampleScenario.node[40].nic.mac1609_4 	DroppedPacketsInMac 	0
scalar IntersectionExampleScenario.node[40].nic.mac1609_4 	TooLittleTime 	0
scalar IntersectionExampleScenario.node[40].nic.mac1609_4 	TimesIntoBackoff 	0
scalar IntersectionExampleScenario.node[40].nic.mac1609_4 	SlotsBackoff 	0
scalar IntersectionExampleScenario.node[40].nic.mac1609_4 	NumInternalContention 	0
scalar IntersectionExampleScenario.node[40].nic.mac1609_4 	totalBusyTime 	0
scalar IntersectionExampleScenario.node[40].veinsmobility 	startTime 	94.75
scalar IntersectionExampleScenario.node[40].veinsmobility 	totalTime 	46.5
scalar IntersectionExampleScenario.node[40].veinsmobility 	stopTime 	141.5
scalar IntersectionExampleScenario.node[40].veinsmobility 	minSpeed 	5.1600246429443
scalar IntersectionExampleScenario.node[40].veinsmobility 	maxSpeed 	15.64999961853
scalar IntersectionExampleScenario.node[40].veinsmobility 	totalDistance 	545.46412898497
scalar IntersectionExampleScenario.node[40].veinsmobility 	totalCO2Emission 	136.58277094092
scalar IntersectionExampleScenario.node[45].appl 	VehicleRemoved 	0
scalar IntersectionExampleScenario.node[45].appl 	ArrivedAtDest 	1
scalar IntersectionExampleScenario.node[45].appl 	IntersectionEnterTime 	103.25
scalar IntersectionExampleScenario.node[45].appl 	IntersectionExitTime 	127.58770548459
scalar IntersectionExampleScenario.node[45].appl 	NumberOfCollisions 	0
scalar IntersectionExampleScenario.node[45].nic.phy80211p 	busyTime 	0
scalar IntersectionExampleScenario.node[45].nic.mac1609_4 	ReceivedUnicastPackets 	0
scalar IntersectionExampleScenario.node[45].nic.mac1609_4 	ReceivedBroadcasts 	0
scalar IntersectionExampleScenario.node[45].nic.mac1609_4 	SentPackets 	0
scalar IntersectionExampleScenario.node[45].nic.mac1609_4 	SNIRLostPackets 	0
scalar IntersectionExampleScenario.node[45].nic.mac1609_4 	RXTXLostPackets 	0
scalar IntersectionExampleScenario.node[45].nic.mac1609_4 	TotalLostPackets 	0
scalar IntersectionExampleScenario.node[45].nic.mac1609_4 	DroppedPacketsInMac 	0
scalar IntersectionExampleScenario.node[45].nic.mac1609_4 	TooLittleTime 	0
scalar IntersectionExampleScenario.node[45].nic.mac1609_4 	TimesIntoBackoff 	0
scalar IntersectionExampleScenario.node[45].nic.mac1609_4 	SlotsBackoff 	0
scalar IntersectionExampleScenario.node[45].nic.mac1609_4 	NumInternalContention 	0
scalar IntersectionExampleScenario.node[45].nic.mac1609_4 	totalBusyTime 	0
scalar IntersectionExampleScenario.node[45].veinsmobility 	startTime 	103.25
scalar IntersectionExampleScenario.node[45].veinsmobility 	totalTime 	40
scalar IntersectionExampleScenario.node[45].veinsmobility 	stopTime 	143.5
scalar IntersectionExampleScenario.node[45].veinsmobility 	minSpeed 	5.1236534118652
scalar IntersectionExampleScenario.node[45].veinsmobility 	maxSpeed 	16.044267654419
scalar IntersectionExampleScenario.node[45].veinsmobility 	totalDistance 	554.13132476807
scalar IntersectionExampleScenario.node[45].veinsmobility 	totalCO2Emission 	135.00591079646
scalar IntersectionExampleScenario.node[36].appl 	VehicleRemoved 	0
scalar IntersectionExampleScenario.node[36].appl 	ArrivedAtDest 	1
scalar IntersectionExampleScenario.node[36].appl 	IntersectionEnterTime 	87.25
scalar IntersectionExampleScenario.node[36].appl 	IntersectionExitTime 	128.34213849792
scalar IntersectionExampleScenario.node[36].appl 	NumberOfCollisions 	0
scalar IntersectionExampleScenario.node[36].nic.phy80211p 	busyTime 	0
scalar IntersectionExampleScenario.node[36].nic.mac1609_4 	ReceivedUnicastPackets 	0
scalar IntersectionExampleScenario.node[36].nic.mac1609_4 	ReceivedBroadcasts 	0
scalar IntersectionExampleScenario.node[36].nic.mac1609_4 	SentPackets 	0
scalar IntersectionExampleScenario.node[36].nic.mac1609_4 	SNIRLostPackets 	0
scalar IntersectionExampleScenario.node[36].nic.mac1609_4 	RXTXLostPackets 	0
scalar IntersectionExampleScenario.node[36].nic.mac1609_4 	TotalLostPackets 	0
scalar IntersectionExampleScenario.node[36].nic.mac1609_4 	DroppedPacketsInMac 	0
scalar IntersectionExampleScenario.node[36].nic.mac1609_4 	TooLittleTime 	0
scalar IntersectionExampleScenario.node[36].nic.mac1609_4 	TimesIntoBackoff 	0
scalar IntersectionExampleScenario.node[36].nic.mac1609_4 	SlotsBackoff 	0
scalar IntersectionExampleScenario.node[36].nic.mac1609_4 	NumInternalContention 	0
scalar IntersectionExampleScenario.node[36].nic.mac1609_4 	totalBusyTime 	0
scalar IntersectionExampleScenario.node[36].veinsmobility 	startTime 	87.25
scalar IntersectionExampleScenario.node[36].veinsmobility 	totalTime 	57.25
scalar IntersectionExampleScenario.node[36].veinsmobility 	stopTime 	144.75
scalar IntersectionExampleScenario.node[36].veinsmobility 	minSpeed 	0
scalar IntersectionExampleScenario.node[36].veinsmobility 	maxSpeed 	15.375
scalar IntersectionExampleScenario.node[36].veinsmobility 	totalDistance 	549.86319841495
scalar IntersectionExampleScenario.node[36].veinsmobility 	totalCO2Emission 	147.46286327946
scalar IntersectionExampleScenario.node[37].appl 	VehicleRemoved 	0
scalar IntersectionExampleScenario.node[37].appl 	ArrivedAtDest 	1
scalar IntersectionExampleScenario.node[37].appl 	IntersectionEnterTime 	90.75
scalar IntersectionExampleScenario.node[37].appl 	IntersectionExitTime 	129.33714985973
scalar IntersectionExampleScenario.node[37].appl 	NumberOfCollisions 	0
scalar IntersectionExampleScenario.node[37].nic.phy80211p 	busyTime 	0
scalar IntersectionExampleScenario.node[37].nic.mac1609_4 	ReceivedUnicastPackets 	0
scalar IntersectionExampleScenario.node[37].nic.mac1609_4 	ReceivedBroadcasts 	0
scalar IntersectionExampleScenario.node[37].nic.mac1609_4 	SentPackets 	0
scalar IntersectionExampleScenario.node[37].nic.mac1609_4 	SNIRLostPackets 	0
scalar IntersectionExampleScenario.node[37].nic.mac1609_4 	RXTXLostPackets 	0
scalar IntersectionExampleScenario.node[37].nic.mac1609_4 	TotalLostPackets 	0
scalar IntersectionExampleScenario.node[37].nic.mac1609_4 	DroppedPacketsInMac 	0
scalar IntersectionExampleScenario.node[37].nic.mac1609_4 	TooLittleTime 	0
scalar IntersectionExampleScenario.node[37].nic.mac1609_4 	TimesIntoBackoff 	0
[...]
scalar IntersectionExampleScenario.node[776].veinsmobility 	totalDistance 	287.42188262939
scalar IntersectionExampleScenario.node[776].veinsmobility 	totalCO2Emission 	64.692234411085
scalar IntersectionExampleScenario.node[777].appl 	VehicleRemoved 	0
scalar IntersectionExampleScenario.node[777].appl 	ArrivedAtDest 	0
scalar IntersectionExampleScenario.node[777].appl 	IntersectionEnterTime 	1781.75
scalar IntersectionExampleScenario.node[777].appl 	IntersectionExitTime 	-1
scalar IntersectionExampleScenario.node[777].appl 	NumberOfCollisions 	0
scalar IntersectionExampleScenario.node[777].nic.phy80211p 	busyTime 	0
scalar IntersectionExampleScenario.node[777].nic.mac1609_4 	ReceivedUnicastPackets 	0
scalar IntersectionExampleScenario.node[777].nic.mac1609_4 	ReceivedBroadcasts 	0
scalar IntersectionExampleScenario.node[777].nic.mac1609_4 	SentPackets 	0
scalar IntersectionExampleScenario.node[777].nic.mac1609_4 	SNIRLostPackets 	0
scalar IntersectionExampleScenario.node[777].nic.mac1609_4 	RXTXLostPackets 	0
scalar IntersectionExampleScenario.node[777].nic.mac1609_4 	TotalLostPackets 	0
scalar IntersectionExampleScenario.node[777].nic.mac1609_4 	DroppedPacketsInMac 	0
scalar IntersectionExampleScenario.node[777].nic.mac1609_4 	TooLittleTime 	0
scalar IntersectionExampleScenario.node[777].nic.mac1609_4 	TimesIntoBackoff 	0
scalar IntersectionExampleScenario.node[777].nic.mac1609_4 	SlotsBackoff 	0
scalar IntersectionExampleScenario.node[777].nic.mac1609_4 	NumInternalContention 	0
scalar IntersectionExampleScenario.node[777].nic.mac1609_4 	totalBusyTime 	0
scalar IntersectionExampleScenario.node[777].veinsmobility 	startTime 	1781.75
scalar IntersectionExampleScenario.node[777].veinsmobility 	totalTime 	18.25
scalar IntersectionExampleScenario.node[777].veinsmobility 	stopTime 	1800
scalar IntersectionExampleScenario.node[777].veinsmobility 	minSpeed 	5.6500000953674
scalar IntersectionExampleScenario.node[777].veinsmobility 	maxSpeed 	16.27499961853
scalar IntersectionExampleScenario.node[777].veinsmobility 	totalDistance 	247.56937408447
scalar IntersectionExampleScenario.node[777].veinsmobility 	totalCO2Emission 	70.171473605641
scalar IntersectionExampleScenario.node[778].appl 	VehicleRemoved 	0
scalar IntersectionExampleScenario.node[778].appl 	ArrivedAtDest 	0
scalar IntersectionExampleScenario.node[778].appl 	IntersectionEnterTime 	1785
scalar IntersectionExampleScenario.node[778].appl 	IntersectionExitTime 	-1
scalar IntersectionExampleScenario.node[778].appl 	NumberOfCollisions 	0
scalar IntersectionExampleScenario.node[778].nic.phy80211p 	busyTime 	0
scalar IntersectionExampleScenario.node[778].nic.mac1609_4 	ReceivedUnicastPackets 	0
scalar IntersectionExampleScenario.node[778].nic.mac1609_4 	ReceivedBroadcasts 	0
scalar IntersectionExampleScenario.node[778].nic.mac1609_4 	SentPackets 	0
scalar IntersectionExampleScenario.node[778].nic.mac1609_4 	SNIRLostPackets 	0
scalar IntersectionExampleScenario.node[778].nic.mac1609_4 	RXTXLostPackets 	0
scalar IntersectionExampleScenario.node[778].nic.mac1609_4 	TotalLostPackets 	0
scalar IntersectionExampleScenario.node[778].nic.mac1609_4 	DroppedPacketsInMac 	0
scalar IntersectionExampleScenario.node[778].nic.mac1609_4 	TooLittleTime 	0
scalar IntersectionExampleScenario.node[778].nic.mac1609_4 	TimesIntoBackoff 	0
scalar IntersectionExampleScenario.node[778].nic.mac1609_4 	SlotsBackoff 	0
scalar IntersectionExampleScenario.node[778].nic.mac1609_4 	NumInternalContention 	0
scalar IntersectionExampleScenario.node[778].nic.mac1609_4 	totalBusyTime 	0
scalar IntersectionExampleScenario.node[778].veinsmobility 	startTime 	1785
scalar IntersectionExampleScenario.node[778].veinsmobility 	totalTime 	15
scalar IntersectionExampleScenario.node[778].veinsmobility 	stopTime 	1800
scalar IntersectionExampleScenario.node[778].veinsmobility 	minSpeed 	5.6500000953674
scalar IntersectionExampleScenario.node[778].veinsmobility 	maxSpeed 	16.27499961853
scalar IntersectionExampleScenario.node[778].veinsmobility 	totalDistance 	203.78512573242
scalar IntersectionExampleScenario.node[778].veinsmobility 	totalCO2Emission 	54.33222761339
scalar IntersectionExampleScenario.node[779].appl 	VehicleRemoved 	0
scalar IntersectionExampleScenario.node[779].appl 	ArrivedAtDest 	0
scalar IntersectionExampleScenario.node[779].appl 	IntersectionEnterTime 	1785.25
scalar IntersectionExampleScenario.node[779].appl 	IntersectionExitTime 	-1
scalar IntersectionExampleScenario.node[779].appl 	NumberOfCollisions 	0
scalar IntersectionExampleScenario.node[779].nic.phy80211p 	busyTime 	0
scalar IntersectionExampleScenario.node[779].nic.mac1609_4 	ReceivedUnicastPackets 	0
scalar IntersectionExampleScenario.node[779].nic.mac1609_4 	ReceivedBroadcasts 	0
scalar IntersectionExampleScenario.node[779].nic.mac1609_4 	SentPackets 	0
scalar IntersectionExampleScenario.node[779].nic.mac1609_4 	SNIRLostPackets 	0
scalar IntersectionExampleScenario.node[779].nic.mac1609_4 	RXTXLostPackets 	0
scalar IntersectionExampleScenario.node[779].nic.mac1609_4 	TotalLostPackets 	0
scalar IntersectionExampleScenario.node[779].nic.mac1609_4 	DroppedPacketsInMac 	0
scalar IntersectionExampleScenario.node[779].nic.mac1609_4 	TooLittleTime 	0
scalar IntersectionExampleScenario.node[779].nic.mac1609_4 	TimesIntoBackoff 	0
scalar IntersectionExampleScenario.node[779].nic.mac1609_4 	SlotsBackoff 	0
scalar IntersectionExampleScenario.node[779].nic.mac1609_4 	NumInternalContention 	0
scalar IntersectionExampleScenario.node[779].nic.mac1609_4 	totalBusyTime 	0
scalar IntersectionExampleScenario.node[779].veinsmobility 	startTime 	1785.25
scalar IntersectionExampleScenario.node[779].veinsmobility 	totalTime 	14.75
scalar IntersectionExampleScenario.node[779].veinsmobility 	stopTime 	1800
scalar IntersectionExampleScenario.node[779].veinsmobility 	minSpeed 	5.6500000953674
scalar IntersectionExampleScenario.node[779].veinsmobility 	maxSpeed 	16.093904495239
scalar IntersectionExampleScenario.node[779].veinsmobility 	totalDistance 	205.78332519531
scalar IntersectionExampleScenario.node[779].veinsmobility 	totalCO2Emission 	56.202609054519
scalar IntersectionExampleScenario.node[780].appl 	VehicleRemoved 	0
scalar IntersectionExampleScenario.node[780].appl 	ArrivedAtDest 	0
scalar IntersectionExampleScenario.node[780].appl 	IntersectionEnterTime 	1788.5
scalar IntersectionExampleScenario.node[780].appl 	IntersectionExitTime 	-1
scalar IntersectionExampleScenario.node[780].appl 	NumberOfCollisions 	0
scalar IntersectionExampleScenario.node[780].nic.phy80211p 	busyTime 	0
scalar IntersectionExampleScenario.node[780].nic.mac1609_4 	ReceivedUnicastPackets 	0
scalar IntersectionExampleScenario.node[780].nic.mac1609_4 	ReceivedBroadcasts 	0
scalar IntersectionExampleScenario.node[780].nic.mac1609_4 	SentPackets 	0
scalar IntersectionExampleScenario.node[780].nic.mac1609_4 	SNIRLostPackets 	0
scalar IntersectionExampleScenario.node[780].nic.mac1609_4 	RXTXLostPackets 	0
scalar IntersectionExampleScenario.node[780].nic.mac1609_4 	TotalLostPackets 	0
scalar IntersectionExampleScenario.node[780].nic.mac1609_4 	DroppedPacketsInMac 	0
scalar IntersectionExampleScenario.node[780].nic.mac1609_4 	TooLittleTime 	0
scalar IntersectionExampleScenario.node[780].nic.mac1609_4 	TimesIntoBackoff 	0
scalar IntersectionExampleScenario.node[780].nic.mac1609_4 	SlotsBackoff 	0
scalar IntersectionExampleScenario.node[780].nic.mac1609_4 	NumInternalContention 	0
scalar IntersectionExampleScenario.node[780].nic.mac1609_4 	totalBusyTime 	0
scalar IntersectionExampleScenario.node[780].veinsmobility 	startTime 	1788.5
scalar IntersectionExampleScenario.node[780].veinsmobility 	totalTime 	11.5
scalar IntersectionExampleScenario.node[780].veinsmobility 	stopTime 	1800
scalar IntersectionExampleScenario.node[780].veinsmobility 	minSpeed 	5.6500000953674
scalar IntersectionExampleScenario.node[780].veinsmobility 	maxSpeed 	15.02499961853
scalar IntersectionExampleScenario.node[780].veinsmobility 	totalDistance 	150.22397613525
scalar IntersectionExampleScenario.node[780].veinsmobility 	totalCO2Emission 	45.163352145144
scalar IntersectionExampleScenario.node[781].appl 	VehicleRemoved 	0
scalar IntersectionExampleScenario.node[781].appl 	ArrivedAtDest 	0
scalar IntersectionExampleScenario.node[781].appl 	IntersectionEnterTime 	1790.75
scalar IntersectionExampleScenario.node[781].appl 	IntersectionExitTime 	-1
scalar IntersectionExampleScenario.node[781].appl 	NumberOfCollisions 	0
scalar IntersectionExampleScenario.node[781].nic.phy80211p 	busyTime 	0
scalar IntersectionExampleScenario.node[781].nic.mac1609_4 	ReceivedUnicastPackets 	0
scalar IntersectionExampleScenario.node[781].nic.mac1609_4 	ReceivedBroadcasts 	0
scalar IntersectionExampleScenario.node[781].nic.mac1609_4 	SentPackets 	0
scalar IntersectionExampleScenario.node[781].nic.mac1609_4 	SNIRLostPackets 	0
scalar IntersectionExampleScenario.node[781].nic.mac1609_4 	RXTXLostPackets 	0
scalar IntersectionExampleScenario.node[781].nic.mac1609_4 	TotalLostPackets 	0
scalar IntersectionExampleScenario.node[781].nic.mac1609_4 	DroppedPacketsInMac 	0
scalar IntersectionExampleScenario.node[781].nic.mac1609_4 	TooLittleTime 	0
scalar IntersectionExampleScenario.node[781].nic.mac1609_4 	TimesIntoBackoff 	0
scalar IntersectionExampleScenario.node[781].nic.mac1609_4 	SlotsBackoff 	0
scalar IntersectionExampleScenario.node[781].nic.mac1609_4 	NumInternalContention 	0
scalar IntersectionExampleScenario.node[781].nic.mac1609_4 	totalBusyTime 	0
scalar IntersectionExampleScenario.node[781].veinsmobility 	startTime 	1790.75
scalar IntersectionExampleScenario.node[781].veinsmobility 	totalTime 	9.25
scalar IntersectionExampleScenario.node[781].veinsmobility 	stopTime 	1800
scalar IntersectionExampleScenario.node[781].veinsmobility 	minSpeed 	5.6500000953674
scalar IntersectionExampleScenario.node[781].veinsmobility 	maxSpeed 	14.39999961853
scalar IntersectionExampleScenario.node[781].veinsmobility 	totalDistance 	115.16611480713
scalar IntersectionExampleScenario.node[781].veinsmobility 	totalCO2Emission 	38.904738865011
scalar IntersectionExampleScenario.node[782].appl 	VehicleRemoved 	0
scalar IntersectionExampleScenario.node[782].appl 	ArrivedAtDest 	0
scalar IntersectionExampleScenario.node[782].appl 	IntersectionEnterTime 	1791
scalar IntersectionExampleScenario.node[782].appl 	IntersectionExitTime 	-1
scalar IntersectionExampleScenario.node[782].appl 	NumberOfCollisions 	0
scalar IntersectionExampleScenario.node[782].nic.phy80211p 	busyTime 	0
scalar IntersectionExampleScenario.node[782].nic.mac1609_4 	ReceivedUnicastPackets 	0
scalar IntersectionExampleScenario.node[782].nic.mac1609_4 	ReceivedBroadcasts 	0
scalar IntersectionExampleScenario.node[782].nic.mac1609_4 	SentPackets 	0
scalar IntersectionExampleScenario.node[782].nic.mac1609_4 	SNIRLostPackets 	0
scalar IntersectionExampleScenario.node[782].nic.mac1609_4 	RXTXLostPackets 	0
scalar IntersectionExampleScenario.node[782].nic.mac1609_4 	TotalLostPackets 	0
scalar IntersectionExampleScenario.node[782].nic.mac1609_4 	DroppedPacketsInMac 	0
scalar IntersectionExampleScenario.node[782].nic.mac1609_4 	TooLittleTime 	0
scalar IntersectionExampleScenario.node[782].nic.mac1609_4 	TimesIntoBackoff 	0
scalar IntersectionExampleScenario.node[782].nic.mac1609_4 	SlotsBackoff 	0
scalar IntersectionExampleScenario.node[782].nic.mac1609_4 	NumInternalContention 	0
scalar IntersectionExampleScenario.node[782].nic.mac1609_4 	totalBusyTime 	0
scalar IntersectionExampleScenario.node[782].veinsmobility 	startTime 	1791
scalar IntersectionExampleScenario.node[782].veinsmobility 	totalTime 	9
scalar IntersectionExampleScenario.node[782].veinsmobility 	stopTime 	1800
scalar IntersectionExampleScenario.node[782].veinsmobility 	minSpeed 	5.6500000953674
scalar IntersectionExampleScenario.node[782].veinsmobility 	maxSpeed 	15.64999961853
scalar IntersectionExampleScenario.node[782].veinsmobility 	totalDistance 	116.80120849609
scalar IntersectionExampleScenario.node[782].veinsmobility 	totalCO2Emission 	42.593276592524
scalar IntersectionExampleScenario.node[783].appl 	VehicleRemoved 	0
scalar IntersectionExampleScenario.node[783].appl 	ArrivedAtDest 	0
scalar IntersectionExampleScenario.node[783].appl 	IntersectionEnterTime 	1791.75
scalar IntersectionExampleScenario.node[783].appl 	IntersectionExitTime 	-1
scalar IntersectionExampleScenario.node[783].appl 	NumberOfCollisions 	0
scalar IntersectionExampleScenario.node[783].nic.phy80211p 	busyTime 	0
scalar IntersectionExampleScenario.node[783].nic.mac1609_4 	ReceivedUnicastPackets 	0
scalar IntersectionExampleScenario.node[783].nic.mac1609_4 	ReceivedBroadcasts 	0
scalar IntersectionExampleScenario.node[783].nic.mac1609_4 	SentPackets 	0
scalar IntersectionExampleScenario.node[783].nic.mac1609_4 	SNIRLostPackets 	0
scalar IntersectionExampleScenario.node[783].nic.mac1609_4 	RXTXLostPackets 	0
scalar IntersectionExampleScenario.node[783].nic.mac1609_4 	TotalLostPackets 	0
scalar IntersectionExampleScenario.node[783].nic.mac1609_4 	DroppedPacketsInMac 	0
scalar IntersectionExampleScenario.node[783].nic.mac1609_4 	TooLittleTime 	0
scalar IntersectionExampleScenario.node[783].nic.mac1609_4 	TimesIntoBackoff 	0
scalar IntersectionExampleScenario.node[783].nic.mac1609_4 	SlotsBackoff 	0
scalar IntersectionExampleScenario.node[783].nic.mac1609_4 	NumInternalContention 	0
scalar IntersectionExampleScenario.node[783].nic.mac1609_4 	totalBusyTime 	0
scalar IntersectionExampleScenario.node[783].veinsmobility 	startTime 	1791.75
scalar IntersectionExampleScenario.node[783].veinsmobility 	totalTime 	8.25
scalar IntersectionExampleScenario.node[783].veinsmobility 	stopTime 	1800
scalar IntersectionExampleScenario.node[783].veinsmobility 	minSpeed 	5.6500000953674
scalar IntersectionExampleScenario.node[783].veinsmobility 	maxSpeed 	15.720076560974
scalar IntersectionExampleScenario.node[783].veinsmobility 	totalDistance 	106.63061523438
scalar IntersectionExampleScenario.node[783].veinsmobility 	totalCO2Emission 	42.490679823838
scalar IntersectionExampleScenario.node[784].appl 	VehicleRemoved 	0
scalar IntersectionExampleScenario.node[784].appl 	ArrivedAtDest 	0
scalar IntersectionExampleScenario.node[784].appl 	IntersectionEnterTime 	1796.5
scalar IntersectionExampleScenario.node[784].appl 	IntersectionExitTime 	-1
scalar IntersectionExampleScenario.node[784].appl 	NumberOfCollisions 	0
scalar IntersectionExampleScenario.node[784].nic.phy80211p 	busyTime 	0
scalar IntersectionExampleScenario.node[784].nic.mac1609_4 	ReceivedUnicastPackets 	0
scalar IntersectionExampleScenario.node[784].nic.mac1609_4 	ReceivedBroadcasts 	0
scalar IntersectionExampleScenario.node[784].nic.mac1609_4 	SentPackets 	0
scalar IntersectionExampleScenario.node[784].nic.mac1609_4 	SNIRLostPackets 	0
scalar IntersectionExampleScenario.node[784].nic.mac1609_4 	RXTXLostPackets 	0
scalar IntersectionExampleScenario.node[784].nic.mac1609_4 	TotalLostPackets 	0
scalar IntersectionExampleScenario.node[784].nic.mac1609_4 	DroppedPacketsInMac 	0
scalar IntersectionExampleScenario.node[784].nic.mac1609_4 	TooLittleTime 	0
scalar IntersectionExampleScenario.node[784].nic.mac1609_4 	TimesIntoBackoff 	0
scalar IntersectionExampleScenario.node[784].nic.mac1609_4 	SlotsBackoff 	0
scalar IntersectionExampleScenario.node[784].nic.mac1609_4 	NumInternalContention 	0
scalar IntersectionExampleScenario.node[784].nic.mac1609_4 	totalBusyTime 	0
scalar IntersectionExampleScenario.node[784].veinsmobility 	startTime 	1796.5
scalar IntersectionExampleScenario.node[784].veinsmobility 	totalTime 	3.5
scalar IntersectionExampleScenario.node[784].veinsmobility 	stopTime 	1800
scalar IntersectionExampleScenario.node[784].veinsmobility 	minSpeed 	5.6500000953674
scalar IntersectionExampleScenario.node[784].veinsmobility 	maxSpeed 	13.77499961853
scalar IntersectionExampleScenario.node[784].veinsmobility 	totalDistance 	32.899963378906
scalar IntersectionExampleScenario.node[784].veinsmobility 	totalCO2Emission 	25.161289661203
scalar IntersectionExampleScenario.node[785].appl 	VehicleRemoved 	0
scalar IntersectionExampleScenario.node[785].appl 	ArrivedAtDest 	0
scalar IntersectionExampleScenario.node[785].appl 	IntersectionEnterTime 	1799.75
scalar IntersectionExampleScenario.node[785].appl 	IntersectionExitTime 	-1
scalar IntersectionExampleScenario.node[785].appl 	NumberOfCollisions 	0
scalar IntersectionExampleScenario.node[785].nic.phy80211p 	busyTime 	0
scalar IntersectionExampleScenario.node[785].nic.mac1609_4 	ReceivedUnicastPackets 	0
scalar IntersectionExampleScenario.node[785].nic.mac1609_4 	ReceivedBroadcasts 	0
scalar IntersectionExampleScenario.node[785].nic.mac1609_4 	SentPackets 	0
scalar IntersectionExampleScenario.node[785].nic.mac1609_4 	SNIRLostPackets 	0
scalar IntersectionExampleScenario.node[785].nic.mac1609_4 	RXTXLostPackets 	0
scalar IntersectionExampleScenario.node[785].nic.mac1609_4 	TotalLostPackets 	0
scalar IntersectionExampleScenario.node[785].nic.mac1609_4 	DroppedPacketsInMac 	0
scalar IntersectionExampleScenario.node[785].nic.mac1609_4 	TooLittleTime 	0
scalar IntersectionExampleScenario.node[785].nic.mac1609_4 	TimesIntoBackoff 	0
scalar IntersectionExampleScenario.node[785].nic.mac1609_4 	SlotsBackoff 	0
scalar IntersectionExampleScenario.node[785].nic.mac1609_4 	NumInternalContention 	0
scalar IntersectionExampleScenario.node[785].nic.mac1609_4 	totalBusyTime 	0
scalar IntersectionExampleScenario.node[785].veinsmobility 	startTime 	1799.75
scalar IntersectionExampleScenario.node[785].veinsmobility 	totalTime 	0.25
scalar IntersectionExampleScenario.node[785].veinsmobility 	stopTime 	1800
scalar IntersectionExampleScenario.node[785].veinsmobility 	minSpeed 	5.6500000953674
scalar IntersectionExampleScenario.node[785].veinsmobility 	maxSpeed 	5.6500000953674
scalar IntersectionExampleScenario.node[785].veinsmobility 	totalDistance 	1.3343734741211
scalar IntersectionExampleScenario.node[785].veinsmobility 	totalCO2Emission 	0
scalar IntersectionExampleScenario.node[786].appl 	VehicleRemoved 	0
scalar IntersectionExampleScenario.node[786].appl 	ArrivedAtDest 	0
scalar IntersectionExampleScenario.node[786].appl 	IntersectionEnterTime 	1799.75
scalar IntersectionExampleScenario.node[786].appl 	IntersectionExitTime 	-1
scalar IntersectionExampleScenario.node[786].appl 	NumberOfCollisions 	0
scalar IntersectionExampleScenario.node[786].nic.phy80211p 	busyTime 	0
scalar IntersectionExampleScenario.node[786].nic.mac1609_4 	ReceivedUnicastPackets 	0
scalar IntersectionExampleScenario.node[786].nic.mac1609_4 	ReceivedBroadcasts 	0
scalar IntersectionExampleScenario.node[786].nic.mac1609_4 	SentPackets 	0
scalar IntersectionExampleScenario.node[786].nic.mac1609_4 	SNIRLostPackets 	0
scalar IntersectionExampleScenario.node[786].nic.mac1609_4 	RXTXLostPackets 	0
scalar IntersectionExampleScenario.node[786].nic.mac1609_4 	TotalLostPackets 	0
scalar IntersectionExampleScenario.node[786].nic.mac1609_4 	DroppedPacketsInMac 	0
scalar IntersectionExampleScenario.node[786].nic.mac1609_4 	TooLittleTime 	0
scalar IntersectionExampleScenario.node[786].nic.mac1609_4 	TimesIntoBackoff 	0
scalar IntersectionExampleScenario.node[786].nic.mac1609_4 	SlotsBackoff 	0
scalar IntersectionExampleScenario.node[786].nic.mac1609_4 	NumInternalContention 	0
scalar IntersectionExampleScenario.node[786].nic.mac1609_4 	totalBusyTime 	0
scalar IntersectionExampleScenario.node[786].veinsmobility 	startTime 	1799.75
scalar IntersectionExampleScenario.node[786].veinsmobility 	totalTime 	0.25
scalar IntersectionExampleScenario.node[786].veinsmobility 	stopTime 	1800
scalar IntersectionExampleScenario.node[786].veinsmobility 	minSpeed 	5.6500000953674
scalar IntersectionExampleScenario.node[786].veinsmobility 	maxSpeed 	5.6500000953674
scalar IntersectionExampleScenario.node[786].veinsmobility 	totalDistance 	1.3344116210938
scalar IntersectionExampleScenario.node[786].veinsmobility 	totalCO2Emission 	0
