file 30973923 1591458069                                        
version 2
run nodebug-41-20200606-11:36:38-6208
attr configname nodebug
attr datetime 20200606-11:36:38
attr experiment nodebug
attr inifile omnetpp.ini
attr iterationvars ""
attr iterationvars2 $repetition=41
attr measurement ""
attr network "\"org.car2x.veins.modules.application.ExtTraCIScenarioManagerLaunchd.IntersectionExampleScenario\""
attr processid 6208
attr repetition 41
attr replication #41
attr resultdir results
attr runnumber 41
attr seedset 41
param **.coreDebug false
param **.debug false
param *.**.nic.mac1609_4.bitrate 18Mbps
param *.**.nic.mac1609_4.txPower 20mW
param *.**.nic.mac1609_4.useServiceChannel false
param *.**.nic.phy80211p.analogueModels "xmldoc(\"config.xml\")"
param *.**.nic.phy80211p.decider "xmldoc(\"config.xml\")"
param *.**.nic.phy80211p.sensitivity -89dBm
param *.**.nic.phy80211p.thermalNoise -110dBm
param *.**.nic.phy80211p.usePropagationDelay true
param *.**.nic.phy80211p.useThermalNoise true
param *.annotations.draw false
param *.connectionManager.alpha 2.0
param *.connectionManager.carrierFrequency "5.890e9 Hz"
param *.connectionManager.pMax 20mW
param *.connectionManager.sat -89dBm
param *.connectionManager.sendDirect true
param *.manager.autoShutdown true
param *.manager.host "\"localhost\""
param *.manager.launchConfig "xmldoc(\"paramics.launchd.xml\")"
param *.manager.margin 25
param *.manager.moduleDisplayString "\"\""
param *.manager.moduleName "\"node\""
param *.manager.moduleType "\"org.car2x.veins.nodes.Car\""
param *.manager.port 9999
param *.manager.updateInterval 250ms
param *.node[*0].veinsmobility.accidentCount 0
param *.node[*0].veinsmobility.accidentDuration 30s
param *.node[*0].veinsmobility.accidentStart 75s
param *.node[*].appl.LiderSelectZoneRadio 55.0
param *.node[*].appl.ShareDataZoneRadio 110.0
param *.node[*].appl.TiempoSemaforo 30.0
param *.node[*].appl.beaconInterval 1s
param *.node[*].appl.beaconPriority 3
param *.node[*].appl.dataOnSch false
param *.node[*].appl.dataPriority 2
param *.node[*].appl.debug false
param *.node[*].appl.headerLength "256 bit"
param *.node[*].appl.maxOffset 0.005s
param *.node[*].appl.sendBeacons false
param *.node[*].appl.sendData true
param *.node[*].applType "\"Dummy\""
param *.node[*].mobilityType "\"TraCIMobility\""
param *.node[*].mobilityType.debug true
param *.node[*].veinsmobility.x 0
param *.node[*].veinsmobility.y 0
param *.node[*].veinsmobility.z 1.895
param *.node[*].veinsmobilityType "\"org.car2x.veins.modules.mobility.traci.TraCIMobility\""
param *.node[*].veinsmobilityType.debug true
param *.playgroundSizeX 8500m
param *.playgroundSizeY 8500m
param *.playgroundSizeZ 50m
param *.world.use2D false
param *.world.useTorus false

vector 50412  IntersectionExampleScenario.manager  vehiclesinsim  ETV
attr type  int
vector 50413  IntersectionExampleScenario.manager  realtime  ETV
attr type  int
attr unit  s
vector 50416  IntersectionExampleScenario.node[0].veinsmobility  posx  ETV
vector 50417  IntersectionExampleScenario.node[0].veinsmobility  posy  ETV
vector 50418  IntersectionExampleScenario.node[0].veinsmobility  speed  ETV
vector 50419  IntersectionExampleScenario.node[0].veinsmobility  acceleration  ETV
vector 50420  IntersectionExampleScenario.node[0].veinsmobility  co2emission  ETV
vector 50423  IntersectionExampleScenario.node[1].veinsmobility  posx  ETV
vector 50424  IntersectionExampleScenario.node[1].veinsmobility  posy  ETV
vector 50425  IntersectionExampleScenario.node[1].veinsmobility  speed  ETV
vector 50426  IntersectionExampleScenario.node[1].veinsmobility  acceleration  ETV
vector 50427  IntersectionExampleScenario.node[1].veinsmobility  co2emission  ETV
vector 50430  IntersectionExampleScenario.node[2].veinsmobility  posx  ETV
vector 50431  IntersectionExampleScenario.node[2].veinsmobility  posy  ETV
vector 50432  IntersectionExampleScenario.node[2].veinsmobility  speed  ETV
vector 50433  IntersectionExampleScenario.node[2].veinsmobility  acceleration  ETV
vector 50434  IntersectionExampleScenario.node[2].veinsmobility  co2emission  ETV
vector 50437  IntersectionExampleScenario.node[3].veinsmobility  posx  ETV
vector 50438  IntersectionExampleScenario.node[3].veinsmobility  posy  ETV
vector 50444  IntersectionExampleScenario.node[4].veinsmobility  posx  ETV
vector 50445  IntersectionExampleScenario.node[4].veinsmobility  posy  ETV
vector 50439  IntersectionExampleScenario.node[3].veinsmobility  speed  ETV
vector 50446  IntersectionExampleScenario.node[4].veinsmobility  speed  ETV
vector 50451  IntersectionExampleScenario.node[5].veinsmobility  posx  ETV
vector 50452  IntersectionExampleScenario.node[5].veinsmobility  posy  ETV
vector 50440  IntersectionExampleScenario.node[3].veinsmobility  acceleration  ETV
vector 50441  IntersectionExampleScenario.node[3].veinsmobility  co2emission  ETV
vector 50447  IntersectionExampleScenario.node[4].veinsmobility  acceleration  ETV
vector 50448  IntersectionExampleScenario.node[4].veinsmobility  co2emission  ETV
vector 50453  IntersectionExampleScenario.node[5].veinsmobility  speed  ETV
vector 50454  IntersectionExampleScenario.node[5].veinsmobility  acceleration  ETV
vector 50455  IntersectionExampleScenario.node[5].veinsmobility  co2emission  ETV
vector 50458  IntersectionExampleScenario.node[6].veinsmobility  posx  ETV
vector 50459  IntersectionExampleScenario.node[6].veinsmobility  posy  ETV
vector 50460  IntersectionExampleScenario.node[6].veinsmobility  speed  ETV
vector 50461  IntersectionExampleScenario.node[6].veinsmobility  acceleration  ETV
vector 50462  IntersectionExampleScenario.node[6].veinsmobility  co2emission  ETV
vector 50465  IntersectionExampleScenario.node[7].veinsmobility  posx  ETV
vector 50466  IntersectionExampleScenario.node[7].veinsmobility  posy  ETV
vector 50467  IntersectionExampleScenario.node[7].veinsmobility  speed  ETV
vector 50468  IntersectionExampleScenario.node[7].veinsmobility  acceleration  ETV
vector 50469  IntersectionExampleScenario.node[7].veinsmobility  co2emission  ETV
vector 50472  IntersectionExampleScenario.node[8].veinsmobility  posx  ETV
vector 50473  IntersectionExampleScenario.node[8].veinsmobility  posy  ETV
vector 50474  IntersectionExampleScenario.node[8].veinsmobility  speed  ETV
vector 50475  IntersectionExampleScenario.node[8].veinsmobility  acceleration  ETV
vector 50476  IntersectionExampleScenario.node[8].veinsmobility  co2emission  ETV
vector 50479  IntersectionExampleScenario.node[9].veinsmobility  posx  ETV
vector 50480  IntersectionExampleScenario.node[9].veinsmobility  posy  ETV
vector 50481  IntersectionExampleScenario.node[9].veinsmobility  speed  ETV
vector 50482  IntersectionExampleScenario.node[9].veinsmobility  acceleration  ETV
vector 50483  IntersectionExampleScenario.node[9].veinsmobility  co2emission  ETV
vector 50486  IntersectionExampleScenario.node[10].veinsmobility  posx  ETV
vector 50487  IntersectionExampleScenario.node[10].veinsmobility  posy  ETV
vector 50488  IntersectionExampleScenario.node[10].veinsmobility  speed  ETV
vector 50489  IntersectionExampleScenario.node[10].veinsmobility  acceleration  ETV
vector 50490  IntersectionExampleScenario.node[10].veinsmobility  co2emission  ETV
vector 50493  IntersectionExampleScenario.node[11].veinsmobility  posx  ETV
vector 50494  IntersectionExampleScenario.node[11].veinsmobility  posy  ETV
vector 50495  IntersectionExampleScenario.node[11].veinsmobility  speed  ETV
vector 50496  IntersectionExampleScenario.node[11].veinsmobility  acceleration  ETV
vector 50497  IntersectionExampleScenario.node[11].veinsmobility  co2emission  ETV
vector 50500  IntersectionExampleScenario.node[12].veinsmobility  posx  ETV
vector 50501  IntersectionExampleScenario.node[12].veinsmobility  posy  ETV
vector 50502  IntersectionExampleScenario.node[12].veinsmobility  speed  ETV
vector 50503  IntersectionExampleScenario.node[12].veinsmobility  acceleration  ETV
vector 50504  IntersectionExampleScenario.node[12].veinsmobility  co2emission  ETV
vector 50507  IntersectionExampleScenario.node[13].veinsmobility  posx  ETV
vector 50508  IntersectionExampleScenario.node[13].veinsmobility  posy  ETV
vector 50509  IntersectionExampleScenario.node[13].veinsmobility  speed  ETV
vector 50510  IntersectionExampleScenario.node[13].veinsmobility  acceleration  ETV
vector 50511  IntersectionExampleScenario.node[13].veinsmobility  co2emission  ETV
vector 50514  IntersectionExampleScenario.node[14].veinsmobility  posx  ETV
vector 50515  IntersectionExampleScenario.node[14].veinsmobility  posy  ETV
vector 50516  IntersectionExampleScenario.node[14].veinsmobility  speed  ETV
vector 50521  IntersectionExampleScenario.node[15].veinsmobility  posx  ETV
vector 50522  IntersectionExampleScenario.node[15].veinsmobility  posy  ETV
vector 50517  IntersectionExampleScenario.node[14].veinsmobility  acceleration  ETV
vector 50518  IntersectionExampleScenario.node[14].veinsmobility  co2emission  ETV
vector 50523  IntersectionExampleScenario.node[15].veinsmobility  speed  ETV
vector 50528  IntersectionExampleScenario.node[16].veinsmobility  posx  ETV
vector 50529  IntersectionExampleScenario.node[16].veinsmobility  posy  ETV
vector 50524  IntersectionExampleScenario.node[15].veinsmobility  acceleration  ETV
vector 50525  IntersectionExampleScenario.node[15].veinsmobility  co2emission  ETV
vector 50535  IntersectionExampleScenario.node[17].veinsmobility  posx  ETV
vector 50536  IntersectionExampleScenario.node[17].veinsmobility  posy  ETV
vector 50530  IntersectionExampleScenario.node[16].veinsmobility  speed  ETV
vector 50531  IntersectionExampleScenario.node[16].veinsmobility  acceleration  ETV
vector 50532  IntersectionExampleScenario.node[16].veinsmobility  co2emission  ETV
vector 50537  IntersectionExampleScenario.node[17].veinsmobility  speed  ETV
vector 50542  IntersectionExampleScenario.node[18].veinsmobility  posx  ETV
vector 50543  IntersectionExampleScenario.node[18].veinsmobility  posy  ETV
vector 50538  IntersectionExampleScenario.node[17].veinsmobility  acceleration  ETV
vector 50539  IntersectionExampleScenario.node[17].veinsmobility  co2emission  ETV
vector 50544  IntersectionExampleScenario.node[18].veinsmobility  speed  ETV
vector 50545  IntersectionExampleScenario.node[18].veinsmobility  acceleration  ETV
vector 50546  IntersectionExampleScenario.node[18].veinsmobility  co2emission  ETV
vector 50549  IntersectionExampleScenario.node[19].veinsmobility  posx  ETV
vector 50550  IntersectionExampleScenario.node[19].veinsmobility  posy  ETV
vector 50551  IntersectionExampleScenario.node[19].veinsmobility  speed  ETV
vector 50552  IntersectionExampleScenario.node[19].veinsmobility  acceleration  ETV
vector 50553  IntersectionExampleScenario.node[19].veinsmobility  co2emission  ETV
vector 50556  IntersectionExampleScenario.node[20].veinsmobility  posx  ETV
vector 50557  IntersectionExampleScenario.node[20].veinsmobility  posy  ETV
vector 50558  IntersectionExampleScenario.node[20].veinsmobility  speed  ETV
vector 50559  IntersectionExampleScenario.node[20].veinsmobility  acceleration  ETV
vector 50560  IntersectionExampleScenario.node[20].veinsmobility  co2emission  ETV
vector 50563  IntersectionExampleScenario.node[21].veinsmobility  posx  ETV
vector 50564  IntersectionExampleScenario.node[21].veinsmobility  posy  ETV
vector 50565  IntersectionExampleScenario.node[21].veinsmobility  speed  ETV
vector 50566  IntersectionExampleScenario.node[21].veinsmobility  acceleration  ETV
vector 50567  IntersectionExampleScenario.node[21].veinsmobility  co2emission  ETV
50420	11706 5700 22 3817 4.25 51.25 189 0.97223939240464 11.648172402475 563.64576922157 2956.409328937
50419	17406 5195 22 3817 4.25 51.25 189 -7.1630792617798 4 38.680875778198 475.21272998936
50418	22601 5578 19 3817 4 51.25 190 0 15.64999961853 2217.0011982918 31576.668155059
50417	28179 6146 16 3817 3.75 51.25 191 184.17810058594 734.53523254395 86533.972259521 43370477.410356
50416	34325 6180 16 3817 3.75 51.25 191 486.85000610352 486.85000610352 92988.351165771 45271379.332612
50434	40505 5523 89 3879 7.5 51.75 178 0.973 11.200708441096 531.97752694314 2672.8975330912
50433	46028 5110 89 3879 7.5 51.75 178 -8.6810245513916 4 36.134572982788 471.49787660457
50432	51138 5478 82 3879 7.25 51.75 179 0 15.02499961853 2208.198925972 30342.014239896
50431	56616 5838 75 3879 7 51.75 180 237.11944580078 785.82187652588 93331.550849915 52644929.642648
50430	62454 5856 75 3879 7 51.75 180 483.14999389648 483.14999389648 86966.998901367 42018104.988391
vector 50570  IntersectionExampleScenario.node[22].veinsmobility  posx  ETV
vector 50571  IntersectionExampleScenario.node[22].veinsmobility  posy  ETV
vector 50572  IntersectionExampleScenario.node[22].veinsmobility  speed  ETV
vector 50573  IntersectionExampleScenario.node[22].veinsmobility  acceleration  ETV
vector 50574  IntersectionExampleScenario.node[22].veinsmobility  co2emission  ETV
50427	68711 5927 35 4040 5 53 193 0.973 11.648172402475 574.48035445093 2933.6734390798
50426	74638 5649 35 4040 5 53 193 -4.5 2.5 38.850629806519 474.8217980443
50425	80287 6004 30 4040 4.75 53 194 0 15.64999961853 2305.1108558327 32552.746415129
50424	86291 6292 25 4040 4.5 53 195 161.1796875 732.4559173584 86071.131408691 42632121.024361
50423	92583 6320 25 4040 4.5 53 195 486.85000610352 486.85000610352 94935.751190186 46219471.046384
50455	98903 5499 214 4402 11.25 55.75 179 0.973 11.200708441096 527.59050529928 2661.0147353268
50454	104402 5622 214 4402 11.25 55.75 179 -4.5 2.5 36.98334312439 351.66992418236
50453	110024 5752 201 4402 11 55.75 180 2.0983264446259 15.347575187683 2124.9607670307 28286.39767353
50452	115776 5877 188 4402 10.75 55.75 181 208.31164550781 735.2809753418 83244.699295044 42026721.070839
50451	121653 5921 188 4402 10.75 55.75 181 486.85000610352 486.85000610352 88119.851104736 42901150.048182
vector 50577  IntersectionExampleScenario.node[23].veinsmobility  posx  ETV
vector 50578  IntersectionExampleScenario.node[23].veinsmobility  posy  ETV
vector 50579  IntersectionExampleScenario.node[23].veinsmobility  speed  ETV
vector 50584  IntersectionExampleScenario.node[24].veinsmobility  posx  ETV
vector 50585  IntersectionExampleScenario.node[24].veinsmobility  posy  ETV
vector 50580  IntersectionExampleScenario.node[23].veinsmobility  acceleration  ETV
vector 50581  IntersectionExampleScenario.node[23].veinsmobility  co2emission  ETV
50469	128129 4764 739 4530 20 56.75 148 0.973 12.099024792222 497.90876554838 2640.5614934795
50468	132893 4381 739 4530 20 56.75 148 -3.5516204833984 2.5 42.415441513062 207.65227221302
50467	137274 4665 722 4530 19.75 56.75 149 5.6500000953674 16.282884597778 2218.8195743561 33903.172200638
50466	141939 4923 705 4530 19.5 56.75 150 236.56585693359 785.82187652588 78345.687339783 44891723.37774
50465	146862 4933 705 4530 19.5 56.75 150 483.14999389648 483.14999389648 72472.499084473 35015087.490326
vector 50586  IntersectionExampleScenario.node[24].veinsmobility  speed  ETV
vector 50587  IntersectionExampleScenario.node[24].veinsmobility  acceleration  ETV
vector 50588  IntersectionExampleScenario.node[24].veinsmobility  co2emission  ETV
50441	152042 5926 188 4766 10.75 58.5 192 0.973 11.36141391502 565.57460789658 2860.7648065645
50440	157968 5853 188 4766 10.75 58.5 192 -4.5 2.5000019073486 37.15309715271 389.50051907359
50439	163821 5996 177 4766 10.5 58.5 193 4.5126481056213 15.25 2204.005897522 28148.572538792
50438	169817 6336 166 4766 10.25 58.5 194 179.93267822266 483.14999389648 77085.361053467 32616099.577556
50437	176153 6345 166 4766 10.25 58.5 194 486.85000610352 733.96961975098 102845.00816345 55537047.006549
vector 50591  IntersectionExampleScenario.node[25].veinsmobility  posx  ETV
vector 50592  IntersectionExampleScenario.node[25].veinsmobility  posy  ETV
vector 50593  IntersectionExampleScenario.node[25].veinsmobility  speed  ETV
vector 50594  IntersectionExampleScenario.node[25].veinsmobility  acceleration  ETV
vector 50595  IntersectionExampleScenario.node[25].veinsmobility  co2emission  ETV
vector 50598  IntersectionExampleScenario.node[26].veinsmobility  posx  ETV
vector 50599  IntersectionExampleScenario.node[26].veinsmobility  posy  ETV
vector 50600  IntersectionExampleScenario.node[26].veinsmobility  speed  ETV
vector 50601  IntersectionExampleScenario.node[26].veinsmobility  acceleration  ETV
vector 50602  IntersectionExampleScenario.node[26].veinsmobility  co2emission  ETV
vector 50605  IntersectionExampleScenario.node[27].veinsmobility  posx  ETV
vector 50606  IntersectionExampleScenario.node[27].veinsmobility  posy  ETV
vector 50612  IntersectionExampleScenario.node[28].veinsmobility  posx  ETV
vector 50613  IntersectionExampleScenario.node[28].veinsmobility  posy  ETV
vector 50607  IntersectionExampleScenario.node[27].veinsmobility  speed  ETV
vector 50614  IntersectionExampleScenario.node[28].veinsmobility  speed  ETV
vector 50608  IntersectionExampleScenario.node[27].veinsmobility  acceleration  ETV
vector 50609  IntersectionExampleScenario.node[27].veinsmobility  co2emission  ETV
vector 50615  IntersectionExampleScenario.node[28].veinsmobility  acceleration  ETV
vector 50616  IntersectionExampleScenario.node[28].veinsmobility  co2emission  ETV
50490	184102 5032 1284 5839 27.25 66.25 157 0.973 11.648172402475 488.40850861431 2625.2570279354
50489	189134 4598 1284 5839 27.25 66.25 157 -3.1246948242188 2.5 38.171613693237 230.31294357239
50488	193732 4928 1261 5839 27 66.25 158 5.6500000953674 15.64999961853 2200.5340452194 31558.175668865
50487	198660 5240 1238 5839 26.75 66.25 159 238.59423828125 486.85000610352 69094.785217285 30966076.994286
50486	203900 5238 1238 5839 26.75 66.25 159 483.13290405273 785.82187652588 90964.575767517 53814508.430024
vector 50619  IntersectionExampleScenario.node[29].veinsmobility  posx  ETV
vector 50620  IntersectionExampleScenario.node[29].veinsmobility  posy  ETV
vector 50626  IntersectionExampleScenario.node[30].veinsmobility  posx  ETV
vector 50627  IntersectionExampleScenario.node[30].veinsmobility  posy  ETV
vector 50621  IntersectionExampleScenario.node[29].veinsmobility  speed  ETV
vector 50628  IntersectionExampleScenario.node[30].veinsmobility  speed  ETV
vector 50622  IntersectionExampleScenario.node[29].veinsmobility  acceleration  ETV
vector 50623  IntersectionExampleScenario.node[29].veinsmobility  co2emission  ETV
vector 50629  IntersectionExampleScenario.node[30].veinsmobility  acceleration  ETV
vector 50630  IntersectionExampleScenario.node[30].veinsmobility  co2emission  ETV
50448	209940 7158 188 6682 10.75 72.5 248 0.973 11.36141391502 607.39511853945 2826.5066079073
50447	217098 6293 188 6682 10.75 72.5 248 -30.41189956665 4 36.98334312439 1269.9391072822
50446	223391 6670 177 6682 10.5 72.5 249 0 15.25 2172.5791282654 30317.213592103
50445	230061 8134 166 6682 10.25 72.5 250 237.36993408203 483.14999389648 112463.65008545 51675893.85743
50444	238195 8166 166 6682 10.25 72.5 250 184.17810058594 483.36395263672 105766.40731812 46818321.848082
vector 50633  IntersectionExampleScenario.node[31].veinsmobility  posx  ETV
vector 50634  IntersectionExampleScenario.node[31].veinsmobility  posy  ETV
vector 50635  IntersectionExampleScenario.node[31].veinsmobility  speed  ETV
50476	246593 5926 1032 6808 24.25 73.5 198 0.973 11.54047740176 545.9532377739 2768.6220886737
50475	252519 6153 1032 6808 24.25 73.5 198 -2.1354446411133 2.5000004768372 37.15309715271 305.56958752475
50474	258672 6402 1013 6808 24 73.5 199 1.115281701088 15.5 2211.5006999969 29199.24476541
50473	265074 6599 994 6808 23.75 73.5 200 483.14999389648 483.14999389648 96629.998779297 46686783.320434
50472	271673 6570 994 6808 23.75 73.5 200 184.17810058594 732.25619506836 89757.276779175 44473459.837398
vector 50636  IntersectionExampleScenario.node[31].veinsmobility  acceleration  ETV
vector 50637  IntersectionExampleScenario.node[31].veinsmobility  co2emission  ETV
vector 50640  IntersectionExampleScenario.node[32].veinsmobility  posx  ETV
vector 50641  IntersectionExampleScenario.node[32].veinsmobility  posy  ETV
vector 50642  IntersectionExampleScenario.node[32].veinsmobility  speed  ETV
vector 50643  IntersectionExampleScenario.node[32].veinsmobility  acceleration  ETV
vector 50644  IntersectionExampleScenario.node[32].veinsmobility  co2emission  ETV
vector 50647  IntersectionExampleScenario.node[33].veinsmobility  posx  ETV
vector 50648  IntersectionExampleScenario.node[33].veinsmobility  posy  ETV
vector 50649  IntersectionExampleScenario.node[33].veinsmobility  speed  ETV
50497	279045 5981 1357 7099 28 75.75 192 0.973 11.200708441096 542.86214792336 2600.6607682705
50496	285026 6088 1357 7099 28 75.75 192 -4.4621200561523 2.5 37.32285118103 299.73384345556
50495	291114 6207 1332 7099 27.75 75.75 193 3.3396673202515 15.166205406189 2253.1203892231 29657.050754193
50494	297321 6403 1307 7099 27.5 75.75 194 483.14999389648 483.14999389648 93731.098815918 45286179.820821
50493	303724 6375 1307 7099 27.5 75.75 194 176.21716308594 734.7420501709 86051.87713623 42591974.285458
vector 50650  IntersectionExampleScenario.node[33].veinsmobility  acceleration  ETV
vector 50651  IntersectionExampleScenario.node[33].veinsmobility  co2emission  ETV
50546	310268 4659 2712 7502 41.75 79 150 0.973 11.648172402475 515.24717028761 3256.3285249983
50545	314927 4443 2712 7502 41.75 79 150 -3.6405143737793 2.5 38.341367721558 297.57134813091
50544	319370 4696 2683 7502 41.5 79 151 5.6500000953674 15.64999961853 2077.9049911499 29469.596886881
50543	324066 5009 2652 7502 41.25 79 152 483.14999389648 731.94799804688 81767.627914429 44910482.273005
50542	329075 5003 2652 7502 41.25 79 152 214.94219970703 486.86560058594 62264.093078613 26855236.220731
50518	334078 5052 2517 7589 40 79.75 160 0.973 11.54047740176 538.6544581332 2902.2657802723
50517	339130 4837 2517 7589 40 79.75 160 -4.5 2.5 40.038900375366 310.09448695101
50516	343967 5082 2494 7589 39.75 79.75 161 5.6500000953674 15.714168548584 2212.9653477669 31663.930270923
50515	349049 5347 2471 7589 39.5 79.75 162 483.14999389648 483.14999389648 78270.29901123 37816294.489552
50514	354396 5310 2471 7589 39.5 79.75 162 184.17810058594 732.35527038574 70964.180633545 35462382.928989
vector 50654  IntersectionExampleScenario.node[34].veinsmobility  posx  ETV
vector 50655  IntersectionExampleScenario.node[34].veinsmobility  posy  ETV
vector 50656  IntersectionExampleScenario.node[34].veinsmobility  speed  ETV
vector 50657  IntersectionExampleScenario.node[34].veinsmobility  acceleration  ETV
vector 50658  IntersectionExampleScenario.node[34].veinsmobility  co2emission  ETV
50462	360107 8333 270 8120 12.25 84.5 290 0.973 11.20525818593 661.00542241361 2817.7321167001
50461	368440 7698 270 8120 12.25 84.5 290 -29.165330886841 4 35.455564498901 1255.8952977433
50460	376138 8133 255 8120 12 84.5 291 0 15.031377792358 2275.7952194214 28628.390779402
50459	384271 9565 240 8120 11.75 84.5 292 161.06732177734 483.43670654297 121739.14489746 53456427.091703
50458	393836 9581 240 8120 11.75 84.5 292 486.85000610352 734.43635559082 150820.8366394 79070086.112107
50483	403417 7229 1112 8147 25.25 84.75 239 0.973 11.648172402475 624.26815459478 3266.0788474967
50482	410646 7485 1112 8147 25.25 84.75 239 -4.5 2.5 38.341367721558 429.53818566806
50481	418131 7510 1091 8147 25 84.75 240 0 15.64999961853 2212.0946513694 30612.137048863
50480	425641 7912 1070 8147 24.75 84.75 241 184.17810058594 732.42077636719 109233.86526489 53650770.681556
50479	433553 7954 1070 8147 24.75 84.75 241 486.85000610352 486.85000610352 117330.85147095 57122525.754761
50532	441507 5803 2623 8302 41 86.25 182 0.973 11.200708441096 537.72321954368 2536.5582710559
50531	447310 5559 2623 8302 41 86.25 182 -22.884292602539 4 35.964826583862 876.37918198312
50530	452869 5952 2594 8302 40.75 86.25 183 0 15.02499961853 2201.0889892429 29991.70360403
50529	458821 6060 2567 8302 40.5 86.25 184 483.14999389648 785.82187652588 103696.58022308 60347988.411738
50528	464881 6035 2567 8302 40.5 86.25 184 483.14999389648 734.02937316895 97715.15687561 52941376.877875
vector 50661  IntersectionExampleScenario.node[35].veinsmobility  posx  ETV
vector 50662  IntersectionExampleScenario.node[35].veinsmobility  posy  ETV
vector 50663  IntersectionExampleScenario.node[35].veinsmobility  speed  ETV
vector 50664  IntersectionExampleScenario.node[35].veinsmobility  acceleration  ETV
vector 50665  IntersectionExampleScenario.node[35].veinsmobility  co2emission  ETV
vector 50668  IntersectionExampleScenario.node[36].veinsmobility  posx  ETV
vector 50669  IntersectionExampleScenario.node[36].veinsmobility  posy  ETV
vector 50670  IntersectionExampleScenario.node[36].veinsmobility  speed  ETV
vector 50671  IntersectionExampleScenario.node[36].veinsmobility  acceleration  ETV
vector 50672  IntersectionExampleScenario.node[36].veinsmobility  co2emission  ETV
50511	471718 6041 2334 8463 38 87.75 200 0.973 11.200708441096 538.94111361415 2628.8721325729
50510	477759 6144 2334 8463 38 87.75 200 -2.0564651489258 2.5 36.134572982788 289.93729597618
50509	483903 6382 2311 8463 37.75 87.75 201 1.7860722541809 15.02499961853 2214.1099354029 28456.562788918
50508	490285 6642 2288 8463 37.5 87.75 202 184.17810058594 486.85000610352 82198.589691162 35332413.237306
50507	496927 6652 2288 8463 37.5 87.75 202 235.68225097656 486.85000610352 89562.057373047 40799532.081416
50574	503579 4836 4007 8703 52.75 90 150 0.973 12.099024792222 486.80309094712 2748.466476769
50573	508415 4551 4007 8703 52.75 90 150 -3.3090553283691 2.5 40.717908859253 211.49451402828
50572	512966 4742 3974 8703 52.5 90 151 5.6500000953674 16.27499961853 2221.5656461716 33460.295721214
50571	517708 5003 3941 8703 52.25 90 152 235.74285888672 785.82187652588 79301.221336365 45421942.857823
50570	522711 5016 3941 8703 52.25 90 152 483.14999389648 483.14999389648 73438.799072266 35481955.32353
vector 50675  IntersectionExampleScenario.node[37].veinsmobility  posx  ETV
vector 50676  IntersectionExampleScenario.node[37].veinsmobility  posy  ETV
vector 50677  IntersectionExampleScenario.node[37].veinsmobility  speed  ETV
50560	527959 5148 3663 8805 50 91 165 0.97223939240464 11.648172402475 560.75261234639 3371.409018365
50559	533107 4540 3663 8805 50 91 165 -3.2236309051514 2.5 38.680875778198 346.18232860963
50558	537647 5154 3632 8805 49.75 91 166 5.6500000953674 15.64999961853 2191.6765751839 30312.108866621
50557	542801 5490 3601 8805 49.5 91 167 184.17810058594 483.14999389648 66449.124145508 28186186.58144
50556	548291 5502 3601 8805 49.5 91 167 486.85000610352 735.09368896484 89582.413818359 49008145.233203
vector 50678  IntersectionExampleScenario.node[37].veinsmobility  acceleration  ETV
vector 50679  IntersectionExampleScenario.node[37].veinsmobility  co2emission  ETV
vector 50682  IntersectionExampleScenario.node[38].veinsmobility  posx  ETV
vector 50683  IntersectionExampleScenario.node[38].veinsmobility  posy  ETV
vector 50684  IntersectionExampleScenario.node[38].veinsmobility  speed  ETV
50504	554194 6749 2151 8996 36 92.75 228 0.973 11.200708441096 578.645609676 2712.2349156314
50503	560943 6102 2151 8996 36 92.75 228 -8.6476802825928 4 35.795072555542 478.27576012592
50502	567045 6508 2128 8996 35.75 92.75 229 0 15.02499961853 2203.4841990471 30168.2151068
50501	573553 7591 2105 8996 35.5 92.75 230 486.85000610352 486.85000610352 111975.50140381 54515273.541888
50500	581144 7581 2105 8996 35.5 92.75 230 238.29931640625 785.82187652588 118322.29135895 65129350.148313
vector 50685  IntersectionExampleScenario.node[38].veinsmobility  acceleration  ETV
vector 50686  IntersectionExampleScenario.node[38].veinsmobility  co2emission  ETV
50539	588894 6487 2652 9141 41.25 94 212 0.973 12.08082090906 608.55947962957 3089.3256803211
50538	595381 6868 2652 9141 41.25 94 212 -4.2212142944336 2.5 41.89951133728 399.55592927732
50537	602249 6890 2623 9141 41 94 213 0 16.249877929688 2209.6508434806 31039.116770009
50536	609139 7061 2594 9141 40.75 94 214 486.85000610352 486.85000610352 104185.90130615 50722906.6868
50535	616200 7045 2594 9141 40.75 94 214 238.21716308594 785.82187652588 110808.31111908 61472646.922526
vector 50689  IntersectionExampleScenario.node[39].veinsmobility  posx  ETV
vector 50690  IntersectionExampleScenario.node[39].veinsmobility  posy  ETV
vector 50691  IntersectionExampleScenario.node[39].veinsmobility  speed  ETV
vector 50696  IntersectionExampleScenario.node[40].veinsmobility  posx  ETV
vector 50697  IntersectionExampleScenario.node[40].veinsmobility  posy  ETV
vector 50692  IntersectionExampleScenario.node[39].veinsmobility  acceleration  ETV
vector 50693  IntersectionExampleScenario.node[39].veinsmobility  co2emission  ETV
vector 50698  IntersectionExampleScenario.node[40].veinsmobility  speed  ETV
vector 50699  IntersectionExampleScenario.node[40].veinsmobility  acceleration  ETV
vector 50700  IntersectionExampleScenario.node[40].veinsmobility  co2emission  ETV
vector 50703  IntersectionExampleScenario.node[41].veinsmobility  posx  ETV
vector 50704  IntersectionExampleScenario.node[41].veinsmobility  posy  ETV
vector 50705  IntersectionExampleScenario.node[41].veinsmobility  speed  ETV
vector 50706  IntersectionExampleScenario.node[41].veinsmobility  acceleration  ETV
vector 50707  IntersectionExampleScenario.node[41].veinsmobility  co2emission  ETV
50553	624448 6492 2905 9541 43.5 97 215 0.973 11.648172402475 580.18797727007 2922.1625471448
50552	630940 6638 2905 9541 43.5 97 215 -4.5 2.5 38.171613693237 367.9824225893
50551	637578 6848 2876 9541 43.25 97 216 0 15.64999961853 2272.0588659346 30005.333884319
50550	644426 7155 2847 9541 43 97 217 237.72564697266 486.85000610352 97271.592254639 44668986.558658
50549	651581 7147 2847 9541 43 97 217 483.14999389648 802.70781707764 122665.88026428 71512651.846775
vector 50710  IntersectionExampleScenario.node[42].veinsmobility  posx  ETV
vector 50711  IntersectionExampleScenario.node[42].veinsmobility  posy  ETV
vector 50712  IntersectionExampleScenario.node[42].veinsmobility  speed  ETV
vector 50717  IntersectionExampleScenario.node[43].veinsmobility  posx  ETV
vector 50718  IntersectionExampleScenario.node[43].veinsmobility  posy  ETV
vector 50713  IntersectionExampleScenario.node[42].veinsmobility  acceleration  ETV
vector 50714  IntersectionExampleScenario.node[42].veinsmobility  co2emission  ETV
vector 50719  IntersectionExampleScenario.node[43].veinsmobility  speed  ETV
50567	659361 5784 3755 9798 50.75 99 194 0.973 11.810082123732 559.28284186231 3094.9846174752
50566	665145 5997 3755 9798 50.75 99 194 -5.1221923828125 2.5000019073486 38.850629806519 370.14946966494
50565	671142 6097 3724 9798 50.5 99 195 3.4519312381744 15.875 2178.0925338268 28069.444589495
50564	677239 6456 3693 9798 50.25 99 196 486.85000610352 731.72309875488 103448.75747681 55577588.871903
50563	683695 6459 3693 9798 50.25 99 196 486.84197998047 785.82187652588 111267.57674408 64940956.263429
vector 50720  IntersectionExampleScenario.node[43].veinsmobility  acceleration  ETV
vector 50721  IntersectionExampleScenario.node[43].veinsmobility  co2emission  ETV
vector 50724  IntersectionExampleScenario.node[44].veinsmobility  posx  ETV
vector 50725  IntersectionExampleScenario.node[44].veinsmobility  posy  ETV
vector 50726  IntersectionExampleScenario.node[44].veinsmobility  speed  ETV
vector 50727  IntersectionExampleScenario.node[44].veinsmobility  acceleration  ETV
vector 50728  IntersectionExampleScenario.node[44].veinsmobility  co2emission  ETV
50525	690724 7305 2567 10311 40.5 102.75 250 0.973 11.90022389248 670.60259654608 3369.9335864953
50524	698029 6834 2567 10311 40.5 102.75 250 -7.6174173355103 4 41.057416915894 599.2995061831
50523	704863 6991 2542 10311 40.25 102.75 251 0 16.044178009033 2314.5075414181 33018.610955231
50522	711854 8337 2517 10311 40 102.75 252 483.14999389648 483.14999389648 121753.79846191 58825346.983747
50521	720191 8316 2517 10311 40 102.75 252 160.43438720703 734.86402893066 111675.60740662 54486910.586587
50581	728507 5662 4530 10346 56.75 103 186 0.973 10.916047529558 491.66329475774 2403.6603426922
50580	734169 5762 4530 10346 56.75 103 186 -3.8077983856201 2.5 34.097539901733 247.31089638558
50579	739931 5894 4497 10346 56.5 103 187 5.1268796920776 14.625 2185.5876655579 27282.837822597
50578	745825 6213 4464 10346 56.25 103 188 486.85000610352 733.5302734375 100312.2166748 54557327.622496
50577	752038 6218 4464 10346 56.25 103 188 486.85000610352 785.82187652588 107029.05947876 62767436.621351
vector 50731  IntersectionExampleScenario.node[45].veinsmobility  posx  ETV
vector 50732  IntersectionExampleScenario.node[45].veinsmobility  posy  ETV
vector 50733  IntersectionExampleScenario.node[45].veinsmobility  speed  ETV
vector 50734  IntersectionExampleScenario.node[45].veinsmobility  acceleration  ETV
vector 50735  IntersectionExampleScenario.node[45].veinsmobility  co2emission  ETV
vector 50738  IntersectionExampleScenario.node[46].veinsmobility  posx  ETV
vector 50739  IntersectionExampleScenario.node[46].veinsmobility  posy  ETV
vector 50740  IntersectionExampleScenario.node[46].veinsmobility  speed  ETV
vector 50741  IntersectionExampleScenario.node[46].veinsmobility  acceleration  ETV
vector 50742  IntersectionExampleScenario.node[46].veinsmobility  co2emission  ETV
50602	759058 5587 5106 10763 61 105.75 180 0.973 11.54047740176 525.73153034177 2688.3071073011
50601	764645 5679 5106 10763 61 105.75 180 -2.1354446411133 2.5 37.15309715271 264.57601033189
50600	770324 5867 5071 10763 60.75 105.75 181 3.910192489624 15.5 2218.3831448555 29552.542037665
50599	776191 6052 5036 10763 60.5 105.75 182 483.14999389648 483.14999389648 87933.29888916 42484972.821595
50598	782243 6017 5036 10763 60.5 105.75 182 184.17810058594 733.79725646973 81585.810775757 40795764.754088
50588	788260 6610 4600 11760 57.25 112.75 223 0.973 12.099024792222 609.54757379842 3248.17084663
50587	794870 6190 4600 11760 57.25 112.75 223 -7.8776445388794 4 40.038900375366 513.03881719338
50586	801060 6378 4565 11760 57 112.75 224 0 16.27499961853 2205.5864975452 32071.414867027
50585	807438 7501 4530 11760 56.75 112.75 225 238.29949951172 785.82187652588 115869.51834869 63721902.364225
50584	814939 7527 4530 11760 56.75 112.75 225 483.14999389648 483.14999389648 108708.74862671 52522631.235489
50630	822466 5724 6118 11856 68.25 113.5 182 0.973 11.450879080643 544.55651400375 2861.7994890052
50629	828190 5652 6118 11856 68.25 113.5 182 -6.7370748519897 4 36.98334312439 461.36958725607
50628	833842 5715 6081 11856 68 113.5 183 0 15.375 2209.3575644493 30719.326204454
50627	839557 6139 6044 11856 67.75 113.5 184 184.17810058594 732.67367553711 83108.958480835 41745887.282334
50626	845696 6179 6044 11856 67.75 113.5 184 486.85000610352 486.85000610352 89580.401123047 43612218.833511
50616	851875 6107 5558 11980 64.25 114.5 202 0.973 12.099024792222 566.93842887875 3119.1416861141
50615	857982 6378 5558 11980 64.25 114.5 202 -3.8773241043091 2.5000000596046 40.038900375366 353.8800151843
50614	864360 6487 5521 11980 64 114.5 203 0 16.27499961853 2179.4625089429 29517.269619086
50613	870847 6823 5484 11980 63.75 114.5 204 486.85000610352 785.82187652588 114309.2720108 65886980.07888
50612	877670 6837 5484 11980 63.75 114.5 204 238.02496337891 483.14999389648 90653.16418457 41264084.113646
vector 50745  IntersectionExampleScenario.node[47].veinsmobility  posx  ETV
vector 50746  IntersectionExampleScenario.node[47].veinsmobility  posy  ETV
vector 50747  IntersectionExampleScenario.node[47].veinsmobility  speed  ETV
vector 50748  IntersectionExampleScenario.node[47].veinsmobility  acceleration  ETV
vector 50749  IntersectionExampleScenario.node[47].veinsmobility  co2emission  ETV
vector 50752  IntersectionExampleScenario.node[48].veinsmobility  posx  ETV
vector 50753  IntersectionExampleScenario.node[48].veinsmobility  posy  ETV
vector 50754  IntersectionExampleScenario.node[48].veinsmobility  speed  ETV
vector 50759  IntersectionExampleScenario.node[49].veinsmobility  posx  ETV
vector 50760  IntersectionExampleScenario.node[49].veinsmobility  posy  ETV
vector 50755  IntersectionExampleScenario.node[48].veinsmobility  acceleration  ETV
vector 50756  IntersectionExampleScenario.node[48].veinsmobility  co2emission  ETV
vector 50761  IntersectionExampleScenario.node[49].veinsmobility  speed  ETV
vector 50762  IntersectionExampleScenario.node[49].veinsmobility  acceleration  ETV
vector 50763  IntersectionExampleScenario.node[49].veinsmobility  co2emission  ETV
50595	885710 7341 4902 12967 59.5 122.5 253 0.94600815583079 12.353032912318 650.53216839406 3220.3441272101
50594	893051 7057 4902 12967 59.5 122.5 253 -6.9289598464966 4 41.566686630249 494.8690698069
50593	900108 7249 4867 12967 59.25 122.5 254 0 16.625 2270.7907583714 31420.37359983
50592	907357 8593 4832 12967 59 122.5 255 486.85000610352 486.85000610352 124146.7515564 60440846.752963
50591	915950 8573 4832 12967 59 122.5 255 236.96490478516 800.04531860352 132973.03859711 73770100.03271
vector 50766  IntersectionExampleScenario.node[50].veinsmobility  posx  ETV
vector 50767  IntersectionExampleScenario.node[50].veinsmobility  posy  ETV
vector 50773  IntersectionExampleScenario.node[51].veinsmobility  posx  ETV
vector 50774  IntersectionExampleScenario.node[51].veinsmobility  posy  ETV
vector 50768  IntersectionExampleScenario.node[50].veinsmobility  speed  ETV
vector 50769  IntersectionExampleScenario.node[50].veinsmobility  acceleration  ETV
vector 50770  IntersectionExampleScenario.node[50].veinsmobility  co2emission  ETV
vector 50775  IntersectionExampleScenario.node[51].veinsmobility  speed  ETV
vector 50776  IntersectionExampleScenario.node[51].veinsmobility  acceleration  ETV
vector 50777  IntersectionExampleScenario.node[51].veinsmobility  co2emission  ETV
50609	925325 7685 5558 13334 64.25 125.5 246 0.973 11.200708441096 589.57834617191 2685.7042959281
50608	933010 7574 5558 13334 64.25 125.5 246 -4.5 2.5 35.455564498901 385.894716985
50607	940584 7724 5521 13334 64 125.5 247 0 15.02499961853 2219.5274333572 29178.623288755
50606	948308 8375 5484 13334 63.75 125.5 248 486.85000610352 734.44892883301 129396.0919342 68638038.009097
50605	956683 8375 5484 13334 63.75 125.5 248 486.85000610352 793.69333648682 137291.08122253 78165401.829315
vector 50780  IntersectionExampleScenario.node[52].veinsmobility  posx  ETV
vector 50781  IntersectionExampleScenario.node[52].veinsmobility  posy  ETV
vector 50787  IntersectionExampleScenario.node[53].veinsmobility  posx  ETV
vector 50788  IntersectionExampleScenario.node[53].veinsmobility  posy  ETV
vector 50794  IntersectionExampleScenario.node[54].veinsmobility  posx  ETV
vector 50795  IntersectionExampleScenario.node[54].veinsmobility  posy  ETV
vector 50782  IntersectionExampleScenario.node[52].veinsmobility  speed  ETV
vector 50789  IntersectionExampleScenario.node[53].veinsmobility  speed  ETV
vector 50796  IntersectionExampleScenario.node[54].veinsmobility  speed  ETV
vector 50783  IntersectionExampleScenario.node[52].veinsmobility  acceleration  ETV
vector 50784  IntersectionExampleScenario.node[52].veinsmobility  co2emission  ETV
vector 50790  IntersectionExampleScenario.node[53].veinsmobility  acceleration  ETV
vector 50791  IntersectionExampleScenario.node[53].veinsmobility  co2emission  ETV
vector 50797  IntersectionExampleScenario.node[54].veinsmobility  acceleration  ETV
vector 50798  IntersectionExampleScenario.node[54].veinsmobility  co2emission  ETV
50623	966261 7578 6118 13660 68.25 127.75 239 0.973 11.200708441096 594.68161357785 2700.6360005655
50622	973839 7733 6118 13660 68.25 127.75 239 -3.6613321304321 2.5000004768372 37.15309715271 348.23682951474
50621	981572 7769 6081 13660 68 127.75 240 0 15.02499961853 2228.0350434482 29376.583662236
50620	989341 8166 6044 13660 67.75 127.75 241 486.85000610352 733.98887634277 125737.74436951 66688399.859691
50619	997507 8143 6044 13660 67.75 127.75 241 486.70016479492 795.95761871338 134363.0295105 77026267.064963
vector 50801  IntersectionExampleScenario.node[55].veinsmobility  posx  ETV
vector 50802  IntersectionExampleScenario.node[55].veinsmobility  posy  ETV
vector 50808  IntersectionExampleScenario.node[56].veinsmobility  posx  ETV
vector 50809  IntersectionExampleScenario.node[56].veinsmobility  posy  ETV
vector 50803  IntersectionExampleScenario.node[55].veinsmobility  speed  ETV
vector 50810  IntersectionExampleScenario.node[56].veinsmobility  speed  ETV
vector 50804  IntersectionExampleScenario.node[55].veinsmobility  acceleration  ETV
vector 50805  IntersectionExampleScenario.node[55].veinsmobility  co2emission  ETV
vector 50811  IntersectionExampleScenario.node[56].veinsmobility  acceleration  ETV
vector 50812  IntersectionExampleScenario.node[56].veinsmobility  co2emission  ETV
50644	1006452 6894 6973 14004 74.75 130.25 223 0.973 11.200708441096 560.82944596272 2619.6961284767
50643	1013346 7159 6973 14004 74.75 130.25 223 -3.9547138214111 2.5 36.134572982788 322.00411805559
50642	1020505 7317 6941 14004 74.5 130.25 224 0 15.02499961853 2183.3196317181 27111.29394306
50641	1027822 7662 6907 14004 74.25 130.25 225 486.85000610352 732.9838104248 118004.67826843 62957041.67579
50640	1035484 7645 6907 14004 74.25 130.25 225 486.85000610352 785.82187652588 126402.88805389 72881623.334693
50658	1043129 6250 7845 14214 82 131.75 200 0.973 11.36141391502 557.33290219353 2798.9666899007
50657	1049379 6411 7845 14214 82 131.75 200 -2.9877700805664 2.5 39.869146347046 315.80265625715
50656	1055790 6571 7816 14214 81.75 131.75 201 1.193473815918 15.664785385132 2187.3221749067 28726.220376821
50655	1062361 6912 7787 14214 81.5 131.75 202 486.85000610352 733.73524475098 106382.53355408 57023770.683671
50654	1069273 6904 7787 14214 81.5 131.75 202 486.85000610352 785.82187652588 114170.95371246 66320684.719913
vector 50815  IntersectionExampleScenario.node[57].veinsmobility  posx  ETV
vector 50816  IntersectionExampleScenario.node[57].veinsmobility  posy  ETV
vector 50822  IntersectionExampleScenario.node[58].veinsmobility  posx  ETV
vector 50823  IntersectionExampleScenario.node[58].veinsmobility  posy  ETV
vector 50817  IntersectionExampleScenario.node[57].veinsmobility  speed  ETV
vector 50824  IntersectionExampleScenario.node[58].veinsmobility  speed  ETV
vector 50818  IntersectionExampleScenario.node[57].veinsmobility  acceleration  ETV
vector 50819  IntersectionExampleScenario.node[57].veinsmobility  co2emission  ETV
vector 50825  IntersectionExampleScenario.node[58].veinsmobility  acceleration  ETV
vector 50826  IntersectionExampleScenario.node[58].veinsmobility  co2emission  ETV
vector 50829  IntersectionExampleScenario.node[59].veinsmobility  posx  ETV
vector 50830  IntersectionExampleScenario.node[59].veinsmobility  posy  ETV
50637	1077133 7393 6841 14609 73.75 134.5 244 0.973 11.36141391502 605.66926042801 2831.5533110282
50636	1084526 6452 6841 14609 73.75 134.5 244 -14.659893035889 4 37.32285118103 642.98441086756
50635	1090978 6951 6808 14609 73.5 134.5 245 0 15.25 2181.0222072601 30446.683854485
50634	1097929 8329 6775 14609 73.25 134.5 246 236.31317138672 483.14999389648 110504.07104492 50726068.126644
50633	1106258 8363 6775 14609 73.25 134.5 246 184.17810058594 483.36395263672 103914.66693115 45954835.216597
vector 50831  IntersectionExampleScenario.node[59].veinsmobility  speed  ETV
vector 50832  IntersectionExampleScenario.node[59].veinsmobility  acceleration  ETV
vector 50833  IntersectionExampleScenario.node[59].veinsmobility  co2emission  ETV
50651	1114868 7629 7132 14683 76 135 237 0.973 11.90022389248 640.8453507051 3115.8976334956
50650	1122497 7485 7132 14683 76 135 237 -4.5 2.5 41.227170944214 463.84658143276
50649	1129982 7592 7099 14683 75.75 135 238 0 16.001188278198 2275.3290107837 32898.786010642
50648	1137574 8146 7066 14683 75.5 135 239 483.14999389648 732.98558044434 123512.47209167 64895724.698773
50647	1145720 8140 7066 14683 75.5 135 239 167.29217529297 486.86560058594 99232.749572754 43491828.615681
vector 50836  IntersectionExampleScenario.node[60].veinsmobility  posx  ETV
vector 50837  IntersectionExampleScenario.node[60].veinsmobility  posy  ETV
vector 50838  IntersectionExampleScenario.node[60].veinsmobility  speed  ETV
vector 50839  IntersectionExampleScenario.node[60].veinsmobility  acceleration  ETV
vector 50840  IntersectionExampleScenario.node[60].veinsmobility  co2emission  ETV
vector 50843  IntersectionExampleScenario.node[61].veinsmobility  posx  ETV
vector 50844  IntersectionExampleScenario.node[61].veinsmobility  posy  ETV
50665	1154415 6515 8381 15222 87 138.75 208 0.973 11.36141391502 555.85445567837 2773.0857333703
50664	1160930 6771 8381 15222 87 138.75 208 -3.420699596405 2.5000009536743 36.98334312439 336.45000653069
50663	1167701 6885 8354 15222 86.75 138.75 209 0 15.25 2183.2213319838 28091.255971749
50662	1174586 7240 8327 15222 86.5 138.75 210 237.33258056641 483.14999389648 93136.969329834 42338508.013064
50661	1181826 7197 8327 15222 86.5 138.75 210 184.17810058594 483.14999389648 85663.227294922 36799921.410794
vector 50845  IntersectionExampleScenario.node[61].veinsmobility  speed  ETV
vector 50846  IntersectionExampleScenario.node[61].veinsmobility  acceleration  ETV
vector 50847  IntersectionExampleScenario.node[61].veinsmobility  co2emission  ETV
50700	1189270 5957 9298 15581 95.25 141.25 185 0.973 11.648172402475 546.3310837637 2953.1586785717
50699	1195227 5763 9298 15581 95.25 141.25 185 -3.7649421691895 2.5 38.171613693237 311.29613369518
50698	1200990 6145 9265 15581 95 141.25 186 5.1600246429443 15.64999961853 2186.7948961258 28234.630802332
50697	1207135 6492 9232 15581 94.75 141.25 187 236.19836425781 483.14999389648 82088.918243408 37024868.855447
50696	1213627 6476 9232 15581 94.75 141.25 187 184.17810058594 483.30459594727 74953.430297852 31821487.534268
50735	1220103 5397 10455 15852 103.75 143.25 159 0.973 11.648172402475 540.02364318584 3002.2822802161
50734	1225500 5061 10455 15852 103.75 143.25 159 -3.4481868743896 2.5 39.699392318726 339.77029036667
50733	1230561 5573 10418 15852 103.5 143.25 160 5.1236534118652 16.044267654419 2218.9131221771 32222.226133255
50732	1236134 5624 10381 15852 103.25 143.25 161 235.58428955078 785.82187652588 83832.501533508 47757112.184695
50731	1241758 5636 10381 15852 103.25 143.25 161 483.14999389648 483.14999389648 77787.149017334 37582860.57295
vector 50850  IntersectionExampleScenario.node[62].veinsmobility  posx  ETV
vector 50851  IntersectionExampleScenario.node[62].veinsmobility  posy  ETV
vector 50852  IntersectionExampleScenario.node[62].veinsmobility  speed  ETV
vector 50853  IntersectionExampleScenario.node[62].veinsmobility  acceleration  ETV
vector 50854  IntersectionExampleScenario.node[62].veinsmobility  co2emission  ETV
50672	1247795 7078 8463 16022 87.75 144.5 228 0.973 11.450879080643 589.85145311784 2831.0428125374
50671	1254873 6391 8463 16022 87.75 144.5 228 -7.4570107460022 4 37.32285118103 469.21634536335
50670	1261264 6795 8436 16022 87.5 144.5 229 0 15.375 2201.4408265352 30673.297377823
50669	1268059 7917 8408 16022 87.25 144.5 230 184.17810058594 486.85000610352 96590.602966309 42612621.711731
50668	1275976 7940 8408 16022 87.25 144.5 230 236.78112792969 486.85000610352 103434.50750732 47622980.40398
50679	1283916 7108 8832 16154 91.25 145.5 218 0.973 11.54047740176 577.08606130459 2812.143954774
50678	1291024 7137 8832 16154 91.25 145.5 218 -4.5 2.5000009536743 36.98334312439 399.24268369291
50677	1298161 7424 8805 16154 91 145.5 219 0 15.5 2247.6834584363 30829.108903308
50676	1305585 7589 8778 16154 90.75 145.5 220 174.53436279297 731.99899291992 98741.723846436 48735309.853628
50675	1313174 7623 8778 16154 90.75 145.5 220 486.85000610352 486.85000610352 107107.00134277 52145044.257458
vector 50857  IntersectionExampleScenario.node[63].veinsmobility  posx  ETV
vector 50858  IntersectionExampleScenario.node[63].veinsmobility  posy  ETV
vector 50859  IntersectionExampleScenario.node[63].veinsmobility  speed  ETV
vector 50860  IntersectionExampleScenario.node[63].veinsmobility  acceleration  ETV
vector 50861  IntersectionExampleScenario.node[63].veinsmobility  co2emission  ETV
50707	1321198 6636 9401 16475 96 148 209 0.973 11.200708441096 561.02690428751 2771.7667862054
50706	1327834 6934 9401 16475 96 148 209 -3.790219783783 2.5000019073486 36.98334312439 336.26278672046
50705	1334768 7139 9366 16475 95.75 148 210 0 15.435655593872 2234.9191978201 29160.111307436
50704	1341907 7324 9331 16475 95.5 148 211 178.74395751953 732.75538635254 94064.591445923 46272205.479301
50703	1349231 7345 9331 16475 95.5 148 211 486.85000610352 486.85000610352 102725.35128784 50011837.901471
50721	1356576 6668 9831 16730 99.25 150 204 0.973 11.200708441096 555.46672563429 2640.4287319152
50720	1363244 6727 9831 16730 99.25 150 204 -4.5 2.5000009536743 37.32285118103 323.18530823271
50719	1369971 6991 9798 16730 99 150 205 2.763697385788 15.085893630981 2271.2568278313 29616.379987485
50718	1376962 7184 9765 16730 98.75 150 206 170.21258544922 733.09211730957 90581.23210144 44356656.522066
50717	1384146 7196 9765 16730 98.75 150 206 486.85000610352 486.85000610352 100291.10125732 48826723.259256
50742	1391342 6139 10607 17009 104.75 152.25 191 0.973 11.200708441096 525.31600865289 2575.2548294701
50741	1397481 6253 10607 17009 104.75 152.25 191 -4.0157661437988 2.5 37.15309715271 266.34871681887
50740	1403734 6511 10568 17009 104.5 152.25 192 3.0088629722595 15.127917289734 2222.5018751621 28820.580124762
50739	1410245 6727 10529 17009 104.25 152.25 193 184.17810058594 734.32360839844 86017.825790405 42597559.127153
50738	1416972 6756 10529 17009 104.25 152.25 193 486.85000610352 486.85000610352 93962.051177979 45745425.189498
vector 50864  IntersectionExampleScenario.node[64].veinsmobility  posx  ETV
vector 50865  IntersectionExampleScenario.node[64].veinsmobility  posy  ETV
vector 50866  IntersectionExampleScenario.node[64].veinsmobility  speed  ETV
vector 50867  IntersectionExampleScenario.node[64].veinsmobility  acceleration  ETV
vector 50868  IntersectionExampleScenario.node[64].veinsmobility  co2emission  ETV
vector 50871  IntersectionExampleScenario.node[65].veinsmobility  posx  ETV
vector 50872  IntersectionExampleScenario.node[65].veinsmobility  posy  ETV
vector 50873  IntersectionExampleScenario.node[65].veinsmobility  speed  ETV
50686	1424361 7431 9025 17289 93 154.5 247 0.973 11.648172402475 646.26374218277 3361.2415343262
50685	1431792 7010 9025 17289 93 154.5 247 -9.1870574951172 4 39.869146347046 556.74519750457
50684	1438802 7248 8996 17289 92.75 154.5 248 0 15.664845466614 2181.8008971214 29829.236607753
50683	1446050 8585 8967 17289 92.5 154.5 249 486.85000610352 733.92691040039 129278.47880554 68180452.951967
50682	1454635 8646 8967 17289 92.5 154.5 249 486.63604736328 785.82187652588 136565.44658661 76930866.762473
vector 50874  IntersectionExampleScenario.node[65].veinsmobility  acceleration  ETV
vector 50875  IntersectionExampleScenario.node[65].veinsmobility  co2emission  ETV
50693	1463450 7605 9232 17421 94.75 155.5 244 0.97223939240464 11.648172402475 622.64359009231 3014.8387383516
50692	1471055 6998 9232 17421 94.75 155.5 244 -4.5 2.5 38.680875778198 489.11201803308
50691	1478053 7305 9201 17421 94.5 155.5 245 0 15.64999961853 2284.9689650536 31610.850820622
50690	1485358 8562 9170 17421 94.25 155.5 246 486.85000610352 486.85000610352 119765.10150146 58307640.396976
50689	1493920 8545 9170 17421 94.25 155.5 246 238.13189697266 805.05782318115 128660.92490387 71881022.814615
50714	1502465 7888 9765 17817 98.75 158.5 240 0.973 11.200708441096 601.93805787155 2728.8683987403
50713	1510353 7802 9765 17817 98.75 158.5 240 -3.7258186340332 2.5 36.813589096069 364.12903930315
50712	1518155 8217 9734 17817 98.5 158.5 241 0 15.02499961853 2280.7639361601 30644.366058736
50711	1526372 8454 9702 17817 98.25 158.5 242 486.85000610352 486.85000610352 117817.70147705 57359548.683204
50710	1534826 8427 9702 17817 98.25 158.5 242 235.90087890625 801.63986206055 126623.04595947 70873775.413589
50728	1543253 7773 10066 17976 101 159.75 236 0.973 11.200708441096 640.06037731786 2970.9487914947
50727	1551026 7999 10066 17976 101 159.75 236 -4.5 2.5000009536743 41.575895309448 405.34398900841
50726	1559025 8088 10031 17976 100.75 159.75 237 0 16.163446426392 2321.5323252138 32113.316752405
50725	1567113 8330 9996 17976 100.5 159.75 238 486.85000610352 486.85000610352 115870.30145264 56411456.969432
50724	1575443 8300 9996 17976 100.5 159.75 238 235.63427734375 810.61681365967 126275.92718506 71625880.923748
vector 50878  IntersectionExampleScenario.node[66].veinsmobility  posx  ETV
vector 50879  IntersectionExampleScenario.node[66].veinsmobility  posy  ETV
vector 50880  IntersectionExampleScenario.node[66].veinsmobility  speed  ETV
vector 50881  IntersectionExampleScenario.node[66].veinsmobility  acceleration  ETV
vector 50882  IntersectionExampleScenario.node[66].veinsmobility  co2emission  ETV
50749	1584144 6089 12165 18329 116 163 189 0.97223939240464 11.810082123732 566.25592024864 3137.8242760315
50748	1590233 6166 12165 18329 116 163 189 -2.9129219055176 2.5 38.680875778198 355.63503781529
50747	1596399 6326 12134 18329 115.75 163 190 3.4214417934418 15.875 2190.9700126648 28638.954152986
50746	1602725 6679 12103 18329 115.5 163 191 486.85000610352 734.57928466797 101214.50549316 54636505.928309
50745	1609404 6678 12103 18329 115.5 163 191 486.85000610352 785.82187652588 108446.66538239 63348777.680964
50798	1616082 5179 13439 18434 126.25 164 152 0.973 12.099024792222 509.05884776958 2929.2184452151
50797	1621261 4848 13439 18434 126.25 164 152 -2.9496650695801 2.5 41.227170944214 250.77590687367
50796	1626109 5114 13402 18434 126 164 153 5.6500000953674 16.27499961853 2214.2906560898 33036.140755147
50795	1631223 5389 13365 18434 125.75 164 154 483.14999389648 483.14999389648 74405.099060059 35948823.156735
50794	1636612 5357 13365 18434 125.75 164 154 184.17810058594 732.28189086914 68885.112731934 34800610.807181
vector 50885  IntersectionExampleScenario.node[67].veinsmobility  posx  ETV
vector 50886  IntersectionExampleScenario.node[67].veinsmobility  posy  ETV
vector 50887  IntersectionExampleScenario.node[67].veinsmobility  speed  ETV
vector 50888  IntersectionExampleScenario.node[67].veinsmobility  acceleration  ETV
vector 50889  IntersectionExampleScenario.node[67].veinsmobility  co2emission  ETV
50812	1642370 5170 13934 18811 129.75 167.75 153 0.973 12.099024792222 485.02584832231 2795.6694942396
50811	1647540 5112 13934 18811 129.75 167.75 153 -3.6059112548828 2.5 40.038900375366 214.60294851003
50810	1652652 5151 13899 18811 129.5 167.75 154 5.6500000953674 16.27499961853 2251.8267993927 33665.238362884
50809	1657803 5427 13863 18811 129.25 167.75 155 483.14999389648 483.14999389648 74888.249053955 36182257.073337
50808	1663230 5388 13863 18811 129.25 167.75 155 174.53436279297 732.10609436035 68632.31187439 34631905.032209
vector 50892  IntersectionExampleScenario.node[68].veinsmobility  posx  ETV
vector 50893  IntersectionExampleScenario.node[68].veinsmobility  posy  ETV
vector 50894  IntersectionExampleScenario.node[68].veinsmobility  speed  ETV
vector 50899  IntersectionExampleScenario.node[69].veinsmobility  posx  ETV
vector 50900  IntersectionExampleScenario.node[69].veinsmobility  posy  ETV
vector 50895  IntersectionExampleScenario.node[68].veinsmobility  acceleration  ETV
vector 50896  IntersectionExampleScenario.node[68].veinsmobility  co2emission  ETV
vector 50901  IntersectionExampleScenario.node[69].veinsmobility  speed  ETV
vector 50902  IntersectionExampleScenario.node[69].veinsmobility  acceleration  ETV
vector 50903  IntersectionExampleScenario.node[69].veinsmobility  co2emission  ETV
vector 50906  IntersectionExampleScenario.node[70].veinsmobility  posx  ETV
vector 50907  IntersectionExampleScenario.node[70].veinsmobility  posy  ETV
vector 50908  IntersectionExampleScenario.node[70].veinsmobility  speed  ETV
vector 50909  IntersectionExampleScenario.node[70].veinsmobility  acceleration  ETV
vector 50910  IntersectionExampleScenario.node[70].veinsmobility  co2emission  ETV
vector 50913  IntersectionExampleScenario.node[71].veinsmobility  posx  ETV
vector 50914  IntersectionExampleScenario.node[71].veinsmobility  posy  ETV
vector 50915  IntersectionExampleScenario.node[71].veinsmobility  speed  ETV
50756	1670053 6992 12501 19490 118.75 174.75 225 0.973 12.157127968063 629.05031614557 3517.9580512347
50755	1677045 6588 12501 19490 118.75 174.75 225 -9.425407409668 4 40.887662887573 553.91929757898
50754	1683633 6748 12470 19490 118.5 174.75 226 0 16.35521697998 2215.6458249092 32548.772626754
50753	1690381 7921 12439 19490 118.25 174.75 227 184.17810058594 734.33682250977 103459.50326538 51226209.694861
50752	1698302 7947 12439 19490 118.25 174.75 227 486.85000610352 486.85000610352 110514.9513855 53804204.756559
vector 50916  IntersectionExampleScenario.node[71].veinsmobility  acceleration  ETV
vector 50917  IntersectionExampleScenario.node[71].veinsmobility  co2emission  ETV
50777	1706418 6674 13209 19608 124.5 176 207 0.973 11.990504229548 586.67119469535 2940.1470618155
50776	1713092 6441 13209 19608 124.5 176 207 -4.5 2.5 39.699392318726 465.90171294075
50775	1719533 6579 13176 19608 124.25 176 208 0 16.125 2314.5206258893 32649.492030711
50774	1726112 7285 13143 19608 124 176 209 236.41351318359 810.23281097412 110698.28688049 63388025.456936
50773	1733397 7313 13143 19608 124 176 209 483.14999389648 483.14999389648 100978.34872437 48787688.569854
50770	1740710 6725 13176 19631 124.25 176.25 209 0.973 11.00486315618 549.98922442426 2546.0579930145
50769	1747435 6156 13176 19631 124.25 176.25 209 -7.1268091201782 4 34.437047958374 445.46673179032
50768	1753591 6591 13143 19631 124 176.25 210 0 14.75 2203.0807497501 29464.737582101
50767	1760182 7375 13112 19631 123.75 176.25 211 483.14999389648 785.82187652588 117399.25253296 67341712.592246
50766	1767557 7379 13112 19631 123.75 176.25 211 483.14999389648 733.87872314453 110943.04086304 59455643.012209
50763	1774936 7239 12567 19654 119.25 176.5 230 0.973 12.410227357415 641.42370021313 3389.6593764823
50762	1782175 6820 12567 19654 119.25 176.5 230 -11.042602539062 2.5000004768372 42.245687484741 593.82968025954
50761	1788995 7135 12534 19654 119 176.5 231 -0.49375915527344 16.703596115112 2304.6819282919 34175.022425563
50760	1796130 8083 12501 19654 118.75 176.5 232 160.43438720703 731.61419677734 103120.63430786 50396842.267922
50759	1804213 8120 12501 19654 118.75 176.5 232 486.85000610352 486.85000610352 112949.20141602 54989319.398774
vector 50920  IntersectionExampleScenario.node[72].veinsmobility  posx  ETV
vector 50921  IntersectionExampleScenario.node[72].veinsmobility  posy  ETV
vector 50922  IntersectionExampleScenario.node[72].veinsmobility  speed  ETV
vector 50923  IntersectionExampleScenario.node[72].veinsmobility  acceleration  ETV
vector 50924  IntersectionExampleScenario.node[72].veinsmobility  co2emission  ETV
vector 50927  IntersectionExampleScenario.node[73].veinsmobility  posx  ETV
vector 50928  IntersectionExampleScenario.node[73].veinsmobility  posy  ETV
vector 50929  IntersectionExampleScenario.node[73].veinsmobility  speed  ETV
50791	1812966 6923 13439 19975 126.25 180 216 0.973 11.200708441096 553.1345409936 2608.2477473654
50790	1819889 7296 13439 19975 126.25 180 216 -3.9923930168152 2.5 35.964826583862 305.94332307914
50789	1827185 7451 13402 19975 126 180 217 0 15.02499961853 2212.0015083216 28567.659819656
50788	1834636 7577 13365 19975 125.75 180 218 184.17810058594 732.52308654785 97972.084411621 48289527.454821
50787	1842213 7629 13365 19975 125.75 180 218 486.85000610352 486.85000610352 106133.30133057 51670998.400572
vector 50930  IntersectionExampleScenario.node[73].veinsmobility  acceleration  ETV
vector 50931  IntersectionExampleScenario.node[73].veinsmobility  co2emission  ETV
50826	1850011 6430 14355 20202 132.75 182.5 200 0.973 11.200708441096 551.52537868985 2728.2180451501
50825	1856441 6411 14355 20202 132.75 182.5 200 -2.6679153442383 2.5 37.32285118103 323.59941354598
50824	1862852 6733 14318 20202 132.5 182.5 201 2.925199508667 15.02499961853 2184.815612793 27553.582863935
50823	1869585 7043 14281 20202 132.25 182.5 202 184.17810058594 483.14999389648 81540.345397949 34727968.860841
50822	1876628 7058 14281 20202 132.25 182.5 202 486.85000610352 733.33033752441 106676.12896729 57357174.088385
50854	1883686 5435 15988 20328 144.25 184 160 0.973 11.648172402475 506.62173068736 2743.0137753722
50853	1889121 4903 15988 20328 144.25 184 160 -3.47731590271 2.5 38.341367721558 280.06653551157
50852	1894024 5314 15953 20328 144 184 161 5.6500000953674 15.64999961853 2188.2595562935 31102.263563451
50851	1899338 5664 15918 20328 143.75 184 162 486.81842041016 785.82187652588 92685.972343445 54775674.841421
50850	1905002 5657 15918 20328 143.75 184 162 235.80718994141 483.14999389648 70006.694580078 31188390.897222
50784	1910659 7416 13439 20496 126.25 186 240 0.973 11.200708441096 617.98227277403 3136.0574996482
50783	1918075 6929 13439 20496 126.25 186 240 -8.3105335235596 4 35.625318527222 568.42406232991
50782	1925004 7189 13402 20496 126 186 241 0 15.105514526367 2206.7316675186 30151.996340178
50781	1932193 8467 13365 20496 125.75 186 242 235.62408447266 486.85000610352 108956.47473145 50216292.620557
50780	1940660 8455 13365 20496 125.75 186 242 483.14999389648 785.82187652588 132683.58527374 74845322.316469
50805	1949115 7543 13934 20496 129.75 186 226 0.973 11.54047740176 617.66589118492 2962.9739987973
50804	1956658 7555 13934 20496 129.75 186 226 -4.5 2.5000002384186 40.038900375366 446.36873191256
50803	1964213 7789 13899 20496 129.5 186 227 0 15.720156669617 2258.4131173687 32337.310624077
50802	1972002 7980 13863 20496 129.25 186 228 486.85000610352 486.85000610352 111001.8013916 54041227.685002
50801	1979982 7966 13863 20496 129.25 186 228 235.75469970703 795.46562957764 118586.58797455 66004055.281614
vector 50934  IntersectionExampleScenario.node[74].veinsmobility  posx  ETV
vector 50935  IntersectionExampleScenario.node[74].veinsmobility  posy  ETV
vector 50936  IntersectionExampleScenario.node[74].veinsmobility  speed  ETV
vector 50937  IntersectionExampleScenario.node[74].veinsmobility  acceleration  ETV
vector 50938  IntersectionExampleScenario.node[74].veinsmobility  co2emission  ETV
vector 50941  IntersectionExampleScenario.node[75].veinsmobility  posx  ETV
vector 50942  IntersectionExampleScenario.node[75].veinsmobility  posy  ETV
vector 50943  IntersectionExampleScenario.node[75].veinsmobility  speed  ETV
vector 50944  IntersectionExampleScenario.node[75].veinsmobility  acceleration  ETV
vector 50945  IntersectionExampleScenario.node[75].veinsmobility  co2emission  ETV
50833	1988750 6969 14683 20741 135 188.75 216 0.973 11.648172402475 571.23986829415 2895.4583175659
50832	1995719 7238 14683 20741 135 188.75 216 -3.8696312904358 2.5000019073486 38.341367721558 359.80354075745
50831	2002957 7402 14646 20741 134.75 188.75 217 0 15.64999961853 2121.6672042832 28193.008484374
50830	2010359 7631 14609 20741 134.5 188.75 218 486.85000610352 486.85000610352 106133.30133057 51670998.400572
50829	2017990 7587 14609 20741 134.5 188.75 218 235.52044677734 761.50626373291 111686.07518768 60888879.896447
vector 50948  IntersectionExampleScenario.node[76].veinsmobility  posx  ETV
vector 50949  IntersectionExampleScenario.node[76].veinsmobility  posy  ETV
vector 50950  IntersectionExampleScenario.node[76].veinsmobility  speed  ETV
vector 50951  IntersectionExampleScenario.node[76].veinsmobility  acceleration  ETV
vector 50952  IntersectionExampleScenario.node[76].veinsmobility  co2emission  ETV
50819	2025978 7806 14355 21013 132.75 191.5 236 0.973 11.810082123732 655.47681572275 3320.6522577962
50818	2033784 7738 14355 21013 132.75 191.5 236 -4.5 2.5 39.869146347046 572.36142215916
50817	2041522 7968 14318 21013 132.5 191.5 237 0 15.875 2263.3024341464 29345.601447884
50816	2049490 8309 14281 21013 132.25 191.5 238 486.85000610352 735.18553161621 124002.37805176 65670259.345616
50815	2057799 8301 14281 21013 132.25 191.5 238 486.85000610352 803.41876220703 135434.99301147 79428246.901651
50847	2066100 6904 15296 21156 139.25 193 216 0.973 11.90022389248 597.75539976103 3193.2892196038
50846	2073004 7122 15296 21156 139.25 193 216 -4.1854209899902 2.5 40.038900375366 453.85309941715
50845	2080126 7251 15259 21156 139 193 217 0 16 2232.5862136707 29893.187621527
50844	2087377 7623 15222 21156 138.75 193 218 236.46459960938 486.85000610352 97918.77633667 45042033.156827
50843	2095000 7610 15222 21156 138.75 193 218 483.11901855469 791.33061218262 122853.74730682 71154519.054586
50840	2102610 7185 15116 21377 138 195.5 231 0.973 12.099024792222 620.60578290394 3248.2374730301
50839	2109795 6694 15116 21377 138 195.5 231 -7.165244102478 4 40.548154830933 530.53624644853
50838	2116489 6836 15079 21377 137.75 195.5 232 0 16.27499961853 2183.3985774517 31897.942763147
50837	2123325 8149 15042 21377 137.5 195.5 233 483.14999389648 733.23754882812 120703.12565613 63599500.044569
50836	2131474 8128 15042 21377 137.5 195.5 233 184.17810058594 486.85000610352 98395.333312988 43572952.189056
50861	2139602 6299 16475 21542 148 197.5 199 0.973 12.553400930962 591.94091912393 3355.8064347402
50860	2145901 6456 16475 21542 148 197.5 199 -3.7163171768188 2.5 42.754949569702 360.53093067284
50859	2152357 6759 16442 21542 147.75 197.5 200 0 16.89999961853 2209.7581857294 30845.862062611
50858	2159116 7015 16409 21542 147.5 197.5 201 483.14999389648 733.49995422363 105012.1660614 55867339.012039
50857	2166131 7007 16409 21542 147.5 197.5 201 184.17810058594 486.8669128418 82521.179077148 35716242.178794
vector 50955  IntersectionExampleScenario.node[77].veinsmobility  posx  ETV
vector 50956  IntersectionExampleScenario.node[77].veinsmobility  posy  ETV
vector 50957  IntersectionExampleScenario.node[77].veinsmobility  speed  ETV
vector 50958  IntersectionExampleScenario.node[77].veinsmobility  acceleration  ETV
vector 50959  IntersectionExampleScenario.node[77].veinsmobility  co2emission  ETV
vector 50962  IntersectionExampleScenario.node[78].veinsmobility  posx  ETV
vector 50963  IntersectionExampleScenario.node[78].veinsmobility  posy  ETV
vector 50964  IntersectionExampleScenario.node[78].veinsmobility  speed  ETV
vector 50965  IntersectionExampleScenario.node[78].veinsmobility  acceleration  ETV
vector 50966  IntersectionExampleScenario.node[78].veinsmobility  co2emission  ETV
vector 50969  IntersectionExampleScenario.node[79].veinsmobility  posx  ETV
vector 50970  IntersectionExampleScenario.node[79].veinsmobility  posy  ETV
vector 50976  IntersectionExampleScenario.node[80].veinsmobility  posx  ETV
vector 50977  IntersectionExampleScenario.node[80].veinsmobility  posy  ETV
vector 50971  IntersectionExampleScenario.node[79].veinsmobility  speed  ETV
vector 50972  IntersectionExampleScenario.node[79].veinsmobility  acceleration  ETV
vector 50973  IntersectionExampleScenario.node[79].veinsmobility  co2emission  ETV
vector 50978  IntersectionExampleScenario.node[80].veinsmobility  speed  ETV
50868	2174573 6758 17101 22163 153 206 213 0.973 11.810082123732 594.1422855359 3086.7574251704
50867	2181331 6438 17101 22163 153 206 213 -9.030237197876 4 39.869146347046 513.6699711494
50866	2187769 6466 17070 22163 152.75 206 214 0 15.875 2182.0496916771 31345.479189491
50865	2194235 7503 17039 22163 152.5 206 215 184.17810058594 483.36395263672 89569.623596191 39265501.946488
50864	2201738 7454 17039 22163 152.5 206 215 486.85000610352 734.37205505371 112747.51164246 60149737.157271
vector 50979  IntersectionExampleScenario.node[80].veinsmobility  acceleration  ETV
vector 50980  IntersectionExampleScenario.node[80].veinsmobility  co2emission  ETV
50875	2209361 7252 17322 22417 154.75 209.25 219 0.973 11.36141391502 572.71570204211 2751.290544019
50874	2216613 7283 17322 22417 154.75 209.25 219 -4.5 2.5 35.964826583862 395.53981926034
50873	2223896 7435 17289 22417 154.5 209.25 220 0 15.25 2260.9473393671 30304.796250812
50872	2231331 7700 17256 22417 154.25 209.25 221 164.94219970703 483.14999389648 89848.708282471 38816363.787381
50871	2239031 7732 17256 22417 154.25 209.25 221 486.85000610352 733.7198638916 116125.97637939 62091655.881793
50896	2246763 5635 18884 22531 168.5 210.75 170 0.973 11.648172402475 548.21989135127 3144.7402249711
50895	2252398 5394 18884 22531 168.5 210.75 170 -4.5 2.5 37.832105636597 339.0562726332
50894	2257792 5697 18859 22531 168.25 210.75 171 5.6500000953674 15.64999961853 2209.5017499924 29953.339586321
50893	2263489 5997 18834 22531 168 210.75 172 184.17810058594 486.87887573242 68781.447052002 29297150.856539
50892	2269486 6010 18834 22531 168 210.75 172 236.26159667969 486.85000610352 75227.072784424 33902166.325073
50917	2275496 4993 19515 22638 175 212.25 150 0.973 12.240430388441 528.15627168799 3338.3878821481
50916	2280489 4689 19515 22638 175 212.25 150 -3.5727043151855 2.5 41.566686630249 271.53823455394
50915	2285178 5015 19490 22638 174.75 212.25 151 5.6500000953674 16.470054626465 2218.3535337448 33402.825969989
50914	2290193 5292 19465 22638 174.5 212.25 152 184.17810058594 733.63230895996 67927.371520996 34370985.026075
50913	2295485 5320 19465 22638 174.5 212.25 152 486.85000610352 486.85000610352 74001.200927734 36027485.123335
50882	2300805 6907 18275 22897 162.5 216.5 217 0.973 11.36141391502 575.3539189853 2792.35168884
50881	2307712 6629 18275 22897 162.5 216.5 217 -7.8493638038635 4 37.15309715271 470.92020591008
50880	2314341 6641 18248 22897 162.25 216.5 218 0 15.25 2176.9664803743 30111.720933346
50879	2320982 7602 18221 22897 162 216.5 219 486.85000610352 733.15849304199 114957.48977661 61391822.421948
50878	2328584 7658 18221 22897 162 216.5 219 486.63604736328 785.82187652588 121299.11852264 69169131.894272
vector 50983  IntersectionExampleScenario.node[81].veinsmobility  posx  ETV
vector 50984  IntersectionExampleScenario.node[81].veinsmobility  posy  ETV
vector 50985  IntersectionExampleScenario.node[81].veinsmobility  speed  ETV
50889	2336474 6949 18588 22938 165.5 217.25 208 0.973 11.54047740176 583.63597132894 2869.7256405986
50888	2343423 6696 18588 22938 165.5 217.25 208 -4.5 2.5 38.511121749878 431.50306775761
50887	2350119 7166 18561 22938 165.25 217.25 209 0 15.5 2266.3691073246 31822.18560414
50886	2357285 7349 18534 22938 165 217.25 210 486.85000610352 486.85000610352 102238.50128174 49774814.973028
50885	2364634 7322 18534 22938 165 217.25 210 236.69696044922 798.59687805176 109781.78317261 61832446.022667
vector 50986  IntersectionExampleScenario.node[81].veinsmobility  acceleration  ETV
vector 50987  IntersectionExampleScenario.node[81].veinsmobility  co2emission  ETV
vector 50990  IntersectionExampleScenario.node[82].veinsmobility  posx  ETV
vector 50991  IntersectionExampleScenario.node[82].veinsmobility  posy  ETV
vector 50992  IntersectionExampleScenario.node[82].veinsmobility  speed  ETV
vector 50993  IntersectionExampleScenario.node[82].veinsmobility  acceleration  ETV
vector 50994  IntersectionExampleScenario.node[82].veinsmobility  co2emission  ETV
vector 50997  IntersectionExampleScenario.node[83].veinsmobility  posx  ETV
vector 50998  IntersectionExampleScenario.node[83].veinsmobility  posy  ETV
vector 50999  IntersectionExampleScenario.node[83].veinsmobility  speed  ETV
vector 51000  IntersectionExampleScenario.node[83].veinsmobility  acceleration  ETV
vector 51001  IntersectionExampleScenario.node[83].veinsmobility  co2emission  ETV
vector 51004  IntersectionExampleScenario.node[84].veinsmobility  posx  ETV
vector 51005  IntersectionExampleScenario.node[84].veinsmobility  posy  ETV
50903	2373081 6889 18938 23263 169 222.25 214 0.973 10.756497587458 549.28392463652 2509.814049303
50902	2379970 6887 18938 23263 169 222.25 214 -4.7916488647461 2.5 32.739515304565 387.99994954156
50901	2386857 7207 18911 23263 168.75 222.25 215 0 14.39999961853 2243.0133217871 27301.926120871
50900	2394064 7551 18884 23263 168.5 222.25 216 486.85000610352 732.35546875 114073.50849915 61334017.106618
50899	2401615 7532 18884 23263 168.5 222.25 216 486.85000610352 801.85314178467 122936.96082306 72155324.561972
vector 51006  IntersectionExampleScenario.node[84].veinsmobility  speed  ETV
vector 51007  IntersectionExampleScenario.node[84].veinsmobility  acceleration  ETV
vector 51008  IntersectionExampleScenario.node[84].veinsmobility  co2emission  ETV
vector 51011  IntersectionExampleScenario.node[85].veinsmobility  posx  ETV
vector 51012  IntersectionExampleScenario.node[85].veinsmobility  posy  ETV
vector 51013  IntersectionExampleScenario.node[85].veinsmobility  speed  ETV
vector 51014  IntersectionExampleScenario.node[85].veinsmobility  acceleration  ETV
vector 51015  IntersectionExampleScenario.node[85].veinsmobility  co2emission  ETV
50931	2409795 5824 19998 23393 180.25 224 176 0.973 11.200708441096 532.19558377481 2745.7082697982
50930	2415619 5750 19998 23393 180.25 224 176 -4.3463401794434 2.5 37.196779251099 292.67300790908
50929	2421369 5901 19975 23393 180 224 177 5.6500000953674 15.12069606781 2190.2077064514 28620.688510378
50928	2427270 6213 19950 23393 179.75 224 178 486.85000610352 734.87567138672 95147.967773438 51852860.970399
50927	2433483 6215 19950 23393 179.75 224 178 486.85000610352 785.82187652588 101574.85810089 59747250.760286
50910	2439698 7001 19278 23632 172.5 227.5 221 0.973 11.450879080643 582.63564826173 2841.7886966787
50909	2446699 6383 19278 23632 172.5 227.5 221 -8.4870233535767 4 37.15309715271 481.82412368335
50908	2453082 6785 19253 23632 172.25 227.5 222 0 15.375 2210.4978749752 30840.213807405
50907	2459867 7804 19228 23632 172 227.5 223 483.14999389648 483.14999389648 107742.44863892 52055763.402284
50906	2467671 7778 19228 23632 172 227.5 223 184.17810058594 733.24285888672 101540.68544006 50459697.702029
vector 51018  IntersectionExampleScenario.node[86].veinsmobility  posx  ETV
vector 51019  IntersectionExampleScenario.node[86].veinsmobility  posy  ETV
vector 51020  IntersectionExampleScenario.node[86].veinsmobility  speed  ETV
vector 51021  IntersectionExampleScenario.node[86].veinsmobility  acceleration  ETV
vector 51022  IntersectionExampleScenario.node[86].veinsmobility  co2emission  ETV
vector 51025  IntersectionExampleScenario.node[87].veinsmobility  posx  ETV
vector 51026  IntersectionExampleScenario.node[87].veinsmobility  posy  ETV
vector 51027  IntersectionExampleScenario.node[87].veinsmobility  speed  ETV
vector 51028  IntersectionExampleScenario.node[87].veinsmobility  acceleration  ETV
vector 51029  IntersectionExampleScenario.node[87].veinsmobility  co2emission  ETV
vector 51032  IntersectionExampleScenario.node[88].veinsmobility  posx  ETV
vector 51033  IntersectionExampleScenario.node[88].veinsmobility  posy  ETV
50924	2476405 6756 19789 23802 178 230 209 0.973 11.200708441096 548.54726769791 2590.8763388625
50923	2483161 7053 19789 23802 178 230 209 -3.7228734493256 2.5 35.964826583862 317.85670568302
50922	2490214 7228 19766 23802 177.75 230 210 0 15.02499961853 2216.4491818286 29191.834001758
50921	2497442 7384 19743 23802 177.5 230 211 483.14999389648 483.14999389648 101944.64871216 49254556.403058
50920	2504826 7345 19743 23802 177.5 230 211 184.17810058594 733.67529296875 95300.185974121 47323077.201673
vector 51034  IntersectionExampleScenario.node[88].veinsmobility  speed  ETV
vector 51035  IntersectionExampleScenario.node[88].veinsmobility  acceleration  ETV
vector 51036  IntersectionExampleScenario.node[88].veinsmobility  co2emission  ETV
vector 51039  IntersectionExampleScenario.node[89].veinsmobility  posx  ETV
vector 51040  IntersectionExampleScenario.node[89].veinsmobility  posy  ETV
vector 51041  IntersectionExampleScenario.node[89].veinsmobility  speed  ETV
vector 51042  IntersectionExampleScenario.node[89].veinsmobility  acceleration  ETV
vector 51043  IntersectionExampleScenario.node[89].veinsmobility  co2emission  ETV
50952	2512819 5479 20913 23913 190.5 231.5 165 0.973 11.90022389248 560.19773019644 3335.6061644197
50951	2518298 5250 20913 23913 190.5 231.5 165 -3.0036964416504 2.5 40.208654403687 328.34986227913
50950	2523548 5505 20888 23913 190.25 231.5 166 5.6500000953674 16 2212.3398785591 30911.328631076
50949	2529053 5834 20863 23913 190 231.5 167 483.14999389648 734.37155151367 88935.474639893 48334515.349737
50948	2534887 5819 20863 23913 190 231.5 167 184.17810058594 486.86071777344 66667.396972656 28376058.139039
vector 51046  IntersectionExampleScenario.node[90].veinsmobility  posx  ETV
vector 51047  IntersectionExampleScenario.node[90].veinsmobility  posy  ETV
vector 51048  IntersectionExampleScenario.node[90].veinsmobility  speed  ETV
vector 51049  IntersectionExampleScenario.node[90].veinsmobility  acceleration  ETV
vector 51050  IntersectionExampleScenario.node[90].veinsmobility  co2emission  ETV
50938	2541107 6260 20668 24323 188 236.5 195 0.973 12.26218747632 597.74675542564 3364.7707735066
50937	2547367 5921 20668 24323 188 236.5 195 -6.9466094970703 4 42.415441513062 500.65686772205
50936	2553288 6039 20645 24323 187.75 236.5 196 0 16.55347442627 2183.4114916325 32339.60786603
50935	2559327 6879 20622 24323 187.5 236.5 197 486.63604736328 785.82187652588 109748.21579742 63014042.689361
50934	2566206 6824 20622 24323 187.5 236.5 197 235.73986816406 483.14999389648 87407.184112549 39750486.379952
vector 51053  IntersectionExampleScenario.node[91].veinsmobility  posx  ETV
vector 51054  IntersectionExampleScenario.node[91].veinsmobility  posy  ETV
vector 51055  IntersectionExampleScenario.node[91].veinsmobility  speed  ETV
vector 51056  IntersectionExampleScenario.node[91].veinsmobility  acceleration  ETV
vector 51057  IntersectionExampleScenario.node[91].veinsmobility  co2emission  ETV
50945	2573431 6808 20741 24706 188.75 240.75 209 0.973 10.824845992913 542.07623684616 2447.4597121412
50944	2580239 6553 20741 24706 188.75 240.75 209 -7.9770202636719 4 33.079023361206 452.17000821196
50943	2586792 6977 20716 24706 188.5 240.75 210 0 14.49645614624 2204.3856300712 28760.167993025
50942	2593769 7355 20691 24706 188.25 240.75 211 184.17810058594 486.85000610352 87131.435699463 38017661.249014
50941	2601124 7372 20691 24706 188.25 240.75 211 235.29736328125 486.85000610352 93432.30178833 42520425.181616
50959	2608496 5648 21660 24727 199 241 169 0.973 11.200708441096 533.99232540206 2980.3917111718
50958	2614144 5326 21660 24727 199 241 169 -3.5139389038086 2.5 35.964826583862 312.2957407169
50957	2619470 5678 21639 24727 198.75 241 170 5.6500000953674 15.02499961853 2211.0336208344 29737.64571564
50956	2625148 5974 21618 24727 198.5 241 171 482.92886352539 785.82187652588 97563.836784363 57482854.850682
50955	2631122 5970 21618 24727 198.5 241 171 483.14999389648 734.34446716309 91430.632736206 49908472.577931
50966	2637092 5199 22106 24911 205.25 243.25 153 0.973 11.684957711157 481.50929054852 2577.4775171935
50965	2642291 5019 22106 24911 205.25 243.25 153 -3.2542343139648 2.5 39.020376205444 201.76668534248
50964	2647310 5148 22089 24911 205 243.25 154 5.6500000953674 15.701172828674 2214.2470054626 32506.97121829
50963	2652458 5405 22072 24911 204.75 243.25 155 237.30895996094 785.82187652588 80930.389335632 46359040.464702
50962	2657863 5425 22072 24911 204.75 243.25 155 483.14999389648 483.14999389648 74888.249053955 36182257.073337
50973	2663288 5502 22163 25139 206 246.25 162 0.973 11.36141391502 499.07480172103 2622.5863682745
50972	2668790 5130 22163 25139 206 246.25 162 -3.2445392608643 2.5 37.32285118103 265.05741563465
50971	2673920 5386 22142 25139 205.75 246.25 163 5.6500000953674 15.25 2188.9764809608 30667.973595174
50970	2679306 5709 22123 25139 205.5 246.25 164 184.17810058594 483.14999389648 65250.969238281 27724535.193069
50969	2685015 5731 22123 25139 205.5 246.25 164 486.85000610352 734.55174255371 88256.947509766 48449261.130512
[...]
55694	30268613 9139 255656 262535 1715.75 1777.5 248 174.53436279297 733.24285888672 112563.70631409 55553144.531546
vector 55851  IntersectionExampleScenario.node[776].veinsmobility  acceleration  ETV
vector 55852  IntersectionExampleScenario.node[776].veinsmobility  co2emission  ETV
55719	30277923 7580 256309 262630 1721.25 1778.5 230 0.973 12.363713241839 650.71317669112 3365.8705290565
55718	30285503 7246 256309 262630 1721.25 1778.5 230 -6.821869134903 2.5 43.958730697632 549.82738204814
55717	30292749 7470 256278 262630 1721 1778.5 231 -0.3207796216011 16.639682769775 2107.1861816309 30901.57601967
55716	30300219 8584 256247 262630 1720.75 1778.5 232 483.14999389648 483.14999389648 112090.79858398 54156668.651704
55715	30308803 8547 256247 262630 1720.75 1778.5 232 209.94219970703 732.45030212402 107438.47525024 53272380.958307
55705	30317350 8788 255952 262860 1718.25 1781 252 0.973 11.990504229548 685.22514014614 3481.1017877084
55704	30326138 8855 255952 262860 1718.25 1781 252 -4.5 2.5 39.529638290405 557.68362440384
55703	30334993 9096 255923 262860 1718 1781 253 0 16.125 2305.0758973686 31538.959807293
55702	30344089 9397 255894 262860 1717.75 1781 254 483.14999389648 483.14999389648 122720.09844971 59292214.816952
55701	30353486 9347 255894 262860 1717.75 1781 254 161.25622558594 733.03991699219 111094.75012207 53640470.275424
vector 55855  IntersectionExampleScenario.node[777].veinsmobility  posx  ETV
vector 55856  IntersectionExampleScenario.node[777].veinsmobility  posy  ETV
vector 55857  IntersectionExampleScenario.node[777].veinsmobility  speed  ETV
vector 55858  IntersectionExampleScenario.node[777].veinsmobility  acceleration  ETV
vector 55859  IntersectionExampleScenario.node[777].veinsmobility  co2emission  ETV
55712	30363239 8992 256101 263109 1719.5 1783.75 258 0.973 11.90022389248 655.41976923991 3106.1301050762
55711	30372231 9282 256101 263109 1719.5 1783.75 258 -4.5 2.5 39.699392318726 435.67307979193
55710	30381513 9276 256070 263109 1719.25 1783.75 259 0 16 2335.5588795133 31080.75469997
55709	30390789 9613 256039 263109 1719 1783.75 260 483.14999389648 732.76187133789 133825.05465698 69986416.174599
55708	30400402 9571 256039 263109 1719 1783.75 260 151.44372558594 486.87002563477 104428.64498901 44773456.472877
vector 55862  IntersectionExampleScenario.node[778].veinsmobility  posx  ETV
vector 55863  IntersectionExampleScenario.node[778].veinsmobility  posy  ETV
vector 55869  IntersectionExampleScenario.node[779].veinsmobility  posx  ETV
vector 55870  IntersectionExampleScenario.node[779].veinsmobility  posy  ETV
vector 55864  IntersectionExampleScenario.node[778].veinsmobility  speed  ETV
vector 55865  IntersectionExampleScenario.node[778].veinsmobility  acceleration  ETV
vector 55866  IntersectionExampleScenario.node[778].veinsmobility  co2emission  ETV
vector 55871  IntersectionExampleScenario.node[779].veinsmobility  speed  ETV
vector 55872  IntersectionExampleScenario.node[779].veinsmobility  acceleration  ETV
vector 55873  IntersectionExampleScenario.node[779].veinsmobility  co2emission  ETV
55733	30410785 7529 257285 263362 1729.75 1786.5 228 0.94506987871985 11.810082123732 629.53175825732 3310.1446558161
55732	30418314 6976 257285 263362 1729.75 1786.5 228 -8.3415489196777 4 42.245687484741 527.14424336349
55731	30425290 7192 257257 263362 1729.5 1786.5 229 0 16.672359466553 2178.846596241 32258.112342268
55730	30432482 8491 257228 263362 1729.25 1786.5 230 184.17810058594 483.36395263672 96899.25680542 42796660.405245
55729	30440973 8432 257228 263362 1729.25 1786.5 230 486.85000610352 733.3203125 119716.65455627 63317523.670012
55768	30449405 5701 259290 263512 1748.5 1788 159 0.973 11.810082123732 514.59614205335 2883.5763724429
55767	30455106 5400 259290 263512 1748.5 1788 159 -3.2103939056396 2.5 39.359884262085 282.099221901
55766	30460506 5589 259263 263512 1748.25 1788 160 5.6500000953674 15.875 2185.1974835396 31313.160694052
55765	30466095 5941 259236 263512 1748 1788 161 486.85000610352 785.82187652588 92120.301841736 54442900.333575
55764	30472036 5945 259236 263512 1748 1788 161 236.53375244141 483.14999389648 69707.309570312 31098761.164906
vector 55876  IntersectionExampleScenario.node[780].veinsmobility  posx  ETV
vector 55877  IntersectionExampleScenario.node[780].veinsmobility  posy  ETV
55775	30478137 5556 259456 263561 1750 1788.5 155 0.973 11.990504229548 503.5340380827 2770.3704467562
55774	30483693 5188 259456 263561 1750 1788.5 155 -3.5061798095703 2.5 41.057416915894 214.5100880611
55773	30488881 5525 259427 263561 1749.75 1788.5 156 5.6500000953674 16.125 2302.9348697662 34779.330791672
55772	30494406 5788 259398 263561 1749.5 1788.5 157 235.85552978516 806.11563110352 83527.70475769 48924137.127367
55771	30500194 5809 259398 263561 1749.5 1788.5 157 483.14999389648 483.14999389648 75854.549041748 36649124.906541
vector 55878  IntersectionExampleScenario.node[780].veinsmobility  speed  ETV
vector 55879  IntersectionExampleScenario.node[780].veinsmobility  acceleration  ETV
vector 55880  IntersectionExampleScenario.node[780].veinsmobility  co2emission  ETV
vector 55883  IntersectionExampleScenario.node[781].veinsmobility  posx  ETV
vector 55884  IntersectionExampleScenario.node[781].veinsmobility  posy  ETV
55754	30506409 7500 257972 263786 1735.75 1790.75 221 0.973 11.200708441096 553.39763192346 2597.9109562287
55753	30513909 7834 257972 263786 1735.75 1790.75 221 -3.8521649837494 2.5 35.625318527222 304.7149342085
55752	30521743 7945 257941 263786 1735.5 1790.75 222 0 15.02499961853 2180.1171997935 27762.83543559
55751	30529688 8224 257910 263786 1735.25 1790.75 223 184.17810058594 483.14999389648 91906.591094971 39807367.656975
55750	30537912 8248 257910 263786 1735.25 1790.75 223 486.85000610352 732.38841247559 117068.49221802 62521460.617552
vector 55890  IntersectionExampleScenario.node[782].veinsmobility  posx  ETV
vector 55891  IntersectionExampleScenario.node[782].veinsmobility  posy  ETV
vector 55885  IntersectionExampleScenario.node[781].veinsmobility  speed  ETV
vector 55886  IntersectionExampleScenario.node[781].veinsmobility  acceleration  ETV
vector 55887  IntersectionExampleScenario.node[781].veinsmobility  co2emission  ETV
vector 55892  IntersectionExampleScenario.node[782].veinsmobility  speed  ETV
55782	30546645 5753 259544 263842 1750.75 1791.25 163 0.973 11.648172402475 543.68348035819 3196.4559140278
55781	30552398 5420 259544 263842 1750.75 1791.25 163 -4.5 2.5 38.850629806519 317.24213485903
55780	30557818 5843 259515 263842 1750.5 1791.25 164 5.6500000953674 15.64999961853 2211.564289093 30890.247291322
55779	30563661 6078 259485 263842 1750.25 1791.25 165 184.17810058594 732.02491760254 73595.814178467 36928927.449006
55778	30569739 6106 259485 263842 1750.25 1791.25 165 486.85000610352 486.85000610352 80330.25100708 39108783.193094
vector 55893  IntersectionExampleScenario.node[782].veinsmobility  acceleration  ETV
vector 55894  IntersectionExampleScenario.node[782].veinsmobility  co2emission  ETV
vector 55897  IntersectionExampleScenario.node[783].veinsmobility  posx  ETV
vector 55898  IntersectionExampleScenario.node[783].veinsmobility  posy  ETV
vector 55899  IntersectionExampleScenario.node[783].veinsmobility  speed  ETV
vector 55900  IntersectionExampleScenario.node[783].veinsmobility  acceleration  ETV
vector 55901  IntersectionExampleScenario.node[783].veinsmobility  co2emission  ETV
55796	30576422 5601 259959 264102 1754.5 1793.5 157 0.973 11.648172402475 480.27466458353 2520.4926585118
55795	30582023 5410 259959 264102 1754.5 1793.5 157 -2.9087371826172 2.5 39.869146347046 183.28444567521
55794	30587433 5616 259930 264102 1754.25 1793.5 158 5.6500000953674 15.64999961853 2251.8705978394 32803.145766638
55793	30593049 5857 259901 264102 1754 1793.5 159 176.21716308594 733.76243591309 70540.636001587 35556308.421489
55792	30598906 5882 259901 264102 1754 1793.5 159 486.85000610352 486.85000610352 77409.150970459 37686645.622436
vector 55904  IntersectionExampleScenario.node[784].veinsmobility  posx  ETV
vector 55905  IntersectionExampleScenario.node[784].veinsmobility  posy  ETV
vector 55906  IntersectionExampleScenario.node[784].veinsmobility  speed  ETV
vector 55907  IntersectionExampleScenario.node[784].veinsmobility  acceleration  ETV
vector 55908  IntersectionExampleScenario.node[784].veinsmobility  co2emission  ETV
55761	30605194 6979 259111 264530 1746.75 1797.5 204 0.973 11.450879080643 564.64636947008 2820.1609863342
55760	30612173 6493 259111 264530 1746.75 1797.5 204 -6.7711477279663 4 36.98334312439 456.08212473492
55759	30618666 6847 259086 264530 1746.5 1797.5 205 0 15.375 2209.3353545666 30725.485793837
55758	30625513 7623 259061 264530 1746.25 1797.5 206 486.85000610352 486.85000610352 100291.10125732 48826723.259256
55757	30633136 7616 259061 264530 1746.25 1797.5 206 237.32635498047 785.82187652588 106335.05600739 59104310.251037
55803	30640752 5945 260310 264746 1757.5 1799.5 169 0.973 11.648172402475 521.32823886352 2827.0011060803
55802	30646697 5869 260310 264746 1757.5 1799.5 169 -2.1167411804199 2.5 38.511121749878 259.60857704453
55801	30652566 6131 260280 264746 1757.25 1799.5 170 5.6500000953674 15.64999961853 2217.2386445999 30510.315880917
55800	30658697 6326 260249 264746 1757 1799.5 171 486.85000610352 486.85000610352 83251.351043701 40530920.763752
55799	30665023 6306 260249 264746 1757 1799.5 171 236.8564453125 785.82187652588 89410.115333557 50887285.803261
vector 55911  IntersectionExampleScenario.node[785].veinsmobility  posx  ETV
vector 55912  IntersectionExampleScenario.node[785].veinsmobility  posy  ETV
vector 55918  IntersectionExampleScenario.node[786].veinsmobility  posx  ETV
vector 55919  IntersectionExampleScenario.node[786].veinsmobility  posy  ETV
vector 55913  IntersectionExampleScenario.node[785].veinsmobility  speed  ETV
vector 55920  IntersectionExampleScenario.node[786].veinsmobility  speed  ETV
55740	30671799 8573 257505 264805 1731.75 1800 274 0.973 11.648172402475 624.6509713221 3088.0506102428
55739	30680372 8587 257505 264805 1731.75 1800 274 -23.892951965332 4 38.172330856323 1052.1325979442
55738	30688959 8686 257476 264805 1731.5 1800 275 0 15.64999961853 1674.1470763944 20309.64567933
55737	30697645 10146 257447 264805 1731.25 1800 276 362.81161499023 483.14999389648 131282.58883667 62592734.469986
55736	30707791 10173 257447 264805 1731.25 1800 276 184.17810058594 483.36395263672 115609.01950073 50381990.722633
55789	30717964 6296 259874 264805 1753.75 1800 186 0.973 12.553400930962 530.19508675455 3066.6126704255
55788	30724260 6657 259874 264805 1753.75 1800 186 -3.8769659996033 2.5 41.37554359436 387.59731355164
55787	30730917 6625 259847 264805 1753.5 1800 187 0 16.89999961853 1551.6723382995 20601.454700711
55786	30737542 6954 259819 264805 1753.25 1800 188 395.01626586914 483.14999389648 89678.588104248 42835499.287895
55785	30744496 6921 259819 264805 1753.25 1800 188 184.17810058594 483.14999389648 75888.791748047 32316593.490677
55810	30751417 5217 260488 264805 1759 1800 165 0.973 11.200708441096 352.27302111435 1521.4454508832
55809	30756634 5133 260488 264805 1759 1800 165 -8.3069133758545 4 -1.1000003814697 381.7420803648
55808	30761767 5094 260457 264805 1758.75 1800 166 0 15.077592849731 1197.4916279316 16220.768478858
55807	30766861 6153 260426 264805 1758.5 1800 167 177.75390625 476.45938110352 65180.283660889 27162092.788163
55806	30773014 6178 260426 264805 1758.5 1800 167 486.85000610352 486.85000610352 81303.951019287 39582829.04998
55817	30779192 5025 261003 264805 1763.25 1800 148 0.973 11.200708441096 309.53098378087 1346.7366529226
55816	30784217 5513 261003 264805 1763.25 1800 148 -4.0173492431641 2.5 -16.893891334534 236.93477571993
55815	30789730 5465 260973 264805 1763 1800 149 0 15.02499961853 1155.0816920786 15074.177037165
55814	30795195 5514 260942 264805 1762.75 1800 150 176.60504150391 465.37780761719 56337.648986816 22667662.906215
55813	30800709 5549 260942 264805 1762.75 1800 150 486.85000610352 486.85000610352 73027.500915527 35553439.266449
55824	30806258 4892 261348 264805 1766.25 1800 136 0.973 11.648172402475 458.15518408053 2682.3266939174
55823	30811150 4878 261348 264805 1766.25 1800 136 -3.5378532409668 2.5 39.699392318726 222.65278018089
55822	30816028 4831 261319 264805 1766 1800 137 5.6500000953674 15.834792137146 1969.2569103241 28982.076465568
55821	30820859 5105 261290 264805 1765.75 1800 138 486.85000610352 486.85000610352 67185.300842285 32709164.125133
55820	30825964 5093 261290 264805 1765.75 1800 138 298.85205078125 785.82187652588 76164.041862488 44943448.095229
55831	30831057 4298 261662 264805 1769 1800 125 0.97223939240464 11.648172402475 435.83730199397 2754.2054769473
55830	30835355 4220 261662 264805 1769 1800 125 -2.9128684997559 2.5 38.721364974976 288.92385330409
55829	30839575 4433 261633 264805 1768.75 1800 126 5.4028100967407 15.64999961853 1521.8352031708 19743.602810632
55828	30844008 4698 261604 264805 1768.5 1800 127 483.14999389648 483.14999389648 61360.049224854 29646107.408476
55827	30848706 4672 261604 264805 1768.5 1800 127 184.17810058594 559.03890991211 47525.391967773 19295521.563247
55838	30853378 3742 262075 264805 1772.75 1800 110 0.973 11.200708441096 296.31873437158 1420.0096626373
55837	30857120 3551 262075 264805 1772.75 1800 110 -6.7711477279663 4 -1.1000003814697 355.55732551166
55836	30860671 3819 262048 264805 1772.5 1800 111 0 15.02499961853 1172.9394557476 15852.608779133
55835	30864490 4136 262021 264805 1772.25 1800 112 493.79089355469 785.82187652588 68836.037239075 43446912.386414
55834	30868626 4144 262021 264805 1772.25 1800 112 483.14999389648 484.55718994141 54116.005859375 26147700.291426
55845	30872770 3324 262273 264805 1774.75 1800 102 0.973 11.200708441096 255.64179293982 1286.7848316873
55844	30876094 3775 262273 264805 1774.75 1800 102 -2.0041847229004 2.5 -8.4417266845703 168.93832299746
55843	30879869 3790 262248 264805 1774.5 1800 103 2.4109563827515 15.02499961853 1076.6074106693 13384.306119558
55842	30883659 3810 262223 264805 1774.25 1800 104 184.17810058594 452.2607421875 35178.416320801 12743699.362506
55841	30887469 3848 262223 264805 1774.25 1800 104 486.85000610352 486.85000610352 50632.400634766 24650384.558071
55852	30891317 3130 262560 264805 1777.75 1800 90 0.973 11.200708441096 258.76893764434 1318.8706242589
55851	30894447 3077 262560 264805 1777.75 1800 90 -6.7711477279663 2.5 -22.60000038147 295.80732551166
55850	30897524 3335 262535 264805 1777.5 1800 91 0 15.02499961853 1147.4394557476 15754.921279133
55849	30900859 3404 262510 264805 1777.25 1800 92 486.85000610352 486.85000610352 44790.200561523 21806109.416755
55848	30904263 3397 262510 264805 1777.25 1800 92 498.63424682617 785.82187652588 58882.098579407 38492832.819077
55859	30907660 2507 262972 264805 1782.25 1800 72 0.973 12.099024792222 280.68589442256 1929.8442686188
55858	30910167 2467 262972 264805 1782.25 1800 72 -2.075138092041 2.5 31.754846572876 175.69458919923
55857	30912634 2682 262949 264805 1782 1800 73 5.6500000953674 16.27499961853 994.17041492462 14079.606091513
55856	30915316 2715 262926 264805 1781.75 1800 74 541.6496887207 785.82187652588 49468.617195129 33519468.477407
55855	30918031 2737 262926 264805 1781.75 1800 74 483.14999389648 483.14999389648 35753.09954834 17274109.828561
55866	30920768 2044 263262 264805 1785.5 1800 59 0.96333723109819 12.099024792222 217.32891045356 1467.494195792
55865	30922812 1998 263262 264805 1785.5 1800 59 -2.0977096557617 2.5 23.71364402771 134.42593979088
55864	30924810 2207 263237 264805 1785.25 1800 60 5.6500000953674 16.27499961853 818.87326812744 11635.422910366
55863	30927017 2233 263214 264805 1785 1800 61 184.17810058594 385.06860351562 16930.88381958 4950864.1749049
55862	30929250 2255 263214 264805 1785 1800 61 486.85000610352 486.85000610352 29697.850372314 14458398.635023
55873	30931505 2100 263287 264805 1785.75 1800 58 0.973 11.968032721432 224.81043621808 1436.7705544338
55872	30933605 2070 263287 264805 1785.75 1800 58 -2.0143356323242 2.5 36.254461288452 107.14799228954
55871	30935675 2176 263262 264805 1785.5 1800 59 5.6500000953674 16.093904495239 827.99726963043 12154.396945332
55870	30937851 2204 263237 264805 1785.25 1800 60 159.76721191406 361.83758544922 14945.352233887 3963651.0963385
55869	30940055 2220 263237 264805 1785.25 1800 60 486.85000610352 486.85000610352 29211.000366211 14221375.70658
55880	30942275 1646 263611 264805 1789 1800 45 0.973 11.200708441096 180.65340858058 1168.2117999238
55879	30943921 1591 263611 264805 1789 1800 45 -0.38379669189453 2.5 35.965093612671 94.086673470596
55878	30945512 1689 263586 264805 1788.75 1800 46 5.6500000953674 15.02499961853 605.7873210907 8307.4799838899
55877	30947201 1738 263561 264805 1788.5 1800 47 486.85000610352 486.85000610352 22881.950286865 11140077.636821
55876	30948939 1735 263561 264805 1788.5 1800 47 639.25820922852 785.82187652588 33882.606544495 24526192.580322
55887	30950674 1327 263842 264805 1791.25 1800 36 1.7373410990981 10.756497587458 155.61895546004 1016.7617750649
55886	30952001 1254 263842 264805 1791.25 1800 36 -0.098300933837891 2.5 34.607496261597 87.52207751913
55885	30953255 1355 263813 264805 1791 1800 37 5.6500000953674 14.39999961853 465.30674552917 6125.165804067
55884	30954610 1405 263786 264805 1790.75 1800 38 486.85000610352 486.85000610352 18500.300231934 9006871.2808337
55883	30956015 1396 263786 264805 1790.75 1800 38 691.1171875 802.70781707764 28662.953834534 21667505.207012
55894	30957411 1280 263871 264805 1791.5 1800 35 0.973 11.648172402475 170.3731063701 1259.8918761936
55893	30958691 1171 263871 264805 1791.5 1800 35 -0.37222290039062 2.5 38.517408370972 100.31666817612
55892	30959862 1321 263842 264805 1791.25 1800 36 5.6500000953674 15.64999961853 472.43973064423 6556.5113787486
55891	30961183 1367 263813 264805 1791 1800 37 483.14999389648 483.14999389648 17876.54977417 8637054.9142804
55890	30962550 1350 263813 264805 1791 1800 37 184.17810058594 297.15942382812 8594.6212768555 2043845.5619091
55901	30963900 1180 263957 264805 1792.25 1800 32 1.9970182529271 11.648172402475 169.96271929535 1269.8177420297
55900	30965080 1046 263957 264805 1792.25 1800 32 -0.060352325439453 2.5 40.042119979858 100.08688709396
55899	30966126 1207 263928 264805 1792 1800 33 5.6500000953674 15.720076560974 431.84456539154 6018.6819123708
55898	30967333 1257 263899 264805 1791.75 1800 34 483.14999389648 483.14999389648 16427.09979248 7936753.1644739
55897	30968590 1241 263899 264805 1791.75 1800 34 161.1796875 263.89514160156 6941.2449951172 1453049.0567508
55908	30969831 476 264476 264805 1797 1800 13 5.2162187258585 10.315404520939 100.64515864481 812.01557512667
55907	30970307 335 264476 264805 1797 1800 13 2.4999980926514 2.5 32.499998092651 81.24999046326
55906	30970642 510 264449 264805 1796.75 1800 14 5.6500000953674 13.77499961853 135.97499656677 1409.5242963886
55905	30971152 554 264422 264805 1796.5 1800 15 483.14999389648 483.14999389648 7247.2499084473 3501508.7490326
55904	30971706 554 264422 264805 1796.5 1800 15 172.19580078125 201.73010253906 2761.2395629883 509639.64366222
55913	30972260 35 264805 264805 1800 1800 1 5.6500000953674 5.6500000953674 5.6500000953674 31.922501077652
55912	30972295 73 264773 264805 1799.75 1800 2 486.85000610352 486.85000610352 973.70001220703 474045.85688599
55911	30972368 73 264773 264805 1799.75 1800 2 785.82187652588 785.82187652588 1571.6437530518 1235032.0432533
55920	30972441 35 264805 264805 1800 1800 1 5.6500000953674 5.6500000953674 5.6500000953674 31.922501077652
55919	30972476 73 264773 264805 1799.75 1800 2 483.14999389648 483.14999389648 966.29998779297 466867.83320435
55918	30972549 71 264773 264805 1799.75 1800 2 166.9384765625 166.9384765625 333.876953125 55736.909914017
50412	30972620 643 0 264804 0 1800 31 0 36 760 20216
50413	30973263 660 0 264804 0 1800 31 0 271 3946 727020
