version 2
run nodebug-15-20200606-11:00:36-6208
attr configname nodebug
attr datetime 20200606-11:00:36
attr experiment nodebug
attr inifile omnetpp.ini
attr iterationvars ""
attr iterationvars2 $repetition=15
attr measurement ""
attr network "\"org.car2x.veins.modules.application.ExtTraCIScenarioManagerLaunchd.IntersectionExampleScenario\""
attr processid 6208
attr repetition 15
attr replication #15
attr resultdir results
attr runnumber 15
attr seedset 15
param **.coreDebug false
param **.debug false
param *.**.nic.mac1609_4.bitrate 18Mbps
param *.**.nic.mac1609_4.txPower 20mW
param *.**.nic.mac1609_4.useServiceChannel false
param *.**.nic.phy80211p.analogueModels "xmldoc(\"config.xml\")"
param *.**.nic.phy80211p.decider "xmldoc(\"config.xml\")"
param *.**.nic.phy80211p.sensitivity -89dBm
param *.**.nic.phy80211p.thermalNoise -110dBm
param *.**.nic.phy80211p.usePropagationDelay true
param *.**.nic.phy80211p.useThermalNoise true
param *.annotations.draw false
param *.connectionManager.alpha 2.0
param *.connectionManager.carrierFrequency "5.890e9 Hz"
param *.connectionManager.pMax 20mW
param *.connectionManager.sat -89dBm
param *.connectionManager.sendDirect true
param *.manager.autoShutdown true
param *.manager.host "\"localhost\""
param *.manager.launchConfig "xmldoc(\"paramics.launchd.xml\")"
param *.manager.margin 25
param *.manager.moduleDisplayString "\"\""
param *.manager.moduleName "\"node\""
param *.manager.moduleType "\"org.car2x.veins.nodes.Car\""
param *.manager.port 9999
param *.manager.updateInterval 250ms
param *.node[*0].veinsmobility.accidentCount 0
param *.node[*0].veinsmobility.accidentDuration 30s
param *.node[*0].veinsmobility.accidentStart 75s
param *.node[*].appl.LiderSelectZoneRadio 55.0
param *.node[*].appl.ShareDataZoneRadio 110.0
param *.node[*].appl.TiempoSemaforo 30.0
param *.node[*].appl.beaconInterval 1s
param *.node[*].appl.beaconPriority 3
param *.node[*].appl.dataOnSch false
param *.node[*].appl.dataPriority 2
param *.node[*].appl.debug false
param *.node[*].appl.headerLength "256 bit"
param *.node[*].appl.maxOffset 0.005s
param *.node[*].appl.sendBeacons false
param *.node[*].appl.sendData true
param *.node[*].applType "\"Dummy\""
param *.node[*].mobilityType "\"TraCIMobility\""
param *.node[*].mobilityType.debug true
param *.node[*].veinsmobility.x 0
param *.node[*].veinsmobility.y 0
param *.node[*].veinsmobility.z 1.895
param *.node[*].veinsmobilityType "\"org.car2x.veins.modules.mobility.traci.TraCIMobility\""
param *.node[*].veinsmobilityType.debug true
param *.playgroundSizeX 8500m
param *.playgroundSizeY 8500m
param *.playgroundSizeZ 50m
param *.world.use2D false
param *.world.useTorus false

scalar IntersectionExampleScenario.node[3].appl 	VehicleRemoved 	0
scalar IntersectionExampleScenario.node[3].appl 	ArrivedAtDest 	1
scalar IntersectionExampleScenario.node[3].appl 	IntersectionEnterTime 	4
scalar IntersectionExampleScenario.node[3].appl 	IntersectionExitTime 	27.7763188229
scalar IntersectionExampleScenario.node[3].appl 	NumberOfCollisions 	0
scalar IntersectionExampleScenario.node[3].nic.phy80211p 	busyTime 	0
scalar IntersectionExampleScenario.node[3].nic.mac1609_4 	ReceivedUnicastPackets 	0
scalar IntersectionExampleScenario.node[3].nic.mac1609_4 	ReceivedBroadcasts 	0
scalar IntersectionExampleScenario.node[3].nic.mac1609_4 	SentPackets 	0
scalar IntersectionExampleScenario.node[3].nic.mac1609_4 	SNIRLostPackets 	0
scalar IntersectionExampleScenario.node[3].nic.mac1609_4 	RXTXLostPackets 	0
scalar IntersectionExampleScenario.node[3].nic.mac1609_4 	TotalLostPackets 	0
scalar IntersectionExampleScenario.node[3].nic.mac1609_4 	DroppedPacketsInMac 	0
scalar IntersectionExampleScenario.node[3].nic.mac1609_4 	TooLittleTime 	0
scalar IntersectionExampleScenario.node[3].nic.mac1609_4 	TimesIntoBackoff 	0
scalar IntersectionExampleScenario.node[3].nic.mac1609_4 	SlotsBackoff 	0
scalar IntersectionExampleScenario.node[3].nic.mac1609_4 	NumInternalContention 	0
scalar IntersectionExampleScenario.node[3].nic.mac1609_4 	totalBusyTime 	0
scalar IntersectionExampleScenario.node[3].veinsmobility 	startTime 	4
scalar IntersectionExampleScenario.node[3].veinsmobility 	totalTime 	40.75
scalar IntersectionExampleScenario.node[3].veinsmobility 	stopTime 	45
scalar IntersectionExampleScenario.node[3].veinsmobility 	minSpeed 	5.6500000953674
scalar IntersectionExampleScenario.node[3].veinsmobility 	maxSpeed 	15.02499961853
scalar IntersectionExampleScenario.node[3].veinsmobility 	totalDistance 	551.52659636973
scalar IntersectionExampleScenario.node[3].veinsmobility 	totalCO2Emission 	119.13159063582
scalar IntersectionExampleScenario.node[2].appl 	VehicleRemoved 	0
scalar IntersectionExampleScenario.node[2].appl 	ArrivedAtDest 	1
scalar IntersectionExampleScenario.node[2].appl 	IntersectionEnterTime 	4
scalar IntersectionExampleScenario.node[2].appl 	IntersectionExitTime 	35.283018356306
scalar IntersectionExampleScenario.node[2].appl 	NumberOfCollisions 	0
scalar IntersectionExampleScenario.node[2].nic.phy80211p 	busyTime 	0
scalar IntersectionExampleScenario.node[2].nic.mac1609_4 	ReceivedUnicastPackets 	0
scalar IntersectionExampleScenario.node[2].nic.mac1609_4 	ReceivedBroadcasts 	0
scalar IntersectionExampleScenario.node[2].nic.mac1609_4 	SentPackets 	0
scalar IntersectionExampleScenario.node[2].nic.mac1609_4 	SNIRLostPackets 	0
scalar IntersectionExampleScenario.node[2].nic.mac1609_4 	RXTXLostPackets 	0
scalar IntersectionExampleScenario.node[2].nic.mac1609_4 	TotalLostPackets 	0
scalar IntersectionExampleScenario.node[2].nic.mac1609_4 	DroppedPacketsInMac 	0
scalar IntersectionExampleScenario.node[2].nic.mac1609_4 	TooLittleTime 	0
scalar IntersectionExampleScenario.node[2].nic.mac1609_4 	TimesIntoBackoff 	0
scalar IntersectionExampleScenario.node[2].nic.mac1609_4 	SlotsBackoff 	0
scalar IntersectionExampleScenario.node[2].nic.mac1609_4 	NumInternalContention 	0
scalar IntersectionExampleScenario.node[2].nic.mac1609_4 	totalBusyTime 	0
scalar IntersectionExampleScenario.node[2].veinsmobility 	startTime 	4
scalar IntersectionExampleScenario.node[2].veinsmobility 	totalTime 	47.25
scalar IntersectionExampleScenario.node[2].veinsmobility 	stopTime 	51.5
scalar IntersectionExampleScenario.node[2].veinsmobility 	minSpeed 	0
scalar IntersectionExampleScenario.node[2].veinsmobility 	maxSpeed 	15.64999961853
scalar IntersectionExampleScenario.node[2].veinsmobility 	totalDistance 	550.51123155704
scalar IntersectionExampleScenario.node[2].veinsmobility 	totalCO2Emission 	140.35921213873
scalar IntersectionExampleScenario.node[6].appl 	VehicleRemoved 	0
scalar IntersectionExampleScenario.node[6].appl 	ArrivedAtDest 	1
scalar IntersectionExampleScenario.node[6].appl 	IntersectionEnterTime 	11.75
scalar IntersectionExampleScenario.node[6].appl 	IntersectionExitTime 	37.808136645006
scalar IntersectionExampleScenario.node[6].appl 	NumberOfCollisions 	0
scalar IntersectionExampleScenario.node[6].nic.phy80211p 	busyTime 	0
scalar IntersectionExampleScenario.node[6].nic.mac1609_4 	ReceivedUnicastPackets 	0
scalar IntersectionExampleScenario.node[6].nic.mac1609_4 	ReceivedBroadcasts 	0
scalar IntersectionExampleScenario.node[6].nic.mac1609_4 	SentPackets 	0
scalar IntersectionExampleScenario.node[6].nic.mac1609_4 	SNIRLostPackets 	0
scalar IntersectionExampleScenario.node[6].nic.mac1609_4 	RXTXLostPackets 	0
scalar IntersectionExampleScenario.node[6].nic.mac1609_4 	TotalLostPackets 	0
scalar IntersectionExampleScenario.node[6].nic.mac1609_4 	DroppedPacketsInMac 	0
scalar IntersectionExampleScenario.node[6].nic.mac1609_4 	TooLittleTime 	0
scalar IntersectionExampleScenario.node[6].nic.mac1609_4 	TimesIntoBackoff 	0
scalar IntersectionExampleScenario.node[6].nic.mac1609_4 	SlotsBackoff 	0
scalar IntersectionExampleScenario.node[6].nic.mac1609_4 	NumInternalContention 	0
scalar IntersectionExampleScenario.node[6].nic.mac1609_4 	totalBusyTime 	0
scalar IntersectionExampleScenario.node[6].veinsmobility 	startTime 	11.75
scalar IntersectionExampleScenario.node[6].veinsmobility 	totalTime 	42
scalar IntersectionExampleScenario.node[6].veinsmobility 	stopTime 	54
scalar IntersectionExampleScenario.node[6].veinsmobility 	minSpeed 	5.6500000953674
scalar IntersectionExampleScenario.node[6].veinsmobility 	maxSpeed 	16.5
scalar IntersectionExampleScenario.node[6].veinsmobility 	totalDistance 	543.60251521283
scalar IntersectionExampleScenario.node[6].veinsmobility 	totalCO2Emission 	140.05343074194
scalar IntersectionExampleScenario.node[0].appl 	VehicleRemoved 	0
scalar IntersectionExampleScenario.node[0].appl 	ArrivedAtDest 	1
scalar IntersectionExampleScenario.node[0].appl 	IntersectionEnterTime 	1.25
scalar IntersectionExampleScenario.node[0].appl 	IntersectionExitTime 	44.545192305814
scalar IntersectionExampleScenario.node[0].appl 	NumberOfCollisions 	0
scalar IntersectionExampleScenario.node[0].nic.phy80211p 	busyTime 	0
scalar IntersectionExampleScenario.node[0].nic.mac1609_4 	ReceivedUnicastPackets 	0
scalar IntersectionExampleScenario.node[0].nic.mac1609_4 	ReceivedBroadcasts 	0
scalar IntersectionExampleScenario.node[0].nic.mac1609_4 	SentPackets 	0
scalar IntersectionExampleScenario.node[0].nic.mac1609_4 	SNIRLostPackets 	0
scalar IntersectionExampleScenario.node[0].nic.mac1609_4 	RXTXLostPackets 	0
scalar IntersectionExampleScenario.node[0].nic.mac1609_4 	TotalLostPackets 	0
scalar IntersectionExampleScenario.node[0].nic.mac1609_4 	DroppedPacketsInMac 	0
scalar IntersectionExampleScenario.node[0].nic.mac1609_4 	TooLittleTime 	0
scalar IntersectionExampleScenario.node[0].nic.mac1609_4 	TimesIntoBackoff 	0
scalar IntersectionExampleScenario.node[0].nic.mac1609_4 	SlotsBackoff 	0
scalar IntersectionExampleScenario.node[0].nic.mac1609_4 	NumInternalContention 	0
scalar IntersectionExampleScenario.node[0].nic.mac1609_4 	totalBusyTime 	0
scalar IntersectionExampleScenario.node[0].veinsmobility 	startTime 	1.25
scalar IntersectionExampleScenario.node[0].veinsmobility 	totalTime 	60
scalar IntersectionExampleScenario.node[0].veinsmobility 	stopTime 	61.5
scalar IntersectionExampleScenario.node[0].veinsmobility 	minSpeed 	0
scalar IntersectionExampleScenario.node[0].veinsmobility 	maxSpeed 	15.875
scalar IntersectionExampleScenario.node[0].veinsmobility 	totalDistance 	545.6419363156
scalar IntersectionExampleScenario.node[0].veinsmobility 	totalCO2Emission 	153.24006541691
scalar IntersectionExampleScenario.node[1].appl 	VehicleRemoved 	0
scalar IntersectionExampleScenario.node[1].appl 	ArrivedAtDest 	1
scalar IntersectionExampleScenario.node[1].appl 	IntersectionEnterTime 	3.5
scalar IntersectionExampleScenario.node[1].appl 	IntersectionExitTime 	47.288059294719
scalar IntersectionExampleScenario.node[1].appl 	NumberOfCollisions 	0
scalar IntersectionExampleScenario.node[1].nic.phy80211p 	busyTime 	0
scalar IntersectionExampleScenario.node[1].nic.mac1609_4 	ReceivedUnicastPackets 	0
scalar IntersectionExampleScenario.node[1].nic.mac1609_4 	ReceivedBroadcasts 	0
scalar IntersectionExampleScenario.node[1].nic.mac1609_4 	SentPackets 	0
scalar IntersectionExampleScenario.node[1].nic.mac1609_4 	SNIRLostPackets 	0
scalar IntersectionExampleScenario.node[1].nic.mac1609_4 	RXTXLostPackets 	0
scalar IntersectionExampleScenario.node[1].nic.mac1609_4 	TotalLostPackets 	0
scalar IntersectionExampleScenario.node[1].nic.mac1609_4 	DroppedPacketsInMac 	0
scalar IntersectionExampleScenario.node[1].nic.mac1609_4 	TooLittleTime 	0
scalar IntersectionExampleScenario.node[1].nic.mac1609_4 	TimesIntoBackoff 	0
scalar IntersectionExampleScenario.node[1].nic.mac1609_4 	SlotsBackoff 	0
scalar IntersectionExampleScenario.node[1].nic.mac1609_4 	NumInternalContention 	0
scalar IntersectionExampleScenario.node[1].nic.mac1609_4 	totalBusyTime 	0
scalar IntersectionExampleScenario.node[1].veinsmobility 	startTime 	3.5
scalar IntersectionExampleScenario.node[1].veinsmobility 	totalTime 	60.5
scalar IntersectionExampleScenario.node[1].veinsmobility 	stopTime 	64.25
scalar IntersectionExampleScenario.node[1].veinsmobility 	minSpeed 	0
scalar IntersectionExampleScenario.node[1].veinsmobility 	maxSpeed 	15.64999961853
scalar IntersectionExampleScenario.node[1].veinsmobility 	totalDistance 	562.0932884306
scalar IntersectionExampleScenario.node[1].veinsmobility 	totalCO2Emission 	154.81421043471
scalar IntersectionExampleScenario.node[5].appl 	VehicleRemoved 	0
scalar IntersectionExampleScenario.node[5].appl 	ArrivedAtDest 	1
scalar IntersectionExampleScenario.node[5].appl 	IntersectionEnterTime 	9.25
scalar IntersectionExampleScenario.node[5].appl 	IntersectionExitTime 	49.809184304671
scalar IntersectionExampleScenario.node[5].appl 	NumberOfCollisions 	0
scalar IntersectionExampleScenario.node[5].nic.phy80211p 	busyTime 	0
scalar IntersectionExampleScenario.node[5].nic.mac1609_4 	ReceivedUnicastPackets 	0
scalar IntersectionExampleScenario.node[5].nic.mac1609_4 	ReceivedBroadcasts 	0
scalar IntersectionExampleScenario.node[5].nic.mac1609_4 	SentPackets 	0
scalar IntersectionExampleScenario.node[5].nic.mac1609_4 	SNIRLostPackets 	0
scalar IntersectionExampleScenario.node[5].nic.mac1609_4 	RXTXLostPackets 	0
scalar IntersectionExampleScenario.node[5].nic.mac1609_4 	TotalLostPackets 	0
scalar IntersectionExampleScenario.node[5].nic.mac1609_4 	DroppedPacketsInMac 	0
scalar IntersectionExampleScenario.node[5].nic.mac1609_4 	TooLittleTime 	0
scalar IntersectionExampleScenario.node[5].nic.mac1609_4 	TimesIntoBackoff 	0
scalar IntersectionExampleScenario.node[5].nic.mac1609_4 	SlotsBackoff 	0
scalar IntersectionExampleScenario.node[5].nic.mac1609_4 	NumInternalContention 	0
scalar IntersectionExampleScenario.node[5].nic.mac1609_4 	totalBusyTime 	0
scalar IntersectionExampleScenario.node[5].veinsmobility 	startTime 	9.25
scalar IntersectionExampleScenario.node[5].veinsmobility 	totalTime 	56.75
scalar IntersectionExampleScenario.node[5].veinsmobility 	stopTime 	66.25
scalar IntersectionExampleScenario.node[5].veinsmobility 	minSpeed 	0
scalar IntersectionExampleScenario.node[5].veinsmobility 	maxSpeed 	15.5
scalar IntersectionExampleScenario.node[5].veinsmobility 	totalDistance 	530.21588134766
scalar IntersectionExampleScenario.node[5].veinsmobility 	totalCO2Emission 	143.32274815132
scalar IntersectionExampleScenario.node[4].appl 	VehicleRemoved 	0
scalar IntersectionExampleScenario.node[4].appl 	ArrivedAtDest 	1
scalar IntersectionExampleScenario.node[4].appl 	IntersectionEnterTime 	8.5
scalar IntersectionExampleScenario.node[4].appl 	IntersectionExitTime 	52.025028851785
scalar IntersectionExampleScenario.node[4].appl 	NumberOfCollisions 	0
scalar IntersectionExampleScenario.node[4].nic.phy80211p 	busyTime 	0
scalar IntersectionExampleScenario.node[4].nic.mac1609_4 	ReceivedUnicastPackets 	0
scalar IntersectionExampleScenario.node[4].nic.mac1609_4 	ReceivedBroadcasts 	0
scalar IntersectionExampleScenario.node[4].nic.mac1609_4 	SentPackets 	0
scalar IntersectionExampleScenario.node[4].nic.mac1609_4 	SNIRLostPackets 	0
scalar IntersectionExampleScenario.node[4].nic.mac1609_4 	RXTXLostPackets 	0
scalar IntersectionExampleScenario.node[4].nic.mac1609_4 	TotalLostPackets 	0
scalar IntersectionExampleScenario.node[4].nic.mac1609_4 	DroppedPacketsInMac 	0
scalar IntersectionExampleScenario.node[4].nic.mac1609_4 	TooLittleTime 	0
scalar IntersectionExampleScenario.node[4].nic.mac1609_4 	TimesIntoBackoff 	0
scalar IntersectionExampleScenario.node[4].nic.mac1609_4 	SlotsBackoff 	0
scalar IntersectionExampleScenario.node[4].nic.mac1609_4 	NumInternalContention 	0
scalar IntersectionExampleScenario.node[4].nic.mac1609_4 	totalBusyTime 	0
scalar IntersectionExampleScenario.node[4].veinsmobility 	startTime 	8.5
scalar IntersectionExampleScenario.node[4].veinsmobility 	totalTime 	60
scalar IntersectionExampleScenario.node[4].veinsmobility 	stopTime 	68.75
scalar IntersectionExampleScenario.node[4].veinsmobility 	minSpeed 	0
scalar IntersectionExampleScenario.node[4].veinsmobility 	maxSpeed 	15.685520172119
scalar IntersectionExampleScenario.node[4].veinsmobility 	totalDistance 	553.40642577378
scalar IntersectionExampleScenario.node[4].veinsmobility 	totalCO2Emission 	160.62879206033
scalar IntersectionExampleScenario.node[9].appl 	VehicleRemoved 	0
scalar IntersectionExampleScenario.node[9].appl 	ArrivedAtDest 	1
scalar IntersectionExampleScenario.node[9].appl 	IntersectionEnterTime 	22.75
scalar IntersectionExampleScenario.node[9].appl 	IntersectionExitTime 	54.050773689873
scalar IntersectionExampleScenario.node[9].appl 	NumberOfCollisions 	0
scalar IntersectionExampleScenario.node[9].nic.phy80211p 	busyTime 	0
scalar IntersectionExampleScenario.node[9].nic.mac1609_4 	ReceivedUnicastPackets 	0
scalar IntersectionExampleScenario.node[9].nic.mac1609_4 	ReceivedBroadcasts 	0
scalar IntersectionExampleScenario.node[9].nic.mac1609_4 	SentPackets 	0
scalar IntersectionExampleScenario.node[9].nic.mac1609_4 	SNIRLostPackets 	0
scalar IntersectionExampleScenario.node[9].nic.mac1609_4 	RXTXLostPackets 	0
scalar IntersectionExampleScenario.node[9].nic.mac1609_4 	TotalLostPackets 	0
scalar IntersectionExampleScenario.node[9].nic.mac1609_4 	DroppedPacketsInMac 	0
scalar IntersectionExampleScenario.node[9].nic.mac1609_4 	TooLittleTime 	0
scalar IntersectionExampleScenario.node[9].nic.mac1609_4 	TimesIntoBackoff 	0
scalar IntersectionExampleScenario.node[9].nic.mac1609_4 	SlotsBackoff 	0
scalar IntersectionExampleScenario.node[9].nic.mac1609_4 	NumInternalContention 	0
scalar IntersectionExampleScenario.node[9].nic.mac1609_4 	totalBusyTime 	0
scalar IntersectionExampleScenario.node[9].veinsmobility 	startTime 	22.75
scalar IntersectionExampleScenario.node[9].veinsmobility 	totalTime 	46.75
scalar IntersectionExampleScenario.node[9].veinsmobility 	stopTime 	69.75
scalar IntersectionExampleScenario.node[9].veinsmobility 	minSpeed 	3.2297720909119
scalar IntersectionExampleScenario.node[9].veinsmobility 	maxSpeed 	16.625
scalar IntersectionExampleScenario.node[9].veinsmobility 	totalDistance 	551.97624406325
scalar IntersectionExampleScenario.node[9].veinsmobility 	totalCO2Emission 	146.21908239471
scalar IntersectionExampleScenario.node[7].appl 	VehicleRemoved 	0
scalar IntersectionExampleScenario.node[7].appl 	ArrivedAtDest 	1
scalar IntersectionExampleScenario.node[7].appl 	IntersectionEnterTime 	15
scalar IntersectionExampleScenario.node[7].appl 	IntersectionExitTime 	56.567218152166
scalar IntersectionExampleScenario.node[7].appl 	NumberOfCollisions 	0
scalar IntersectionExampleScenario.node[7].nic.phy80211p 	busyTime 	0
scalar IntersectionExampleScenario.node[7].nic.mac1609_4 	ReceivedUnicastPackets 	0
scalar IntersectionExampleScenario.node[7].nic.mac1609_4 	ReceivedBroadcasts 	0
scalar IntersectionExampleScenario.node[7].nic.mac1609_4 	SentPackets 	0
scalar IntersectionExampleScenario.node[7].nic.mac1609_4 	SNIRLostPackets 	0
scalar IntersectionExampleScenario.node[7].nic.mac1609_4 	RXTXLostPackets 	0
scalar IntersectionExampleScenario.node[7].nic.mac1609_4 	TotalLostPackets 	0
scalar IntersectionExampleScenario.node[7].nic.mac1609_4 	DroppedPacketsInMac 	0
scalar IntersectionExampleScenario.node[7].nic.mac1609_4 	TooLittleTime 	0
scalar IntersectionExampleScenario.node[7].nic.mac1609_4 	TimesIntoBackoff 	0
scalar IntersectionExampleScenario.node[7].nic.mac1609_4 	SlotsBackoff 	0
scalar IntersectionExampleScenario.node[7].nic.mac1609_4 	NumInternalContention 	0
scalar IntersectionExampleScenario.node[7].nic.mac1609_4 	totalBusyTime 	0
scalar IntersectionExampleScenario.node[7].veinsmobility 	startTime 	15
scalar IntersectionExampleScenario.node[7].veinsmobility 	totalTime 	58
scalar IntersectionExampleScenario.node[7].veinsmobility 	stopTime 	73.25
scalar IntersectionExampleScenario.node[7].veinsmobility 	minSpeed 	0
scalar IntersectionExampleScenario.node[7].veinsmobility 	maxSpeed 	15.875
scalar IntersectionExampleScenario.node[7].veinsmobility 	totalDistance 	545.31493039316
scalar IntersectionExampleScenario.node[7].veinsmobility 	totalCO2Emission 	151.30299309476
scalar IntersectionExampleScenario.node[13].appl 	VehicleRemoved 	0
scalar IntersectionExampleScenario.node[13].appl 	ArrivedAtDest 	1
scalar IntersectionExampleScenario.node[13].appl 	IntersectionEnterTime 	30.75
scalar IntersectionExampleScenario.node[13].appl 	IntersectionExitTime 	59.6157246652
scalar IntersectionExampleScenario.node[13].appl 	NumberOfCollisions 	0
scalar IntersectionExampleScenario.node[13].nic.phy80211p 	busyTime 	0
scalar IntersectionExampleScenario.node[13].nic.mac1609_4 	ReceivedUnicastPackets 	0
scalar IntersectionExampleScenario.node[13].nic.mac1609_4 	ReceivedBroadcasts 	0
scalar IntersectionExampleScenario.node[13].nic.mac1609_4 	SentPackets 	0
scalar IntersectionExampleScenario.node[13].nic.mac1609_4 	SNIRLostPackets 	0
scalar IntersectionExampleScenario.node[13].nic.mac1609_4 	RXTXLostPackets 	0
scalar IntersectionExampleScenario.node[13].nic.mac1609_4 	TotalLostPackets 	0
scalar IntersectionExampleScenario.node[13].nic.mac1609_4 	DroppedPacketsInMac 	0
scalar IntersectionExampleScenario.node[13].nic.mac1609_4 	TooLittleTime 	0
scalar IntersectionExampleScenario.node[13].nic.mac1609_4 	TimesIntoBackoff 	0
scalar IntersectionExampleScenario.node[13].nic.mac1609_4 	SlotsBackoff 	0
scalar IntersectionExampleScenario.node[13].nic.mac1609_4 	NumInternalContention 	0
scalar IntersectionExampleScenario.node[13].nic.mac1609_4 	totalBusyTime 	0
scalar IntersectionExampleScenario.node[13].veinsmobility 	startTime 	30.75
scalar IntersectionExampleScenario.node[13].veinsmobility 	totalTime 	46.5
scalar IntersectionExampleScenario.node[13].veinsmobility 	stopTime 	77.5
scalar IntersectionExampleScenario.node[13].veinsmobility 	minSpeed 	4.8741731643677
scalar IntersectionExampleScenario.node[13].veinsmobility 	maxSpeed 	14.625
scalar IntersectionExampleScenario.node[13].veinsmobility 	totalDistance 	546.38492291792
scalar IntersectionExampleScenario.node[13].veinsmobility 	totalCO2Emission 	127.85641748194
scalar IntersectionExampleScenario.node[14].appl 	VehicleRemoved 	0
scalar IntersectionExampleScenario.node[14].appl 	ArrivedAtDest 	1
scalar IntersectionExampleScenario.node[14].appl 	IntersectionEnterTime 	31.25
scalar IntersectionExampleScenario.node[14].appl 	IntersectionExitTime 	61.352122570039
scalar IntersectionExampleScenario.node[14].appl 	NumberOfCollisions 	0
scalar IntersectionExampleScenario.node[14].nic.phy80211p 	busyTime 	0
scalar IntersectionExampleScenario.node[14].nic.mac1609_4 	ReceivedUnicastPackets 	0
scalar IntersectionExampleScenario.node[14].nic.mac1609_4 	ReceivedBroadcasts 	0
scalar IntersectionExampleScenario.node[14].nic.mac1609_4 	SentPackets 	0
scalar IntersectionExampleScenario.node[14].nic.mac1609_4 	SNIRLostPackets 	0
scalar IntersectionExampleScenario.node[14].nic.mac1609_4 	RXTXLostPackets 	0
scalar IntersectionExampleScenario.node[14].nic.mac1609_4 	TotalLostPackets 	0
scalar IntersectionExampleScenario.node[14].nic.mac1609_4 	DroppedPacketsInMac 	0
scalar IntersectionExampleScenario.node[14].nic.mac1609_4 	TooLittleTime 	0
scalar IntersectionExampleScenario.node[14].nic.mac1609_4 	TimesIntoBackoff 	0
scalar IntersectionExampleScenario.node[14].nic.mac1609_4 	SlotsBackoff 	0
scalar IntersectionExampleScenario.node[14].nic.mac1609_4 	NumInternalContention 	0
scalar IntersectionExampleScenario.node[14].nic.mac1609_4 	totalBusyTime 	0
scalar IntersectionExampleScenario.node[14].veinsmobility 	startTime 	31.25
scalar IntersectionExampleScenario.node[14].veinsmobility 	totalTime 	46.75
scalar IntersectionExampleScenario.node[14].veinsmobility 	stopTime 	78.25
scalar IntersectionExampleScenario.node[14].veinsmobility 	minSpeed 	4.0913605690002
scalar IntersectionExampleScenario.node[14].veinsmobility 	maxSpeed 	14.875
scalar IntersectionExampleScenario.node[14].veinsmobility 	totalDistance 	578.15165710449
scalar IntersectionExampleScenario.node[14].veinsmobility 	totalCO2Emission 	135.80450447346
scalar IntersectionExampleScenario.node[8].appl 	VehicleRemoved 	0
scalar IntersectionExampleScenario.node[8].appl 	ArrivedAtDest 	1
scalar IntersectionExampleScenario.node[8].appl 	IntersectionEnterTime 	22
scalar IntersectionExampleScenario.node[8].appl 	IntersectionExitTime 	66.330340610264
scalar IntersectionExampleScenario.node[8].appl 	NumberOfCollisions 	0
scalar IntersectionExampleScenario.node[8].nic.phy80211p 	busyTime 	0
scalar IntersectionExampleScenario.node[8].nic.mac1609_4 	ReceivedUnicastPackets 	0
scalar IntersectionExampleScenario.node[8].nic.mac1609_4 	ReceivedBroadcasts 	0
scalar IntersectionExampleScenario.node[8].nic.mac1609_4 	SentPackets 	0
scalar IntersectionExampleScenario.node[8].nic.mac1609_4 	SNIRLostPackets 	0
scalar IntersectionExampleScenario.node[8].nic.mac1609_4 	RXTXLostPackets 	0
scalar IntersectionExampleScenario.node[8].nic.mac1609_4 	TotalLostPackets 	0
scalar IntersectionExampleScenario.node[8].nic.mac1609_4 	DroppedPacketsInMac 	0
scalar IntersectionExampleScenario.node[8].nic.mac1609_4 	TooLittleTime 	0
scalar IntersectionExampleScenario.node[8].nic.mac1609_4 	TimesIntoBackoff 	0
scalar IntersectionExampleScenario.node[8].nic.mac1609_4 	SlotsBackoff 	0
scalar IntersectionExampleScenario.node[8].nic.mac1609_4 	NumInternalContention 	0
scalar IntersectionExampleScenario.node[8].nic.mac1609_4 	totalBusyTime 	0
scalar IntersectionExampleScenario.node[8].veinsmobility 	startTime 	22
scalar IntersectionExampleScenario.node[8].veinsmobility 	totalTime 	60.25
scalar IntersectionExampleScenario.node[8].veinsmobility 	stopTime 	82.5
scalar IntersectionExampleScenario.node[8].veinsmobility 	minSpeed 	0
scalar IntersectionExampleScenario.node[8].veinsmobility 	maxSpeed 	15.64999961853
scalar IntersectionExampleScenario.node[8].veinsmobility 	totalDistance 	552.60361480713
scalar IntersectionExampleScenario.node[8].veinsmobility 	totalCO2Emission 	154.22569264894
scalar IntersectionExampleScenario.node[10].appl 	VehicleRemoved 	0
scalar IntersectionExampleScenario.node[10].appl 	ArrivedAtDest 	1
scalar IntersectionExampleScenario.node[10].appl 	IntersectionEnterTime 	23
scalar IntersectionExampleScenario.node[10].appl 	IntersectionExitTime 	66.323613597779
scalar IntersectionExampleScenario.node[10].appl 	NumberOfCollisions 	0
scalar IntersectionExampleScenario.node[10].nic.phy80211p 	busyTime 	0
scalar IntersectionExampleScenario.node[10].nic.mac1609_4 	ReceivedUnicastPackets 	0
scalar IntersectionExampleScenario.node[10].nic.mac1609_4 	ReceivedBroadcasts 	0
scalar IntersectionExampleScenario.node[10].nic.mac1609_4 	SentPackets 	0
scalar IntersectionExampleScenario.node[10].nic.mac1609_4 	SNIRLostPackets 	0
scalar IntersectionExampleScenario.node[10].nic.mac1609_4 	RXTXLostPackets 	0
scalar IntersectionExampleScenario.node[10].nic.mac1609_4 	TotalLostPackets 	0
scalar IntersectionExampleScenario.node[10].nic.mac1609_4 	DroppedPacketsInMac 	0
scalar IntersectionExampleScenario.node[10].nic.mac1609_4 	TooLittleTime 	0
scalar IntersectionExampleScenario.node[10].nic.mac1609_4 	TimesIntoBackoff 	0
scalar IntersectionExampleScenario.node[10].nic.mac1609_4 	SlotsBackoff 	0
scalar IntersectionExampleScenario.node[10].nic.mac1609_4 	NumInternalContention 	0
scalar IntersectionExampleScenario.node[10].nic.mac1609_4 	totalBusyTime 	0
scalar IntersectionExampleScenario.node[10].veinsmobility 	startTime 	23
scalar IntersectionExampleScenario.node[10].veinsmobility 	totalTime 	59.5
scalar IntersectionExampleScenario.node[10].veinsmobility 	stopTime 	82.75
scalar IntersectionExampleScenario.node[10].veinsmobility 	minSpeed 	0
scalar IntersectionExampleScenario.node[10].veinsmobility 	maxSpeed 	15.375
scalar IntersectionExampleScenario.node[10].veinsmobility 	totalDistance 	549.86319841495
scalar IntersectionExampleScenario.node[10].veinsmobility 	totalCO2Emission 	149.681255949
scalar IntersectionExampleScenario.node[11].appl 	VehicleRemoved 	0
scalar IntersectionExampleScenario.node[11].appl 	ArrivedAtDest 	1
scalar IntersectionExampleScenario.node[11].appl 	IntersectionEnterTime 	28
scalar IntersectionExampleScenario.node[11].appl 	IntersectionExitTime 	67.347811459476
scalar IntersectionExampleScenario.node[11].appl 	NumberOfCollisions 	0
scalar IntersectionExampleScenario.node[11].nic.phy80211p 	busyTime 	0
scalar IntersectionExampleScenario.node[11].nic.mac1609_4 	ReceivedUnicastPackets 	0
scalar IntersectionExampleScenario.node[11].nic.mac1609_4 	ReceivedBroadcasts 	0
scalar IntersectionExampleScenario.node[11].nic.mac1609_4 	SentPackets 	0
scalar IntersectionExampleScenario.node[11].nic.mac1609_4 	SNIRLostPackets 	0
scalar IntersectionExampleScenario.node[11].nic.mac1609_4 	RXTXLostPackets 	0
scalar IntersectionExampleScenario.node[11].nic.mac1609_4 	TotalLostPackets 	0
scalar IntersectionExampleScenario.node[11].nic.mac1609_4 	DroppedPacketsInMac 	0
scalar IntersectionExampleScenario.node[11].nic.mac1609_4 	TooLittleTime 	0
scalar IntersectionExampleScenario.node[11].nic.mac1609_4 	TimesIntoBackoff 	0
scalar IntersectionExampleScenario.node[11].nic.mac1609_4 	SlotsBackoff 	0
scalar IntersectionExampleScenario.node[11].nic.mac1609_4 	NumInternalContention 	0
scalar IntersectionExampleScenario.node[11].nic.mac1609_4 	totalBusyTime 	0
scalar IntersectionExampleScenario.node[11].veinsmobility 	startTime 	28
scalar IntersectionExampleScenario.node[11].veinsmobility 	totalTime 	56.5
scalar IntersectionExampleScenario.node[11].veinsmobility 	stopTime 	84.75
scalar IntersectionExampleScenario.node[11].veinsmobility 	minSpeed 	0
scalar IntersectionExampleScenario.node[11].veinsmobility 	maxSpeed 	15.02499961853
scalar IntersectionExampleScenario.node[11].veinsmobility 	totalDistance 	542.89274420267
scalar IntersectionExampleScenario.node[11].veinsmobility 	totalCO2Emission 	140.77920849554
scalar IntersectionExampleScenario.node[12].appl 	VehicleRemoved 	0
scalar IntersectionExampleScenario.node[12].appl 	ArrivedAtDest 	1
scalar IntersectionExampleScenario.node[12].appl 	IntersectionEnterTime 	30.25
scalar IntersectionExampleScenario.node[12].appl 	IntersectionExitTime 	69.5425001517
scalar IntersectionExampleScenario.node[12].appl 	NumberOfCollisions 	0
scalar IntersectionExampleScenario.node[12].nic.phy80211p 	busyTime 	0
scalar IntersectionExampleScenario.node[12].nic.mac1609_4 	ReceivedUnicastPackets 	0
scalar IntersectionExampleScenario.node[12].nic.mac1609_4 	ReceivedBroadcasts 	0
scalar IntersectionExampleScenario.node[12].nic.mac1609_4 	SentPackets 	0
scalar IntersectionExampleScenario.node[12].nic.mac1609_4 	SNIRLostPackets 	0
scalar IntersectionExampleScenario.node[12].nic.mac1609_4 	RXTXLostPackets 	0
scalar IntersectionExampleScenario.node[12].nic.mac1609_4 	TotalLostPackets 	0
scalar IntersectionExampleScenario.node[12].nic.mac1609_4 	DroppedPacketsInMac 	0
scalar IntersectionExampleScenario.node[12].nic.mac1609_4 	TooLittleTime 	0
scalar IntersectionExampleScenario.node[12].nic.mac1609_4 	TimesIntoBackoff 	0
scalar IntersectionExampleScenario.node[12].nic.mac1609_4 	SlotsBackoff 	0
scalar IntersectionExampleScenario.node[12].nic.mac1609_4 	NumInternalContention 	0
scalar IntersectionExampleScenario.node[12].nic.mac1609_4 	totalBusyTime 	0
scalar IntersectionExampleScenario.node[12].veinsmobility 	startTime 	30.25
scalar IntersectionExampleScenario.node[12].veinsmobility 	totalTime 	55.25
scalar IntersectionExampleScenario.node[12].veinsmobility 	stopTime 	85.75
scalar IntersectionExampleScenario.node[12].veinsmobility 	minSpeed 	1.1900696754456
scalar IntersectionExampleScenario.node[12].veinsmobility 	maxSpeed 	15.5
scalar IntersectionExampleScenario.node[12].veinsmobility 	totalDistance 	568.01219940186
scalar IntersectionExampleScenario.node[12].veinsmobility 	totalCO2Emission 	144.82954309676
scalar IntersectionExampleScenario.node[15].appl 	VehicleRemoved 	0
scalar IntersectionExampleScenario.node[15].appl 	ArrivedAtDest 	1
scalar IntersectionExampleScenario.node[15].appl 	IntersectionEnterTime 	38.25
scalar IntersectionExampleScenario.node[15].appl 	IntersectionExitTime 	69.067362128641
scalar IntersectionExampleScenario.node[15].appl 	NumberOfCollisions 	0
scalar IntersectionExampleScenario.node[15].nic.phy80211p 	busyTime 	0
scalar IntersectionExampleScenario.node[15].nic.mac1609_4 	ReceivedUnicastPackets 	0
scalar IntersectionExampleScenario.node[15].nic.mac1609_4 	ReceivedBroadcasts 	0
scalar IntersectionExampleScenario.node[15].nic.mac1609_4 	SentPackets 	0
scalar IntersectionExampleScenario.node[15].nic.mac1609_4 	SNIRLostPackets 	0
scalar IntersectionExampleScenario.node[15].nic.mac1609_4 	RXTXLostPackets 	0
scalar IntersectionExampleScenario.node[15].nic.mac1609_4 	TotalLostPackets 	0
scalar IntersectionExampleScenario.node[15].nic.mac1609_4 	DroppedPacketsInMac 	0
scalar IntersectionExampleScenario.node[15].nic.mac1609_4 	TooLittleTime 	0
scalar IntersectionExampleScenario.node[15].nic.mac1609_4 	TimesIntoBackoff 	0
scalar IntersectionExampleScenario.node[15].nic.mac1609_4 	SlotsBackoff 	0
scalar IntersectionExampleScenario.node[15].nic.mac1609_4 	NumInternalContention 	0
scalar IntersectionExampleScenario.node[15].nic.mac1609_4 	totalBusyTime 	0
scalar IntersectionExampleScenario.node[15].veinsmobility 	startTime 	38.25
scalar IntersectionExampleScenario.node[15].veinsmobility 	totalTime 	47.75
scalar IntersectionExampleScenario.node[15].veinsmobility 	stopTime 	86.25
scalar IntersectionExampleScenario.node[15].veinsmobility 	minSpeed 	3.0266647338867
scalar IntersectionExampleScenario.node[15].veinsmobility 	maxSpeed 	15.64999961853
scalar IntersectionExampleScenario.node[15].veinsmobility 	totalDistance 	549.77327292309
scalar IntersectionExampleScenario.node[15].veinsmobility 	totalCO2Emission 	136.48714101024
scalar IntersectionExampleScenario.node[16].appl 	VehicleRemoved 	0
scalar IntersectionExampleScenario.node[16].appl 	ArrivedAtDest 	1
scalar IntersectionExampleScenario.node[16].appl 	IntersectionEnterTime 	38.5
scalar IntersectionExampleScenario.node[16].appl 	IntersectionExitTime 	70.521823554882
scalar IntersectionExampleScenario.node[16].appl 	NumberOfCollisions 	0
scalar IntersectionExampleScenario.node[16].nic.phy80211p 	busyTime 	0
scalar IntersectionExampleScenario.node[16].nic.mac1609_4 	ReceivedUnicastPackets 	0
scalar IntersectionExampleScenario.node[16].nic.mac1609_4 	ReceivedBroadcasts 	0
scalar IntersectionExampleScenario.node[16].nic.mac1609_4 	SentPackets 	0
scalar IntersectionExampleScenario.node[16].nic.mac1609_4 	SNIRLostPackets 	0
scalar IntersectionExampleScenario.node[16].nic.mac1609_4 	RXTXLostPackets 	0
scalar IntersectionExampleScenario.node[16].nic.mac1609_4 	TotalLostPackets 	0
scalar IntersectionExampleScenario.node[16].nic.mac1609_4 	DroppedPacketsInMac 	0
scalar IntersectionExampleScenario.node[16].nic.mac1609_4 	TooLittleTime 	0
scalar IntersectionExampleScenario.node[16].nic.mac1609_4 	TimesIntoBackoff 	0
scalar IntersectionExampleScenario.node[16].nic.mac1609_4 	SlotsBackoff 	0
scalar IntersectionExampleScenario.node[16].nic.mac1609_4 	NumInternalContention 	0
scalar IntersectionExampleScenario.node[16].nic.mac1609_4 	totalBusyTime 	0
scalar IntersectionExampleScenario.node[16].veinsmobility 	startTime 	38.5
scalar IntersectionExampleScenario.node[16].veinsmobility 	totalTime 	48.5
scalar IntersectionExampleScenario.node[16].veinsmobility 	stopTime 	87.25
scalar IntersectionExampleScenario.node[16].veinsmobility 	minSpeed 	3.6695687770844
scalar IntersectionExampleScenario.node[16].veinsmobility 	maxSpeed 	14.971725463867
scalar IntersectionExampleScenario.node[16].veinsmobility 	totalDistance 	577.36167907715
scalar IntersectionExampleScenario.node[16].veinsmobility 	totalCO2Emission 	139.50261844142
scalar IntersectionExampleScenario.node[17].appl 	VehicleRemoved 	0
scalar IntersectionExampleScenario.node[17].appl 	ArrivedAtDest 	1
scalar IntersectionExampleScenario.node[17].appl 	IntersectionEnterTime 	44.25
scalar IntersectionExampleScenario.node[17].appl 	IntersectionExitTime 	71.808899193391
scalar IntersectionExampleScenario.node[17].appl 	NumberOfCollisions 	0
scalar IntersectionExampleScenario.node[17].nic.phy80211p 	busyTime 	0
scalar IntersectionExampleScenario.node[17].nic.mac1609_4 	ReceivedUnicastPackets 	0
scalar IntersectionExampleScenario.node[17].nic.mac1609_4 	ReceivedBroadcasts 	0
scalar IntersectionExampleScenario.node[17].nic.mac1609_4 	SentPackets 	0
scalar IntersectionExampleScenario.node[17].nic.mac1609_4 	SNIRLostPackets 	0
scalar IntersectionExampleScenario.node[17].nic.mac1609_4 	RXTXLostPackets 	0
scalar IntersectionExampleScenario.node[17].nic.mac1609_4 	TotalLostPackets 	0
scalar IntersectionExampleScenario.node[17].nic.mac1609_4 	DroppedPacketsInMac 	0
scalar IntersectionExampleScenario.node[17].nic.mac1609_4 	TooLittleTime 	0
scalar IntersectionExampleScenario.node[17].nic.mac1609_4 	TimesIntoBackoff 	0
scalar IntersectionExampleScenario.node[17].nic.mac1609_4 	SlotsBackoff 	0
scalar IntersectionExampleScenario.node[17].nic.mac1609_4 	NumInternalContention 	0
scalar IntersectionExampleScenario.node[17].nic.mac1609_4 	totalBusyTime 	0
scalar IntersectionExampleScenario.node[17].veinsmobility 	startTime 	44.25
scalar IntersectionExampleScenario.node[17].veinsmobility 	totalTime 	43.75
scalar IntersectionExampleScenario.node[17].veinsmobility 	stopTime 	88.25
scalar IntersectionExampleScenario.node[17].veinsmobility 	minSpeed 	5.6500000953674
scalar IntersectionExampleScenario.node[17].veinsmobility 	maxSpeed 	15.333658218384
scalar IntersectionExampleScenario.node[17].veinsmobility 	totalDistance 	553.416847229
scalar IntersectionExampleScenario.node[17].veinsmobility 	totalCO2Emission 	129.10021149291
scalar IntersectionExampleScenario.node[20].appl 	VehicleRemoved 	0
scalar IntersectionExampleScenario.node[20].appl 	ArrivedAtDest 	1
scalar IntersectionExampleScenario.node[20].appl 	IntersectionEnterTime 	47.5
scalar IntersectionExampleScenario.node[20].appl 	IntersectionExitTime 	72.536912071198
scalar IntersectionExampleScenario.node[20].appl 	NumberOfCollisions 	0
scalar IntersectionExampleScenario.node[20].nic.phy80211p 	busyTime 	0
scalar IntersectionExampleScenario.node[20].nic.mac1609_4 	ReceivedUnicastPackets 	0
scalar IntersectionExampleScenario.node[20].nic.mac1609_4 	ReceivedBroadcasts 	0
scalar IntersectionExampleScenario.node[20].nic.mac1609_4 	SentPackets 	0
scalar IntersectionExampleScenario.node[20].nic.mac1609_4 	SNIRLostPackets 	0
scalar IntersectionExampleScenario.node[20].nic.mac1609_4 	RXTXLostPackets 	0
scalar IntersectionExampleScenario.node[20].nic.mac1609_4 	TotalLostPackets 	0
scalar IntersectionExampleScenario.node[20].nic.mac1609_4 	DroppedPacketsInMac 	0
scalar IntersectionExampleScenario.node[20].nic.mac1609_4 	TooLittleTime 	0
scalar IntersectionExampleScenario.node[20].nic.mac1609_4 	TimesIntoBackoff 	0
scalar IntersectionExampleScenario.node[20].nic.mac1609_4 	SlotsBackoff 	0
scalar IntersectionExampleScenario.node[20].nic.mac1609_4 	NumInternalContention 	0
scalar IntersectionExampleScenario.node[20].nic.mac1609_4 	totalBusyTime 	0
scalar IntersectionExampleScenario.node[20].veinsmobility 	startTime 	47.5
scalar IntersectionExampleScenario.node[20].veinsmobility 	totalTime 	40.75
scalar IntersectionExampleScenario.node[20].veinsmobility 	stopTime 	88.5
scalar IntersectionExampleScenario.node[20].veinsmobility 	minSpeed 	5.6500000953674
scalar IntersectionExampleScenario.node[20].veinsmobility 	maxSpeed 	16.319488525391
scalar IntersectionExampleScenario.node[20].veinsmobility 	totalDistance 	555.03178405762
scalar IntersectionExampleScenario.node[20].veinsmobility 	totalCO2Emission 	130.85964402295
scalar IntersectionExampleScenario.node[18].appl 	VehicleRemoved 	0
scalar IntersectionExampleScenario.node[18].appl 	ArrivedAtDest 	1
scalar IntersectionExampleScenario.node[18].appl 	IntersectionEnterTime 	45.75
scalar IntersectionExampleScenario.node[18].appl 	IntersectionExitTime 	73.87052128755
scalar IntersectionExampleScenario.node[18].appl 	NumberOfCollisions 	0
scalar IntersectionExampleScenario.node[18].nic.phy80211p 	busyTime 	0
scalar IntersectionExampleScenario.node[18].nic.mac1609_4 	ReceivedUnicastPackets 	0
scalar IntersectionExampleScenario.node[18].nic.mac1609_4 	ReceivedBroadcasts 	0
scalar IntersectionExampleScenario.node[18].nic.mac1609_4 	SentPackets 	0
scalar IntersectionExampleScenario.node[18].nic.mac1609_4 	SNIRLostPackets 	0
scalar IntersectionExampleScenario.node[18].nic.mac1609_4 	RXTXLostPackets 	0
scalar IntersectionExampleScenario.node[18].nic.mac1609_4 	TotalLostPackets 	0
scalar IntersectionExampleScenario.node[18].nic.mac1609_4 	DroppedPacketsInMac 	0
scalar IntersectionExampleScenario.node[18].nic.mac1609_4 	TooLittleTime 	0
scalar IntersectionExampleScenario.node[18].nic.mac1609_4 	TimesIntoBackoff 	0
scalar IntersectionExampleScenario.node[18].nic.mac1609_4 	SlotsBackoff 	0
scalar IntersectionExampleScenario.node[18].nic.mac1609_4 	NumInternalContention 	0
scalar IntersectionExampleScenario.node[18].nic.mac1609_4 	totalBusyTime 	0
scalar IntersectionExampleScenario.node[18].veinsmobility 	startTime 	45.75
scalar IntersectionExampleScenario.node[18].veinsmobility 	totalTime 	44.5
scalar IntersectionExampleScenario.node[18].veinsmobility 	stopTime 	90.5
scalar IntersectionExampleScenario.node[18].veinsmobility 	minSpeed 	5.6500000953674
scalar IntersectionExampleScenario.node[18].veinsmobility 	maxSpeed 	15.532896995544
scalar IntersectionExampleScenario.node[18].veinsmobility 	totalDistance 	564.19070885772
scalar IntersectionExampleScenario.node[18].veinsmobility 	totalCO2Emission 	140.48724814831
scalar IntersectionExampleScenario.node[19].appl 	VehicleRemoved 	0
scalar IntersectionExampleScenario.node[19].appl 	ArrivedAtDest 	1
scalar IntersectionExampleScenario.node[19].appl 	IntersectionEnterTime 	46.25
scalar IntersectionExampleScenario.node[19].appl 	IntersectionExitTime 	75.587143769808
scalar IntersectionExampleScenario.node[19].appl 	NumberOfCollisions 	0
scalar IntersectionExampleScenario.node[19].nic.phy80211p 	busyTime 	0
scalar IntersectionExampleScenario.node[19].nic.mac1609_4 	ReceivedUnicastPackets 	0
scalar IntersectionExampleScenario.node[19].nic.mac1609_4 	ReceivedBroadcasts 	0
scalar IntersectionExampleScenario.node[19].nic.mac1609_4 	SentPackets 	0
scalar IntersectionExampleScenario.node[19].nic.mac1609_4 	SNIRLostPackets 	0
scalar IntersectionExampleScenario.node[19].nic.mac1609_4 	RXTXLostPackets 	0
scalar IntersectionExampleScenario.node[19].nic.mac1609_4 	TotalLostPackets 	0
scalar IntersectionExampleScenario.node[19].nic.mac1609_4 	DroppedPacketsInMac 	0
scalar IntersectionExampleScenario.node[19].nic.mac1609_4 	TooLittleTime 	0
scalar IntersectionExampleScenario.node[19].nic.mac1609_4 	TimesIntoBackoff 	0
scalar IntersectionExampleScenario.node[19].nic.mac1609_4 	SlotsBackoff 	0
scalar IntersectionExampleScenario.node[19].nic.mac1609_4 	NumInternalContention 	0
scalar IntersectionExampleScenario.node[19].nic.mac1609_4 	totalBusyTime 	0
scalar IntersectionExampleScenario.node[19].veinsmobility 	startTime 	46.25
scalar IntersectionExampleScenario.node[19].veinsmobility 	totalTime 	45.75
scalar IntersectionExampleScenario.node[19].veinsmobility 	stopTime 	92.25
scalar IntersectionExampleScenario.node[19].veinsmobility 	minSpeed 	0
scalar IntersectionExampleScenario.node[19].veinsmobility 	maxSpeed 	16.27499961853
scalar IntersectionExampleScenario.node[19].veinsmobility 	totalDistance 	546.35354520232
scalar IntersectionExampleScenario.node[19].veinsmobility 	totalCO2Emission 	141.88692273625
scalar IntersectionExampleScenario.node[22].appl 	VehicleRemoved 	0
scalar IntersectionExampleScenario.node[22].appl 	ArrivedAtDest 	1
scalar IntersectionExampleScenario.node[22].appl 	IntersectionEnterTime 	52.75
scalar IntersectionExampleScenario.node[22].appl 	IntersectionExitTime 	78.25020559461
scalar IntersectionExampleScenario.node[22].appl 	NumberOfCollisions 	0
scalar IntersectionExampleScenario.node[22].nic.phy80211p 	busyTime 	0
scalar IntersectionExampleScenario.node[22].nic.mac1609_4 	ReceivedUnicastPackets 	0
scalar IntersectionExampleScenario.node[22].nic.mac1609_4 	ReceivedBroadcasts 	0
scalar IntersectionExampleScenario.node[22].nic.mac1609_4 	SentPackets 	0
scalar IntersectionExampleScenario.node[22].nic.mac1609_4 	SNIRLostPackets 	0
scalar IntersectionExampleScenario.node[22].nic.mac1609_4 	RXTXLostPackets 	0
scalar IntersectionExampleScenario.node[22].nic.mac1609_4 	TotalLostPackets 	0
scalar IntersectionExampleScenario.node[22].nic.mac1609_4 	DroppedPacketsInMac 	0
scalar IntersectionExampleScenario.node[22].nic.mac1609_4 	TooLittleTime 	0
scalar IntersectionExampleScenario.node[22].nic.mac1609_4 	TimesIntoBackoff 	0
scalar IntersectionExampleScenario.node[22].nic.mac1609_4 	SlotsBackoff 	0
scalar IntersectionExampleScenario.node[22].nic.mac1609_4 	NumInternalContention 	0
scalar IntersectionExampleScenario.node[22].nic.mac1609_4 	totalBusyTime 	0
scalar IntersectionExampleScenario.node[22].veinsmobility 	startTime 	52.75
scalar IntersectionExampleScenario.node[22].veinsmobility 	totalTime 	41.25
scalar IntersectionExampleScenario.node[22].veinsmobility 	stopTime 	94.25
scalar IntersectionExampleScenario.node[22].veinsmobility 	minSpeed 	5.6500000953674
scalar IntersectionExampleScenario.node[22].veinsmobility 	maxSpeed 	16.125
scalar IntersectionExampleScenario.node[22].veinsmobility 	totalDistance 	553.96280670166
scalar IntersectionExampleScenario.node[22].veinsmobility 	totalCO2Emission 	132.2282863304
scalar IntersectionExampleScenario.node[24].appl 	VehicleRemoved 	0
scalar IntersectionExampleScenario.node[24].appl 	ArrivedAtDest 	1
scalar IntersectionExampleScenario.node[24].appl 	IntersectionEnterTime 	53.75
scalar IntersectionExampleScenario.node[24].appl 	IntersectionExitTime 	81.116534667381
scalar IntersectionExampleScenario.node[24].appl 	NumberOfCollisions 	0
scalar IntersectionExampleScenario.node[24].nic.phy80211p 	busyTime 	0
scalar IntersectionExampleScenario.node[24].nic.mac1609_4 	ReceivedUnicastPackets 	0
scalar IntersectionExampleScenario.node[24].nic.mac1609_4 	ReceivedBroadcasts 	0
scalar IntersectionExampleScenario.node[24].nic.mac1609_4 	SentPackets 	0
scalar IntersectionExampleScenario.node[24].nic.mac1609_4 	SNIRLostPackets 	0
scalar IntersectionExampleScenario.node[24].nic.mac1609_4 	RXTXLostPackets 	0
scalar IntersectionExampleScenario.node[24].nic.mac1609_4 	TotalLostPackets 	0
scalar IntersectionExampleScenario.node[24].nic.mac1609_4 	DroppedPacketsInMac 	0
scalar IntersectionExampleScenario.node[24].nic.mac1609_4 	TooLittleTime 	0
scalar IntersectionExampleScenario.node[24].nic.mac1609_4 	TimesIntoBackoff 	0
scalar IntersectionExampleScenario.node[24].nic.mac1609_4 	SlotsBackoff 	0
scalar IntersectionExampleScenario.node[24].nic.mac1609_4 	NumInternalContention 	0
scalar IntersectionExampleScenario.node[24].nic.mac1609_4 	totalBusyTime 	0
scalar IntersectionExampleScenario.node[24].veinsmobility 	startTime 	53.75
scalar IntersectionExampleScenario.node[24].veinsmobility 	totalTime 	43.5
scalar IntersectionExampleScenario.node[24].veinsmobility 	stopTime 	97.5
scalar IntersectionExampleScenario.node[24].veinsmobility 	minSpeed 	5.6500000953674
scalar IntersectionExampleScenario.node[24].veinsmobility 	maxSpeed 	15.948006629944
scalar IntersectionExampleScenario.node[24].veinsmobility 	totalDistance 	568.93203731815
scalar IntersectionExampleScenario.node[24].veinsmobility 	totalCO2Emission 	150.31378966502
scalar IntersectionExampleScenario.node[21].appl 	VehicleRemoved 	0
scalar IntersectionExampleScenario.node[21].appl 	ArrivedAtDest 	1
scalar IntersectionExampleScenario.node[21].appl 	IntersectionEnterTime 	48.25
scalar IntersectionExampleScenario.node[21].appl 	IntersectionExitTime 	87.32598153851
scalar IntersectionExampleScenario.node[21].appl 	NumberOfCollisions 	0
scalar IntersectionExampleScenario.node[21].nic.phy80211p 	busyTime 	0
scalar IntersectionExampleScenario.node[21].nic.mac1609_4 	ReceivedUnicastPackets 	0
scalar IntersectionExampleScenario.node[21].nic.mac1609_4 	ReceivedBroadcasts 	0
scalar IntersectionExampleScenario.node[21].nic.mac1609_4 	SentPackets 	0
scalar IntersectionExampleScenario.node[21].nic.mac1609_4 	SNIRLostPackets 	0
scalar IntersectionExampleScenario.node[21].nic.mac1609_4 	RXTXLostPackets 	0
scalar IntersectionExampleScenario.node[21].nic.mac1609_4 	TotalLostPackets 	0
scalar IntersectionExampleScenario.node[21].nic.mac1609_4 	DroppedPacketsInMac 	0
scalar IntersectionExampleScenario.node[21].nic.mac1609_4 	TooLittleTime 	0
scalar IntersectionExampleScenario.node[21].nic.mac1609_4 	TimesIntoBackoff 	0
scalar IntersectionExampleScenario.node[21].nic.mac1609_4 	SlotsBackoff 	0
scalar IntersectionExampleScenario.node[21].nic.mac1609_4 	NumInternalContention 	0
scalar IntersectionExampleScenario.node[21].nic.mac1609_4 	totalBusyTime 	0
scalar IntersectionExampleScenario.node[21].veinsmobility 	startTime 	48.25
scalar IntersectionExampleScenario.node[21].veinsmobility 	totalTime 	54.75
scalar IntersectionExampleScenario.node[21].veinsmobility 	stopTime 	103.25
scalar IntersectionExampleScenario.node[21].veinsmobility 	minSpeed 	0
scalar IntersectionExampleScenario.node[21].veinsmobility 	maxSpeed 	16
scalar IntersectionExampleScenario.node[21].veinsmobility 	totalDistance 	554.8038482666
scalar IntersectionExampleScenario.node[21].veinsmobility 	totalCO2Emission 	150.60549450187
scalar IntersectionExampleScenario.node[26].appl 	VehicleRemoved 	0
scalar IntersectionExampleScenario.node[26].appl 	ArrivedAtDest 	1
scalar IntersectionExampleScenario.node[26].appl 	IntersectionEnterTime 	65.5
scalar IntersectionExampleScenario.node[26].appl 	IntersectionExitTime 	90.574879958382
scalar IntersectionExampleScenario.node[26].appl 	NumberOfCollisions 	0
scalar IntersectionExampleScenario.node[26].nic.phy80211p 	busyTime 	0
scalar IntersectionExampleScenario.node[26].nic.mac1609_4 	ReceivedUnicastPackets 	0
scalar IntersectionExampleScenario.node[26].nic.mac1609_4 	ReceivedBroadcasts 	0
scalar IntersectionExampleScenario.node[26].nic.mac1609_4 	SentPackets 	0
scalar IntersectionExampleScenario.node[26].nic.mac1609_4 	SNIRLostPackets 	0
scalar IntersectionExampleScenario.node[26].nic.mac1609_4 	RXTXLostPackets 	0
scalar IntersectionExampleScenario.node[26].nic.mac1609_4 	TotalLostPackets 	0
scalar IntersectionExampleScenario.node[26].nic.mac1609_4 	DroppedPacketsInMac 	0
scalar IntersectionExampleScenario.node[26].nic.mac1609_4 	TooLittleTime 	0
scalar IntersectionExampleScenario.node[26].nic.mac1609_4 	TimesIntoBackoff 	0
scalar IntersectionExampleScenario.node[26].nic.mac1609_4 	SlotsBackoff 	0
scalar IntersectionExampleScenario.node[26].nic.mac1609_4 	NumInternalContention 	0
scalar IntersectionExampleScenario.node[26].nic.mac1609_4 	totalBusyTime 	0
scalar IntersectionExampleScenario.node[26].veinsmobility 	startTime 	65.5
scalar IntersectionExampleScenario.node[26].veinsmobility 	totalTime 	41.5
scalar IntersectionExampleScenario.node[26].veinsmobility 	stopTime 	107.25
scalar IntersectionExampleScenario.node[26].veinsmobility 	minSpeed 	5.6500000953674
scalar IntersectionExampleScenario.node[26].veinsmobility 	maxSpeed 	15.875
scalar IntersectionExampleScenario.node[26].veinsmobility 	totalDistance 	545.4584347084
scalar IntersectionExampleScenario.node[26].veinsmobility 	totalCO2Emission 	141.01394580421
scalar IntersectionExampleScenario.node[27].appl 	VehicleRemoved 	0
scalar IntersectionExampleScenario.node[27].appl 	ArrivedAtDest 	1
scalar IntersectionExampleScenario.node[27].appl 	IntersectionEnterTime 	66
scalar IntersectionExampleScenario.node[27].appl 	IntersectionExitTime 	92.251130548277
scalar IntersectionExampleScenario.node[27].appl 	NumberOfCollisions 	0
scalar IntersectionExampleScenario.node[27].nic.phy80211p 	busyTime 	0
scalar IntersectionExampleScenario.node[27].nic.mac1609_4 	ReceivedUnicastPackets 	0
scalar IntersectionExampleScenario.node[27].nic.mac1609_4 	ReceivedBroadcasts 	0
scalar IntersectionExampleScenario.node[27].nic.mac1609_4 	SentPackets 	0
scalar IntersectionExampleScenario.node[27].nic.mac1609_4 	SNIRLostPackets 	0
scalar IntersectionExampleScenario.node[27].nic.mac1609_4 	RXTXLostPackets 	0
scalar IntersectionExampleScenario.node[27].nic.mac1609_4 	TotalLostPackets 	0
scalar IntersectionExampleScenario.node[27].nic.mac1609_4 	DroppedPacketsInMac 	0
scalar IntersectionExampleScenario.node[27].nic.mac1609_4 	TooLittleTime 	0
scalar IntersectionExampleScenario.node[27].nic.mac1609_4 	TimesIntoBackoff 	0
scalar IntersectionExampleScenario.node[27].nic.mac1609_4 	SlotsBackoff 	0
scalar IntersectionExampleScenario.node[27].nic.mac1609_4 	NumInternalContention 	0
scalar IntersectionExampleScenario.node[27].nic.mac1609_4 	totalBusyTime 	0
scalar IntersectionExampleScenario.node[27].veinsmobility 	startTime 	66
scalar IntersectionExampleScenario.node[27].veinsmobility 	totalTime 	42.25
scalar IntersectionExampleScenario.node[27].veinsmobility 	stopTime 	108.5
scalar IntersectionExampleScenario.node[27].veinsmobility 	minSpeed 	5.6500000953674
scalar IntersectionExampleScenario.node[27].veinsmobility 	maxSpeed 	16.263456344604
scalar IntersectionExampleScenario.node[27].veinsmobility 	totalDistance 	569.03971021781
scalar IntersectionExampleScenario.node[27].veinsmobility 	totalCO2Emission 	139.85073010372
scalar IntersectionExampleScenario.node[23].appl 	VehicleRemoved 	0
scalar IntersectionExampleScenario.node[23].appl 	ArrivedAtDest 	1
scalar IntersectionExampleScenario.node[23].appl 	IntersectionEnterTime 	53.5
scalar IntersectionExampleScenario.node[23].appl 	IntersectionExitTime 	97.321718960797
scalar IntersectionExampleScenario.node[23].appl 	NumberOfCollisions 	0
scalar IntersectionExampleScenario.node[23].nic.phy80211p 	busyTime 	0
scalar IntersectionExampleScenario.node[23].nic.mac1609_4 	ReceivedUnicastPackets 	0
scalar IntersectionExampleScenario.node[23].nic.mac1609_4 	ReceivedBroadcasts 	0
scalar IntersectionExampleScenario.node[23].nic.mac1609_4 	SentPackets 	0
scalar IntersectionExampleScenario.node[23].nic.mac1609_4 	SNIRLostPackets 	0
scalar IntersectionExampleScenario.node[23].nic.mac1609_4 	RXTXLostPackets 	0
scalar IntersectionExampleScenario.node[23].nic.mac1609_4 	TotalLostPackets 	0
scalar IntersectionExampleScenario.node[23].nic.mac1609_4 	DroppedPacketsInMac 	0
scalar IntersectionExampleScenario.node[23].nic.mac1609_4 	TooLittleTime 	0
scalar IntersectionExampleScenario.node[23].nic.mac1609_4 	TimesIntoBackoff 	0
scalar IntersectionExampleScenario.node[23].nic.mac1609_4 	SlotsBackoff 	0
scalar IntersectionExampleScenario.node[23].nic.mac1609_4 	NumInternalContention 	0
scalar IntersectionExampleScenario.node[23].nic.mac1609_4 	totalBusyTime 	0
scalar IntersectionExampleScenario.node[23].veinsmobility 	startTime 	53.5
scalar IntersectionExampleScenario.node[23].veinsmobility 	totalTime 	60
scalar IntersectionExampleScenario.node[23].veinsmobility 	stopTime 	113.75
scalar IntersectionExampleScenario.node[23].veinsmobility 	minSpeed 	0
scalar IntersectionExampleScenario.node[23].veinsmobility 	maxSpeed 	15.467860221863
scalar IntersectionExampleScenario.node[23].veinsmobility 	totalDistance 	548.74363054385
scalar IntersectionExampleScenario.node[23].veinsmobility 	totalCO2Emission 	153.30989517311
scalar IntersectionExampleScenario.node[29].appl 	VehicleRemoved 	0
scalar IntersectionExampleScenario.node[29].appl 	ArrivedAtDest 	1
scalar IntersectionExampleScenario.node[29].appl 	IntersectionEnterTime 	73.75
scalar IntersectionExampleScenario.node[29].appl 	IntersectionExitTime 	99.52624946658
scalar IntersectionExampleScenario.node[29].appl 	NumberOfCollisions 	0
scalar IntersectionExampleScenario.node[29].nic.phy80211p 	busyTime 	0
scalar IntersectionExampleScenario.node[29].nic.mac1609_4 	ReceivedUnicastPackets 	0
scalar IntersectionExampleScenario.node[29].nic.mac1609_4 	ReceivedBroadcasts 	0
scalar IntersectionExampleScenario.node[29].nic.mac1609_4 	SentPackets 	0
scalar IntersectionExampleScenario.node[29].nic.mac1609_4 	SNIRLostPackets 	0
scalar IntersectionExampleScenario.node[29].nic.mac1609_4 	RXTXLostPackets 	0
scalar IntersectionExampleScenario.node[29].nic.mac1609_4 	TotalLostPackets 	0
scalar IntersectionExampleScenario.node[29].nic.mac1609_4 	DroppedPacketsInMac 	0
scalar IntersectionExampleScenario.node[29].nic.mac1609_4 	TooLittleTime 	0
scalar IntersectionExampleScenario.node[29].nic.mac1609_4 	TimesIntoBackoff 	0
scalar IntersectionExampleScenario.node[29].nic.mac1609_4 	SlotsBackoff 	0
scalar IntersectionExampleScenario.node[29].nic.mac1609_4 	NumInternalContention 	0
scalar IntersectionExampleScenario.node[29].nic.mac1609_4 	totalBusyTime 	0
scalar IntersectionExampleScenario.node[29].veinsmobility 	startTime 	73.75
scalar IntersectionExampleScenario.node[29].veinsmobility 	totalTime 	42
scalar IntersectionExampleScenario.node[29].veinsmobility 	stopTime 	116
scalar IntersectionExampleScenario.node[29].veinsmobility 	minSpeed 	0
scalar IntersectionExampleScenario.node[29].veinsmobility 	maxSpeed 	15.662709236145
scalar IntersectionExampleScenario.node[29].veinsmobility 	totalDistance 	544.06412653284
scalar IntersectionExampleScenario.node[29].veinsmobility 	totalCO2Emission 	138.39313628934
scalar IntersectionExampleScenario.node[25].appl 	VehicleRemoved 	0
scalar IntersectionExampleScenario.node[25].appl 	ArrivedAtDest 	1
scalar IntersectionExampleScenario.node[25].appl 	IntersectionEnterTime 	64
scalar IntersectionExampleScenario.node[25].appl 	IntersectionExitTime 	107.32692502122
scalar IntersectionExampleScenario.node[25].appl 	NumberOfCollisions 	0
scalar IntersectionExampleScenario.node[25].nic.phy80211p 	busyTime 	0
scalar IntersectionExampleScenario.node[25].nic.mac1609_4 	ReceivedUnicastPackets 	0
scalar IntersectionExampleScenario.node[25].nic.mac1609_4 	ReceivedBroadcasts 	0
scalar IntersectionExampleScenario.node[25].nic.mac1609_4 	SentPackets 	0
scalar IntersectionExampleScenario.node[25].nic.mac1609_4 	SNIRLostPackets 	0
scalar IntersectionExampleScenario.node[25].nic.mac1609_4 	RXTXLostPackets 	0
scalar IntersectionExampleScenario.node[25].nic.mac1609_4 	TotalLostPackets 	0
scalar IntersectionExampleScenario.node[25].nic.mac1609_4 	DroppedPacketsInMac 	0
scalar IntersectionExampleScenario.node[25].nic.mac1609_4 	TooLittleTime 	0
scalar IntersectionExampleScenario.node[25].nic.mac1609_4 	TimesIntoBackoff 	0
scalar IntersectionExampleScenario.node[25].nic.mac1609_4 	SlotsBackoff 	0
scalar IntersectionExampleScenario.node[25].nic.mac1609_4 	NumInternalContention 	0
scalar IntersectionExampleScenario.node[25].nic.mac1609_4 	totalBusyTime 	0
scalar IntersectionExampleScenario.node[25].veinsmobility 	startTime 	64
scalar IntersectionExampleScenario.node[25].veinsmobility 	totalTime 	58.5
scalar IntersectionExampleScenario.node[25].veinsmobility 	stopTime 	122.75
scalar IntersectionExampleScenario.node[25].veinsmobility 	minSpeed 	0
scalar IntersectionExampleScenario.node[25].veinsmobility 	maxSpeed 	16.367193222046
scalar IntersectionExampleScenario.node[25].veinsmobility 	totalDistance 	551.7405166626
scalar IntersectionExampleScenario.node[25].veinsmobility 	totalCO2Emission 	159.04710202088
scalar IntersectionExampleScenario.node[28].appl 	VehicleRemoved 	0
scalar IntersectionExampleScenario.node[28].appl 	ArrivedAtDest 	1
scalar IntersectionExampleScenario.node[28].appl 	IntersectionEnterTime 	68.25
scalar IntersectionExampleScenario.node[28].appl 	IntersectionExitTime 	108.33321904362
scalar IntersectionExampleScenario.node[28].appl 	NumberOfCollisions 	0
scalar IntersectionExampleScenario.node[28].nic.phy80211p 	busyTime 	0
scalar IntersectionExampleScenario.node[28].nic.mac1609_4 	ReceivedUnicastPackets 	0
scalar IntersectionExampleScenario.node[28].nic.mac1609_4 	ReceivedBroadcasts 	0
scalar IntersectionExampleScenario.node[28].nic.mac1609_4 	SentPackets 	0
scalar IntersectionExampleScenario.node[28].nic.mac1609_4 	SNIRLostPackets 	0
scalar IntersectionExampleScenario.node[28].nic.mac1609_4 	RXTXLostPackets 	0
scalar IntersectionExampleScenario.node[28].nic.mac1609_4 	TotalLostPackets 	0
scalar IntersectionExampleScenario.node[28].nic.mac1609_4 	DroppedPacketsInMac 	0
scalar IntersectionExampleScenario.node[28].nic.mac1609_4 	TooLittleTime 	0
scalar IntersectionExampleScenario.node[28].nic.mac1609_4 	TimesIntoBackoff 	0
scalar IntersectionExampleScenario.node[28].nic.mac1609_4 	SlotsBackoff 	0
scalar IntersectionExampleScenario.node[28].nic.mac1609_4 	NumInternalContention 	0
scalar IntersectionExampleScenario.node[28].nic.mac1609_4 	totalBusyTime 	0
scalar IntersectionExampleScenario.node[28].veinsmobility 	startTime 	68.25
scalar IntersectionExampleScenario.node[28].veinsmobility 	totalTime 	56.25
scalar IntersectionExampleScenario.node[28].veinsmobility 	stopTime 	124.75
scalar IntersectionExampleScenario.node[28].veinsmobility 	minSpeed 	0
scalar IntersectionExampleScenario.node[28].veinsmobility 	maxSpeed 	16.27499961853
scalar IntersectionExampleScenario.node[28].veinsmobility 	totalDistance 	548.41821556838
scalar IntersectionExampleScenario.node[28].veinsmobility 	totalCO2Emission 	151.32487477315
scalar IntersectionExampleScenario.node[30].appl 	VehicleRemoved 	0
scalar IntersectionExampleScenario.node[30].appl 	ArrivedAtDest 	1
scalar IntersectionExampleScenario.node[30].appl 	IntersectionEnterTime 	74.5
scalar IntersectionExampleScenario.node[30].appl 	IntersectionExitTime 	110.81718307163
scalar IntersectionExampleScenario.node[30].appl 	NumberOfCollisions 	0
scalar IntersectionExampleScenario.node[30].nic.phy80211p 	busyTime 	0
scalar IntersectionExampleScenario.node[30].nic.mac1609_4 	ReceivedUnicastPackets 	0
scalar IntersectionExampleScenario.node[30].nic.mac1609_4 	ReceivedBroadcasts 	0
scalar IntersectionExampleScenario.node[30].nic.mac1609_4 	SentPackets 	0
scalar IntersectionExampleScenario.node[30].nic.mac1609_4 	SNIRLostPackets 	0
scalar IntersectionExampleScenario.node[30].nic.mac1609_4 	RXTXLostPackets 	0
scalar IntersectionExampleScenario.node[30].nic.mac1609_4 	TotalLostPackets 	0
scalar IntersectionExampleScenario.node[30].nic.mac1609_4 	DroppedPacketsInMac 	0
scalar IntersectionExampleScenario.node[30].nic.mac1609_4 	TooLittleTime 	0
scalar IntersectionExampleScenario.node[30].nic.mac1609_4 	TimesIntoBackoff 	0
scalar IntersectionExampleScenario.node[30].nic.mac1609_4 	SlotsBackoff 	0
scalar IntersectionExampleScenario.node[30].nic.mac1609_4 	NumInternalContention 	0
scalar IntersectionExampleScenario.node[30].nic.mac1609_4 	totalBusyTime 	0
scalar IntersectionExampleScenario.node[30].veinsmobility 	startTime 	74.5
scalar IntersectionExampleScenario.node[30].veinsmobility 	totalTime 	52.75
scalar IntersectionExampleScenario.node[30].veinsmobility 	stopTime 	127.5
scalar IntersectionExampleScenario.node[30].veinsmobility 	minSpeed 	0.35123324394226
scalar IntersectionExampleScenario.node[30].veinsmobility 	maxSpeed 	15.02499961853
scalar IntersectionExampleScenario.node[30].veinsmobility 	totalDistance 	552.50412750244
scalar IntersectionExampleScenario.node[30].veinsmobility 	totalCO2Emission 	138.08707047868
scalar IntersectionExampleScenario.node[31].appl 	VehicleRemoved 	0
scalar IntersectionExampleScenario.node[31].appl 	ArrivedAtDest 	1
scalar IntersectionExampleScenario.node[31].appl 	IntersectionEnterTime 	78
scalar IntersectionExampleScenario.node[31].appl 	IntersectionExitTime 	112.7780098686
scalar IntersectionExampleScenario.node[31].appl 	NumberOfCollisions 	0
scalar IntersectionExampleScenario.node[31].nic.phy80211p 	busyTime 	0
scalar IntersectionExampleScenario.node[31].nic.mac1609_4 	ReceivedUnicastPackets 	0
scalar IntersectionExampleScenario.node[31].nic.mac1609_4 	ReceivedBroadcasts 	0
scalar IntersectionExampleScenario.node[31].nic.mac1609_4 	SentPackets 	0
scalar IntersectionExampleScenario.node[31].nic.mac1609_4 	SNIRLostPackets 	0
scalar IntersectionExampleScenario.node[31].nic.mac1609_4 	RXTXLostPackets 	0
scalar IntersectionExampleScenario.node[31].nic.mac1609_4 	TotalLostPackets 	0
scalar IntersectionExampleScenario.node[31].nic.mac1609_4 	DroppedPacketsInMac 	0
scalar IntersectionExampleScenario.node[31].nic.mac1609_4 	TooLittleTime 	0
scalar IntersectionExampleScenario.node[31].nic.mac1609_4 	TimesIntoBackoff 	0
scalar IntersectionExampleScenario.node[31].nic.mac1609_4 	SlotsBackoff 	0
scalar IntersectionExampleScenario.node[31].nic.mac1609_4 	NumInternalContention 	0
scalar IntersectionExampleScenario.node[31].nic.mac1609_4 	totalBusyTime 	0
scalar IntersectionExampleScenario.node[31].veinsmobility 	startTime 	78
scalar IntersectionExampleScenario.node[31].veinsmobility 	totalTime 	51.5
scalar IntersectionExampleScenario.node[31].veinsmobility 	stopTime 	129.75
scalar IntersectionExampleScenario.node[31].veinsmobility 	minSpeed 	3.4239399433136
scalar IntersectionExampleScenario.node[31].veinsmobility 	maxSpeed 	14.50424861908
scalar IntersectionExampleScenario.node[31].veinsmobility 	totalDistance 	561.82988739014
scalar IntersectionExampleScenario.node[31].veinsmobility 	totalCO2Emission 	135.98521273585
scalar IntersectionExampleScenario.node[32].appl 	VehicleRemoved 	0
scalar IntersectionExampleScenario.node[32].appl 	ArrivedAtDest 	1
scalar IntersectionExampleScenario.node[32].appl 	IntersectionEnterTime 	80.5
scalar IntersectionExampleScenario.node[32].appl 	IntersectionExitTime 	114.87433938816
scalar IntersectionExampleScenario.node[32].appl 	NumberOfCollisions 	0
scalar IntersectionExampleScenario.node[32].nic.phy80211p 	busyTime 	0
scalar IntersectionExampleScenario.node[32].nic.mac1609_4 	ReceivedUnicastPackets 	0
scalar IntersectionExampleScenario.node[32].nic.mac1609_4 	ReceivedBroadcasts 	0
scalar IntersectionExampleScenario.node[32].nic.mac1609_4 	SentPackets 	0
scalar IntersectionExampleScenario.node[32].nic.mac1609_4 	SNIRLostPackets 	0
scalar IntersectionExampleScenario.node[32].nic.mac1609_4 	RXTXLostPackets 	0
scalar IntersectionExampleScenario.node[32].nic.mac1609_4 	TotalLostPackets 	0
scalar IntersectionExampleScenario.node[32].nic.mac1609_4 	DroppedPacketsInMac 	0
scalar IntersectionExampleScenario.node[32].nic.mac1609_4 	TooLittleTime 	0
scalar IntersectionExampleScenario.node[32].nic.mac1609_4 	TimesIntoBackoff 	0
scalar IntersectionExampleScenario.node[32].nic.mac1609_4 	SlotsBackoff 	0
scalar IntersectionExampleScenario.node[32].nic.mac1609_4 	NumInternalContention 	0
scalar IntersectionExampleScenario.node[32].nic.mac1609_4 	totalBusyTime 	0
scalar IntersectionExampleScenario.node[32].veinsmobility 	startTime 	80.5
scalar IntersectionExampleScenario.node[32].veinsmobility 	totalTime 	50.75
scalar IntersectionExampleScenario.node[32].veinsmobility 	stopTime 	131.5
scalar IntersectionExampleScenario.node[32].veinsmobility 	minSpeed 	1.9657123088837
scalar IntersectionExampleScenario.node[32].veinsmobility 	maxSpeed 	15.875
scalar IntersectionExampleScenario.node[32].veinsmobility 	totalDistance 	566.87681338167
scalar IntersectionExampleScenario.node[32].veinsmobility 	totalCO2Emission 	151.32292198282
scalar IntersectionExampleScenario.node[33].appl 	VehicleRemoved 	0
scalar IntersectionExampleScenario.node[33].appl 	ArrivedAtDest 	1
scalar IntersectionExampleScenario.node[33].appl 	IntersectionEnterTime 	81.5
scalar IntersectionExampleScenario.node[33].appl 	IntersectionExitTime 	117.54534267806
scalar IntersectionExampleScenario.node[33].appl 	NumberOfCollisions 	0
scalar IntersectionExampleScenario.node[33].nic.phy80211p 	busyTime 	0
scalar IntersectionExampleScenario.node[33].nic.mac1609_4 	ReceivedUnicastPackets 	0
scalar IntersectionExampleScenario.node[33].nic.mac1609_4 	ReceivedBroadcasts 	0
scalar IntersectionExampleScenario.node[33].nic.mac1609_4 	SentPackets 	0
scalar IntersectionExampleScenario.node[33].nic.mac1609_4 	SNIRLostPackets 	0
scalar IntersectionExampleScenario.node[33].nic.mac1609_4 	RXTXLostPackets 	0
scalar IntersectionExampleScenario.node[33].nic.mac1609_4 	TotalLostPackets 	0
scalar IntersectionExampleScenario.node[33].nic.mac1609_4 	DroppedPacketsInMac 	0
scalar IntersectionExampleScenario.node[33].nic.mac1609_4 	TooLittleTime 	0
scalar IntersectionExampleScenario.node[33].nic.mac1609_4 	TimesIntoBackoff 	0
scalar IntersectionExampleScenario.node[33].nic.mac1609_4 	SlotsBackoff 	0
scalar IntersectionExampleScenario.node[33].nic.mac1609_4 	NumInternalContention 	0
scalar IntersectionExampleScenario.node[33].nic.mac1609_4 	totalBusyTime 	0
scalar IntersectionExampleScenario.node[33].veinsmobility 	startTime 	81.5
scalar IntersectionExampleScenario.node[33].veinsmobility 	totalTime 	52.5
scalar IntersectionExampleScenario.node[33].veinsmobility 	stopTime 	134.25
scalar IntersectionExampleScenario.node[33].veinsmobility 	minSpeed 	0
scalar IntersectionExampleScenario.node[33].veinsmobility 	maxSpeed 	15.992897033691
scalar IntersectionExampleScenario.node[33].veinsmobility 	totalDistance 	545.340872778
scalar IntersectionExampleScenario.node[33].veinsmobility 	totalCO2Emission 	147.24210038358
scalar IntersectionExampleScenario.node[34].appl 	VehicleRemoved 	0
scalar IntersectionExampleScenario.node[34].appl 	ArrivedAtDest 	1
scalar IntersectionExampleScenario.node[34].appl 	IntersectionEnterTime 	84.25
scalar IntersectionExampleScenario.node[34].appl 	IntersectionExitTime 	120.06747475083
scalar IntersectionExampleScenario.node[34].appl 	NumberOfCollisions 	0
scalar IntersectionExampleScenario.node[34].nic.phy80211p 	busyTime 	0
scalar IntersectionExampleScenario.node[34].nic.mac1609_4 	ReceivedUnicastPackets 	0
scalar IntersectionExampleScenario.node[34].nic.mac1609_4 	ReceivedBroadcasts 	0
scalar IntersectionExampleScenario.node[34].nic.mac1609_4 	SentPackets 	0
scalar IntersectionExampleScenario.node[34].nic.mac1609_4 	SNIRLostPackets 	0
scalar IntersectionExampleScenario.node[34].nic.mac1609_4 	RXTXLostPackets 	0
scalar IntersectionExampleScenario.node[34].nic.mac1609_4 	TotalLostPackets 	0
scalar IntersectionExampleScenario.node[34].nic.mac1609_4 	DroppedPacketsInMac 	0
scalar IntersectionExampleScenario.node[34].nic.mac1609_4 	TooLittleTime 	0
scalar IntersectionExampleScenario.node[34].nic.mac1609_4 	TimesIntoBackoff 	0
scalar IntersectionExampleScenario.node[34].nic.mac1609_4 	SlotsBackoff 	0
scalar IntersectionExampleScenario.node[34].nic.mac1609_4 	NumInternalContention 	0
scalar IntersectionExampleScenario.node[34].nic.mac1609_4 	totalBusyTime 	0
scalar IntersectionExampleScenario.node[34].veinsmobility 	startTime 	84.25
scalar IntersectionExampleScenario.node[34].veinsmobility 	totalTime 	52.25
scalar IntersectionExampleScenario.node[34].veinsmobility 	stopTime 	136.75
scalar IntersectionExampleScenario.node[34].veinsmobility 	minSpeed 	0
scalar IntersectionExampleScenario.node[34].veinsmobility 	maxSpeed 	15.875
scalar IntersectionExampleScenario.node[34].veinsmobility 	totalDistance 	557.24342793297
scalar IntersectionExampleScenario.node[34].veinsmobility 	totalCO2Emission 	144.97834433379
scalar IntersectionExampleScenario.node[39].appl 	VehicleRemoved 	0
scalar IntersectionExampleScenario.node[39].appl 	ArrivedAtDest 	1
scalar IntersectionExampleScenario.node[39].appl 	IntersectionEnterTime 	95.5
scalar IntersectionExampleScenario.node[39].appl 	IntersectionExitTime 	122.36933642984
scalar IntersectionExampleScenario.node[39].appl 	NumberOfCollisions 	0
scalar IntersectionExampleScenario.node[39].nic.phy80211p 	busyTime 	0
scalar IntersectionExampleScenario.node[39].nic.mac1609_4 	ReceivedUnicastPackets 	0
scalar IntersectionExampleScenario.node[39].nic.mac1609_4 	ReceivedBroadcasts 	0
scalar IntersectionExampleScenario.node[39].nic.mac1609_4 	SentPackets 	0
scalar IntersectionExampleScenario.node[39].nic.mac1609_4 	SNIRLostPackets 	0
scalar IntersectionExampleScenario.node[39].nic.mac1609_4 	RXTXLostPackets 	0
scalar IntersectionExampleScenario.node[39].nic.mac1609_4 	TotalLostPackets 	0
scalar IntersectionExampleScenario.node[39].nic.mac1609_4 	DroppedPacketsInMac 	0
scalar IntersectionExampleScenario.node[39].nic.mac1609_4 	TooLittleTime 	0
scalar IntersectionExampleScenario.node[39].nic.mac1609_4 	TimesIntoBackoff 	0
scalar IntersectionExampleScenario.node[39].nic.mac1609_4 	SlotsBackoff 	0
scalar IntersectionExampleScenario.node[39].nic.mac1609_4 	NumInternalContention 	0
scalar IntersectionExampleScenario.node[39].nic.mac1609_4 	totalBusyTime 	0
scalar IntersectionExampleScenario.node[39].veinsmobility 	startTime 	95.5
scalar IntersectionExampleScenario.node[39].veinsmobility 	totalTime 	42.75
scalar IntersectionExampleScenario.node[39].veinsmobility 	stopTime 	138.5
scalar IntersectionExampleScenario.node[39].veinsmobility 	minSpeed 	4.286226272583
scalar IntersectionExampleScenario.node[39].veinsmobility 	maxSpeed 	16.27499961853
scalar IntersectionExampleScenario.node[39].veinsmobility 	totalDistance 	517.31317899324
scalar IntersectionExampleScenario.node[39].veinsmobility 	totalCO2Emission 	137.01520827522
scalar IntersectionExampleScenario.node[37].appl 	VehicleRemoved 	0
scalar IntersectionExampleScenario.node[37].appl 	ArrivedAtDest 	1
scalar IntersectionExampleScenario.node[37].appl 	IntersectionEnterTime 	94.5
scalar IntersectionExampleScenario.node[37].appl 	IntersectionExitTime 	124.59082313138
scalar IntersectionExampleScenario.node[37].appl 	NumberOfCollisions 	0
scalar IntersectionExampleScenario.node[37].nic.phy80211p 	busyTime 	0
scalar IntersectionExampleScenario.node[37].nic.mac1609_4 	ReceivedUnicastPackets 	0
scalar IntersectionExampleScenario.node[37].nic.mac1609_4 	ReceivedBroadcasts 	0
scalar IntersectionExampleScenario.node[37].nic.mac1609_4 	SentPackets 	0
scalar IntersectionExampleScenario.node[37].nic.mac1609_4 	SNIRLostPackets 	0
scalar IntersectionExampleScenario.node[37].nic.mac1609_4 	RXTXLostPackets 	0
scalar IntersectionExampleScenario.node[37].nic.mac1609_4 	TotalLostPackets 	0
scalar IntersectionExampleScenario.node[37].nic.mac1609_4 	DroppedPacketsInMac 	0
scalar IntersectionExampleScenario.node[37].nic.mac1609_4 	TooLittleTime 	0
scalar IntersectionExampleScenario.node[37].nic.mac1609_4 	TimesIntoBackoff 	0
scalar IntersectionExampleScenario.node[37].nic.mac1609_4 	SlotsBackoff 	0
scalar IntersectionExampleScenario.node[37].nic.mac1609_4 	NumInternalContention 	0
scalar IntersectionExampleScenario.node[37].nic.mac1609_4 	totalBusyTime 	0
scalar IntersectionExampleScenario.node[37].veinsmobility 	startTime 	94.5
scalar IntersectionExampleScenario.node[37].veinsmobility 	totalTime 	46.75
scalar IntersectionExampleScenario.node[37].veinsmobility 	stopTime 	141.5
scalar IntersectionExampleScenario.node[37].veinsmobility 	minSpeed 	5.1797671318054
scalar IntersectionExampleScenario.node[37].veinsmobility 	maxSpeed 	15.60475730896
scalar IntersectionExampleScenario.node[37].veinsmobility 	totalDistance 	544.61747799629
scalar IntersectionExampleScenario.node[37].veinsmobility 	totalCO2Emission 	137.8234441523
scalar IntersectionExampleScenario.node[38].appl 	VehicleRemoved 	0
scalar IntersectionExampleScenario.node[38].appl 	ArrivedAtDest 	1
scalar IntersectionExampleScenario.node[38].appl 	IntersectionEnterTime 	94.75
scalar IntersectionExampleScenario.node[38].appl 	IntersectionExitTime 	126.58826072933
scalar IntersectionExampleScenario.node[38].appl 	NumberOfCollisions 	0
scalar IntersectionExampleScenario.node[38].nic.phy80211p 	busyTime 	0
scalar IntersectionExampleScenario.node[38].nic.mac1609_4 	ReceivedUnicastPackets 	0
scalar IntersectionExampleScenario.node[38].nic.mac1609_4 	ReceivedBroadcasts 	0
scalar IntersectionExampleScenario.node[38].nic.mac1609_4 	SentPackets 	0
scalar IntersectionExampleScenario.node[38].nic.mac1609_4 	SNIRLostPackets 	0
scalar IntersectionExampleScenario.node[38].nic.mac1609_4 	RXTXLostPackets 	0
scalar IntersectionExampleScenario.node[38].nic.mac1609_4 	TotalLostPackets 	0
scalar IntersectionExampleScenario.node[38].nic.mac1609_4 	DroppedPacketsInMac 	0
scalar IntersectionExampleScenario.node[38].nic.mac1609_4 	TooLittleTime 	0
scalar IntersectionExampleScenario.node[38].nic.mac1609_4 	TimesIntoBackoff 	0
scalar IntersectionExampleScenario.node[38].nic.mac1609_4 	SlotsBackoff 	0
scalar IntersectionExampleScenario.node[38].nic.mac1609_4 	NumInternalContention 	0
scalar IntersectionExampleScenario.node[38].nic.mac1609_4 	totalBusyTime 	0
scalar IntersectionExampleScenario.node[38].veinsmobility 	startTime 	94.75
scalar IntersectionExampleScenario.node[38].veinsmobility 	totalTime 	48.5
scalar IntersectionExampleScenario.node[38].veinsmobility 	stopTime 	143.5
scalar IntersectionExampleScenario.node[38].veinsmobility 	minSpeed 	5.6500000953674
scalar IntersectionExampleScenario.node[38].veinsmobility 	maxSpeed 	15.496146202087
scalar IntersectionExampleScenario.node[38].veinsmobility 	totalDistance 	570.30187777477
scalar IntersectionExampleScenario.node[38].veinsmobility 	totalCO2Emission 	136.17458780087
scalar IntersectionExampleScenario.node[35].appl 	VehicleRemoved 	0
scalar IntersectionExampleScenario.node[35].appl 	ArrivedAtDest 	1
scalar IntersectionExampleScenario.node[35].appl 	IntersectionEnterTime 	90.5
scalar IntersectionExampleScenario.node[35].appl 	IntersectionExitTime 	127.62089712059
scalar IntersectionExampleScenario.node[35].appl 	NumberOfCollisions 	0
scalar IntersectionExampleScenario.node[35].nic.phy80211p 	busyTime 	0
scalar IntersectionExampleScenario.node[35].nic.mac1609_4 	ReceivedUnicastPackets 	0
scalar IntersectionExampleScenario.node[35].nic.mac1609_4 	ReceivedBroadcasts 	0
scalar IntersectionExampleScenario.node[35].nic.mac1609_4 	SentPackets 	0
scalar IntersectionExampleScenario.node[35].nic.mac1609_4 	SNIRLostPackets 	0
scalar IntersectionExampleScenario.node[35].nic.mac1609_4 	RXTXLostPackets 	0
scalar IntersectionExampleScenario.node[35].nic.mac1609_4 	TotalLostPackets 	0
scalar IntersectionExampleScenario.node[35].nic.mac1609_4 	DroppedPacketsInMac 	0
scalar IntersectionExampleScenario.node[35].nic.mac1609_4 	TooLittleTime 	0
scalar IntersectionExampleScenario.node[35].nic.mac1609_4 	TimesIntoBackoff 	0
scalar IntersectionExampleScenario.node[35].nic.mac1609_4 	SlotsBackoff 	0
scalar IntersectionExampleScenario.node[35].nic.mac1609_4 	NumInternalContention 	0
scalar IntersectionExampleScenario.node[35].nic.mac1609_4 	totalBusyTime 	0
scalar IntersectionExampleScenario.node[35].veinsmobility 	startTime 	90.5
scalar IntersectionExampleScenario.node[35].veinsmobility 	totalTime 	53.75
scalar IntersectionExampleScenario.node[35].veinsmobility 	stopTime 	144.5
scalar IntersectionExampleScenario.node[35].veinsmobility 	minSpeed 	0
scalar IntersectionExampleScenario.node[35].veinsmobility 	maxSpeed 	15.64999961853
scalar IntersectionExampleScenario.node[35].veinsmobility 	totalDistance 	544.42740537078
scalar IntersectionExampleScenario.node[35].veinsmobility 	totalCO2Emission 	145.72124088446
scalar IntersectionExampleScenario.node[36].appl 	VehicleRemoved 	0
scalar IntersectionExampleScenario.node[36].appl 	ArrivedAtDest 	1
scalar IntersectionExampleScenario.node[36].appl 	IntersectionEnterTime 	94.5
scalar IntersectionExampleScenario.node[36].appl 	IntersectionExitTime 	129.32688143942
scalar IntersectionExampleScenario.node[36].appl 	NumberOfCollisions 	0
scalar IntersectionExampleScenario.node[36].nic.phy80211p 	busyTime 	0
scalar IntersectionExampleScenario.node[36].nic.mac1609_4 	ReceivedUnicastPackets 	0
scalar IntersectionExampleScenario.node[36].nic.mac1609_4 	ReceivedBroadcasts 	0
scalar IntersectionExampleScenario.node[36].nic.mac1609_4 	SentPackets 	0
scalar IntersectionExampleScenario.node[36].nic.mac1609_4 	SNIRLostPackets 	0
scalar IntersectionExampleScenario.node[36].nic.mac1609_4 	RXTXLostPackets 	0
scalar IntersectionExampleScenario.node[36].nic.mac1609_4 	TotalLostPackets 	0
scalar IntersectionExampleScenario.node[36].nic.mac1609_4 	DroppedPacketsInMac 	0
scalar IntersectionExampleScenario.node[36].nic.mac1609_4 	TooLittleTime 	0
scalar IntersectionExampleScenario.node[36].nic.mac1609_4 	TimesIntoBackoff 	0
[...]
scalar IntersectionExampleScenario.node[778].veinsmobility 	totalCO2Emission 	78.346715681576
scalar IntersectionExampleScenario.node[779].appl 	VehicleRemoved 	0
scalar IntersectionExampleScenario.node[779].appl 	ArrivedAtDest 	0
scalar IntersectionExampleScenario.node[779].appl 	IntersectionEnterTime 	1778.5
scalar IntersectionExampleScenario.node[779].appl 	IntersectionExitTime 	-1
scalar IntersectionExampleScenario.node[779].appl 	NumberOfCollisions 	0
scalar IntersectionExampleScenario.node[779].nic.phy80211p 	busyTime 	0
scalar IntersectionExampleScenario.node[779].nic.mac1609_4 	ReceivedUnicastPackets 	0
scalar IntersectionExampleScenario.node[779].nic.mac1609_4 	ReceivedBroadcasts 	0
scalar IntersectionExampleScenario.node[779].nic.mac1609_4 	SentPackets 	0
scalar IntersectionExampleScenario.node[779].nic.mac1609_4 	SNIRLostPackets 	0
scalar IntersectionExampleScenario.node[779].nic.mac1609_4 	RXTXLostPackets 	0
scalar IntersectionExampleScenario.node[779].nic.mac1609_4 	TotalLostPackets 	0
scalar IntersectionExampleScenario.node[779].nic.mac1609_4 	DroppedPacketsInMac 	0
scalar IntersectionExampleScenario.node[779].nic.mac1609_4 	TooLittleTime 	0
scalar IntersectionExampleScenario.node[779].nic.mac1609_4 	TimesIntoBackoff 	0
scalar IntersectionExampleScenario.node[779].nic.mac1609_4 	SlotsBackoff 	0
scalar IntersectionExampleScenario.node[779].nic.mac1609_4 	NumInternalContention 	0
scalar IntersectionExampleScenario.node[779].nic.mac1609_4 	totalBusyTime 	0
scalar IntersectionExampleScenario.node[779].veinsmobility 	startTime 	1778.5
scalar IntersectionExampleScenario.node[779].veinsmobility 	totalTime 	21.5
scalar IntersectionExampleScenario.node[779].veinsmobility 	stopTime 	1800
scalar IntersectionExampleScenario.node[779].veinsmobility 	minSpeed 	5.6500000953674
scalar IntersectionExampleScenario.node[779].veinsmobility 	maxSpeed 	15.02499961853
scalar IntersectionExampleScenario.node[779].veinsmobility 	totalDistance 	290.00131225586
scalar IntersectionExampleScenario.node[779].veinsmobility 	totalCO2Emission 	64.936000804136
scalar IntersectionExampleScenario.node[780].appl 	VehicleRemoved 	0
scalar IntersectionExampleScenario.node[780].appl 	ArrivedAtDest 	0
scalar IntersectionExampleScenario.node[780].appl 	IntersectionEnterTime 	1781.5
scalar IntersectionExampleScenario.node[780].appl 	IntersectionExitTime 	-1
scalar IntersectionExampleScenario.node[780].appl 	NumberOfCollisions 	0
scalar IntersectionExampleScenario.node[780].nic.phy80211p 	busyTime 	0
scalar IntersectionExampleScenario.node[780].nic.mac1609_4 	ReceivedUnicastPackets 	0
scalar IntersectionExampleScenario.node[780].nic.mac1609_4 	ReceivedBroadcasts 	0
scalar IntersectionExampleScenario.node[780].nic.mac1609_4 	SentPackets 	0
scalar IntersectionExampleScenario.node[780].nic.mac1609_4 	SNIRLostPackets 	0
scalar IntersectionExampleScenario.node[780].nic.mac1609_4 	RXTXLostPackets 	0
scalar IntersectionExampleScenario.node[780].nic.mac1609_4 	TotalLostPackets 	0
scalar IntersectionExampleScenario.node[780].nic.mac1609_4 	DroppedPacketsInMac 	0
scalar IntersectionExampleScenario.node[780].nic.mac1609_4 	TooLittleTime 	0
scalar IntersectionExampleScenario.node[780].nic.mac1609_4 	TimesIntoBackoff 	0
scalar IntersectionExampleScenario.node[780].nic.mac1609_4 	SlotsBackoff 	0
scalar IntersectionExampleScenario.node[780].nic.mac1609_4 	NumInternalContention 	0
scalar IntersectionExampleScenario.node[780].nic.mac1609_4 	totalBusyTime 	0
scalar IntersectionExampleScenario.node[780].veinsmobility 	startTime 	1781.5
scalar IntersectionExampleScenario.node[780].veinsmobility 	totalTime 	18.5
scalar IntersectionExampleScenario.node[780].veinsmobility 	stopTime 	1800
scalar IntersectionExampleScenario.node[780].veinsmobility 	minSpeed 	5.6500000953674
scalar IntersectionExampleScenario.node[780].veinsmobility 	maxSpeed 	14.39999961853
scalar IntersectionExampleScenario.node[780].veinsmobility 	totalDistance 	231.07356262207
scalar IntersectionExampleScenario.node[780].veinsmobility 	totalCO2Emission 	51.958543529998
scalar IntersectionExampleScenario.node[781].appl 	VehicleRemoved 	0
scalar IntersectionExampleScenario.node[781].appl 	ArrivedAtDest 	0
scalar IntersectionExampleScenario.node[781].appl 	IntersectionEnterTime 	1784.5
scalar IntersectionExampleScenario.node[781].appl 	IntersectionExitTime 	-1
scalar IntersectionExampleScenario.node[781].appl 	NumberOfCollisions 	0
scalar IntersectionExampleScenario.node[781].nic.phy80211p 	busyTime 	0
scalar IntersectionExampleScenario.node[781].nic.mac1609_4 	ReceivedUnicastPackets 	0
scalar IntersectionExampleScenario.node[781].nic.mac1609_4 	ReceivedBroadcasts 	0
scalar IntersectionExampleScenario.node[781].nic.mac1609_4 	SentPackets 	0
scalar IntersectionExampleScenario.node[781].nic.mac1609_4 	SNIRLostPackets 	0
scalar IntersectionExampleScenario.node[781].nic.mac1609_4 	RXTXLostPackets 	0
scalar IntersectionExampleScenario.node[781].nic.mac1609_4 	TotalLostPackets 	0
scalar IntersectionExampleScenario.node[781].nic.mac1609_4 	DroppedPacketsInMac 	0
scalar IntersectionExampleScenario.node[781].nic.mac1609_4 	TooLittleTime 	0
scalar IntersectionExampleScenario.node[781].nic.mac1609_4 	TimesIntoBackoff 	0
scalar IntersectionExampleScenario.node[781].nic.mac1609_4 	SlotsBackoff 	0
scalar IntersectionExampleScenario.node[781].nic.mac1609_4 	NumInternalContention 	0
scalar IntersectionExampleScenario.node[781].nic.mac1609_4 	totalBusyTime 	0
scalar IntersectionExampleScenario.node[781].veinsmobility 	startTime 	1784.5
scalar IntersectionExampleScenario.node[781].veinsmobility 	totalTime 	15.5
scalar IntersectionExampleScenario.node[781].veinsmobility 	stopTime 	1800
scalar IntersectionExampleScenario.node[781].veinsmobility 	minSpeed 	5.6500000953674
scalar IntersectionExampleScenario.node[781].veinsmobility 	maxSpeed 	15.326184272766
scalar IntersectionExampleScenario.node[781].veinsmobility 	totalDistance 	211.45658111572
scalar IntersectionExampleScenario.node[781].veinsmobility 	totalCO2Emission 	54.325561817125
scalar IntersectionExampleScenario.node[782].appl 	VehicleRemoved 	0
scalar IntersectionExampleScenario.node[782].appl 	ArrivedAtDest 	0
scalar IntersectionExampleScenario.node[782].appl 	IntersectionEnterTime 	1788.5
scalar IntersectionExampleScenario.node[782].appl 	IntersectionExitTime 	-1
scalar IntersectionExampleScenario.node[782].appl 	NumberOfCollisions 	0
scalar IntersectionExampleScenario.node[782].nic.phy80211p 	busyTime 	0
scalar IntersectionExampleScenario.node[782].nic.mac1609_4 	ReceivedUnicastPackets 	0
scalar IntersectionExampleScenario.node[782].nic.mac1609_4 	ReceivedBroadcasts 	0
scalar IntersectionExampleScenario.node[782].nic.mac1609_4 	SentPackets 	0
scalar IntersectionExampleScenario.node[782].nic.mac1609_4 	SNIRLostPackets 	0
scalar IntersectionExampleScenario.node[782].nic.mac1609_4 	RXTXLostPackets 	0
scalar IntersectionExampleScenario.node[782].nic.mac1609_4 	TotalLostPackets 	0
scalar IntersectionExampleScenario.node[782].nic.mac1609_4 	DroppedPacketsInMac 	0
scalar IntersectionExampleScenario.node[782].nic.mac1609_4 	TooLittleTime 	0
scalar IntersectionExampleScenario.node[782].nic.mac1609_4 	TimesIntoBackoff 	0
scalar IntersectionExampleScenario.node[782].nic.mac1609_4 	SlotsBackoff 	0
scalar IntersectionExampleScenario.node[782].nic.mac1609_4 	NumInternalContention 	0
scalar IntersectionExampleScenario.node[782].nic.mac1609_4 	totalBusyTime 	0
scalar IntersectionExampleScenario.node[782].veinsmobility 	startTime 	1788.5
scalar IntersectionExampleScenario.node[782].veinsmobility 	totalTime 	11.5
scalar IntersectionExampleScenario.node[782].veinsmobility 	stopTime 	1800
scalar IntersectionExampleScenario.node[782].veinsmobility 	minSpeed 	5.6500000953674
scalar IntersectionExampleScenario.node[782].veinsmobility 	maxSpeed 	15.64999961853
scalar IntersectionExampleScenario.node[782].veinsmobility 	totalDistance 	156.63873291016
scalar IntersectionExampleScenario.node[782].veinsmobility 	totalCO2Emission 	49.120829234791
scalar IntersectionExampleScenario.node[783].appl 	VehicleRemoved 	0
scalar IntersectionExampleScenario.node[783].appl 	ArrivedAtDest 	0
scalar IntersectionExampleScenario.node[783].appl 	IntersectionEnterTime 	1790.25
scalar IntersectionExampleScenario.node[783].appl 	IntersectionExitTime 	-1
scalar IntersectionExampleScenario.node[783].appl 	NumberOfCollisions 	0
scalar IntersectionExampleScenario.node[783].nic.phy80211p 	busyTime 	0
scalar IntersectionExampleScenario.node[783].nic.mac1609_4 	ReceivedUnicastPackets 	0
scalar IntersectionExampleScenario.node[783].nic.mac1609_4 	ReceivedBroadcasts 	0
scalar IntersectionExampleScenario.node[783].nic.mac1609_4 	SentPackets 	0
scalar IntersectionExampleScenario.node[783].nic.mac1609_4 	SNIRLostPackets 	0
scalar IntersectionExampleScenario.node[783].nic.mac1609_4 	RXTXLostPackets 	0
scalar IntersectionExampleScenario.node[783].nic.mac1609_4 	TotalLostPackets 	0
scalar IntersectionExampleScenario.node[783].nic.mac1609_4 	DroppedPacketsInMac 	0
scalar IntersectionExampleScenario.node[783].nic.mac1609_4 	TooLittleTime 	0
scalar IntersectionExampleScenario.node[783].nic.mac1609_4 	TimesIntoBackoff 	0
scalar IntersectionExampleScenario.node[783].nic.mac1609_4 	SlotsBackoff 	0
scalar IntersectionExampleScenario.node[783].nic.mac1609_4 	NumInternalContention 	0
scalar IntersectionExampleScenario.node[783].nic.mac1609_4 	totalBusyTime 	0
scalar IntersectionExampleScenario.node[783].veinsmobility 	startTime 	1790.25
scalar IntersectionExampleScenario.node[783].veinsmobility 	totalTime 	9.75
scalar IntersectionExampleScenario.node[783].veinsmobility 	stopTime 	1800
scalar IntersectionExampleScenario.node[783].veinsmobility 	minSpeed 	5.6500000953674
scalar IntersectionExampleScenario.node[783].veinsmobility 	maxSpeed 	16.27499961853
scalar IntersectionExampleScenario.node[783].veinsmobility 	totalDistance 	130.75152587891
scalar IntersectionExampleScenario.node[783].veinsmobility 	totalCO2Emission 	46.289156602837
scalar IntersectionExampleScenario.node[784].appl 	VehicleRemoved 	0
scalar IntersectionExampleScenario.node[784].appl 	ArrivedAtDest 	0
scalar IntersectionExampleScenario.node[784].appl 	IntersectionEnterTime 	1792.25
scalar IntersectionExampleScenario.node[784].appl 	IntersectionExitTime 	-1
scalar IntersectionExampleScenario.node[784].appl 	NumberOfCollisions 	0
scalar IntersectionExampleScenario.node[784].nic.phy80211p 	busyTime 	0
scalar IntersectionExampleScenario.node[784].nic.mac1609_4 	ReceivedUnicastPackets 	0
scalar IntersectionExampleScenario.node[784].nic.mac1609_4 	ReceivedBroadcasts 	0
scalar IntersectionExampleScenario.node[784].nic.mac1609_4 	SentPackets 	0
scalar IntersectionExampleScenario.node[784].nic.mac1609_4 	SNIRLostPackets 	0
scalar IntersectionExampleScenario.node[784].nic.mac1609_4 	RXTXLostPackets 	0
scalar IntersectionExampleScenario.node[784].nic.mac1609_4 	TotalLostPackets 	0
scalar IntersectionExampleScenario.node[784].nic.mac1609_4 	DroppedPacketsInMac 	0
scalar IntersectionExampleScenario.node[784].nic.mac1609_4 	TooLittleTime 	0
scalar IntersectionExampleScenario.node[784].nic.mac1609_4 	TimesIntoBackoff 	0
scalar IntersectionExampleScenario.node[784].nic.mac1609_4 	SlotsBackoff 	0
scalar IntersectionExampleScenario.node[784].nic.mac1609_4 	NumInternalContention 	0
scalar IntersectionExampleScenario.node[784].nic.mac1609_4 	totalBusyTime 	0
scalar IntersectionExampleScenario.node[784].veinsmobility 	startTime 	1792.25
scalar IntersectionExampleScenario.node[784].veinsmobility 	totalTime 	7.75
scalar IntersectionExampleScenario.node[784].veinsmobility 	stopTime 	1800
scalar IntersectionExampleScenario.node[784].veinsmobility 	minSpeed 	5.6500000953674
scalar IntersectionExampleScenario.node[784].veinsmobility 	maxSpeed 	15.02499961853
scalar IntersectionExampleScenario.node[784].veinsmobility 	totalDistance 	95.153770446777
scalar IntersectionExampleScenario.node[784].veinsmobility 	totalCO2Emission 	36.77384304659
scalar IntersectionExampleScenario.node[785].appl 	VehicleRemoved 	0
scalar IntersectionExampleScenario.node[785].appl 	ArrivedAtDest 	0
scalar IntersectionExampleScenario.node[785].appl 	IntersectionEnterTime 	1796
scalar IntersectionExampleScenario.node[785].appl 	IntersectionExitTime 	-1
scalar IntersectionExampleScenario.node[785].appl 	NumberOfCollisions 	0
scalar IntersectionExampleScenario.node[785].nic.phy80211p 	busyTime 	0
scalar IntersectionExampleScenario.node[785].nic.mac1609_4 	ReceivedUnicastPackets 	0
scalar IntersectionExampleScenario.node[785].nic.mac1609_4 	ReceivedBroadcasts 	0
scalar IntersectionExampleScenario.node[785].nic.mac1609_4 	SentPackets 	0
scalar IntersectionExampleScenario.node[785].nic.mac1609_4 	SNIRLostPackets 	0
scalar IntersectionExampleScenario.node[785].nic.mac1609_4 	RXTXLostPackets 	0
scalar IntersectionExampleScenario.node[785].nic.mac1609_4 	TotalLostPackets 	0
scalar IntersectionExampleScenario.node[785].nic.mac1609_4 	DroppedPacketsInMac 	0
scalar IntersectionExampleScenario.node[785].nic.mac1609_4 	TooLittleTime 	0
scalar IntersectionExampleScenario.node[785].nic.mac1609_4 	TimesIntoBackoff 	0
scalar IntersectionExampleScenario.node[785].nic.mac1609_4 	SlotsBackoff 	0
scalar IntersectionExampleScenario.node[785].nic.mac1609_4 	NumInternalContention 	0
scalar IntersectionExampleScenario.node[785].nic.mac1609_4 	totalBusyTime 	0
scalar IntersectionExampleScenario.node[785].veinsmobility 	startTime 	1796
scalar IntersectionExampleScenario.node[785].veinsmobility 	totalTime 	4
scalar IntersectionExampleScenario.node[785].veinsmobility 	stopTime 	1800
scalar IntersectionExampleScenario.node[785].veinsmobility 	minSpeed 	5.6500000953674
scalar IntersectionExampleScenario.node[785].veinsmobility 	maxSpeed 	9.7090654373169
scalar IntersectionExampleScenario.node[785].veinsmobility 	totalDistance 	30.949768066406
scalar IntersectionExampleScenario.node[785].veinsmobility 	totalCO2Emission 	14.615132626299
scalar IntersectionExampleScenario.node[786].appl 	VehicleRemoved 	0
scalar IntersectionExampleScenario.node[786].appl 	ArrivedAtDest 	0
scalar IntersectionExampleScenario.node[786].appl 	IntersectionEnterTime 	1797.25
scalar IntersectionExampleScenario.node[786].appl 	IntersectionExitTime 	-1
scalar IntersectionExampleScenario.node[786].appl 	NumberOfCollisions 	0
scalar IntersectionExampleScenario.node[786].nic.phy80211p 	busyTime 	0
scalar IntersectionExampleScenario.node[786].nic.mac1609_4 	ReceivedUnicastPackets 	0
scalar IntersectionExampleScenario.node[786].nic.mac1609_4 	ReceivedBroadcasts 	0
scalar IntersectionExampleScenario.node[786].nic.mac1609_4 	SentPackets 	0
scalar IntersectionExampleScenario.node[786].nic.mac1609_4 	SNIRLostPackets 	0
scalar IntersectionExampleScenario.node[786].nic.mac1609_4 	RXTXLostPackets 	0
scalar IntersectionExampleScenario.node[786].nic.mac1609_4 	TotalLostPackets 	0
scalar IntersectionExampleScenario.node[786].nic.mac1609_4 	DroppedPacketsInMac 	0
scalar IntersectionExampleScenario.node[786].nic.mac1609_4 	TooLittleTime 	0
scalar IntersectionExampleScenario.node[786].nic.mac1609_4 	TimesIntoBackoff 	0
scalar IntersectionExampleScenario.node[786].nic.mac1609_4 	SlotsBackoff 	0
scalar IntersectionExampleScenario.node[786].nic.mac1609_4 	NumInternalContention 	0
scalar IntersectionExampleScenario.node[786].nic.mac1609_4 	totalBusyTime 	0
scalar IntersectionExampleScenario.node[786].veinsmobility 	startTime 	1797.25
scalar IntersectionExampleScenario.node[786].veinsmobility 	totalTime 	2.75
scalar IntersectionExampleScenario.node[786].veinsmobility 	stopTime 	1800
scalar IntersectionExampleScenario.node[786].veinsmobility 	minSpeed 	5.6500000953674
scalar IntersectionExampleScenario.node[786].veinsmobility 	maxSpeed 	11.89999961853
scalar IntersectionExampleScenario.node[786].veinsmobility 	totalDistance 	23.42813873291
scalar IntersectionExampleScenario.node[786].veinsmobility 	totalCO2Emission 	17.752607434053
scalar IntersectionExampleScenario.node[787].appl 	VehicleRemoved 	0
scalar IntersectionExampleScenario.node[787].appl 	ArrivedAtDest 	0
scalar IntersectionExampleScenario.node[787].appl 	IntersectionEnterTime 	1798.25
scalar IntersectionExampleScenario.node[787].appl 	IntersectionExitTime 	-1
scalar IntersectionExampleScenario.node[787].appl 	NumberOfCollisions 	0
scalar IntersectionExampleScenario.node[787].nic.phy80211p 	busyTime 	0
scalar IntersectionExampleScenario.node[787].nic.mac1609_4 	ReceivedUnicastPackets 	0
scalar IntersectionExampleScenario.node[787].nic.mac1609_4 	ReceivedBroadcasts 	0
scalar IntersectionExampleScenario.node[787].nic.mac1609_4 	SentPackets 	0
scalar IntersectionExampleScenario.node[787].nic.mac1609_4 	SNIRLostPackets 	0
scalar IntersectionExampleScenario.node[787].nic.mac1609_4 	RXTXLostPackets 	0
scalar IntersectionExampleScenario.node[787].nic.mac1609_4 	TotalLostPackets 	0
scalar IntersectionExampleScenario.node[787].nic.mac1609_4 	DroppedPacketsInMac 	0
scalar IntersectionExampleScenario.node[787].nic.mac1609_4 	TooLittleTime 	0
scalar IntersectionExampleScenario.node[787].nic.mac1609_4 	TimesIntoBackoff 	0
scalar IntersectionExampleScenario.node[787].nic.mac1609_4 	SlotsBackoff 	0
scalar IntersectionExampleScenario.node[787].nic.mac1609_4 	NumInternalContention 	0
scalar IntersectionExampleScenario.node[787].nic.mac1609_4 	totalBusyTime 	0
scalar IntersectionExampleScenario.node[787].veinsmobility 	startTime 	1798.25
scalar IntersectionExampleScenario.node[787].veinsmobility 	totalTime 	1.75
scalar IntersectionExampleScenario.node[787].veinsmobility 	stopTime 	1800
scalar IntersectionExampleScenario.node[787].veinsmobility 	minSpeed 	5.6500000953674
scalar IntersectionExampleScenario.node[787].veinsmobility 	maxSpeed 	9.3999996185303
scalar IntersectionExampleScenario.node[787].veinsmobility 	totalDistance 	12.621864318848
scalar IntersectionExampleScenario.node[787].veinsmobility 	totalCO2Emission 	9.3856839288341
scalar IntersectionExampleScenario.node[788].appl 	VehicleRemoved 	0
scalar IntersectionExampleScenario.node[788].appl 	ArrivedAtDest 	0
scalar IntersectionExampleScenario.node[788].appl 	IntersectionEnterTime 	1799.25
scalar IntersectionExampleScenario.node[788].appl 	IntersectionExitTime 	-1
scalar IntersectionExampleScenario.node[788].appl 	NumberOfCollisions 	0
scalar IntersectionExampleScenario.node[788].nic.phy80211p 	busyTime 	0
scalar IntersectionExampleScenario.node[788].nic.mac1609_4 	ReceivedUnicastPackets 	0
scalar IntersectionExampleScenario.node[788].nic.mac1609_4 	ReceivedBroadcasts 	0
scalar IntersectionExampleScenario.node[788].nic.mac1609_4 	SentPackets 	0
scalar IntersectionExampleScenario.node[788].nic.mac1609_4 	SNIRLostPackets 	0
scalar IntersectionExampleScenario.node[788].nic.mac1609_4 	RXTXLostPackets 	0
scalar IntersectionExampleScenario.node[788].nic.mac1609_4 	TotalLostPackets 	0
scalar IntersectionExampleScenario.node[788].nic.mac1609_4 	DroppedPacketsInMac 	0
scalar IntersectionExampleScenario.node[788].nic.mac1609_4 	TooLittleTime 	0
scalar IntersectionExampleScenario.node[788].nic.mac1609_4 	TimesIntoBackoff 	0
scalar IntersectionExampleScenario.node[788].nic.mac1609_4 	SlotsBackoff 	0
scalar IntersectionExampleScenario.node[788].nic.mac1609_4 	NumInternalContention 	0
scalar IntersectionExampleScenario.node[788].nic.mac1609_4 	totalBusyTime 	0
scalar IntersectionExampleScenario.node[788].veinsmobility 	startTime 	1799.25
scalar IntersectionExampleScenario.node[788].veinsmobility 	totalTime 	0.75
scalar IntersectionExampleScenario.node[788].veinsmobility 	stopTime 	1800
scalar IntersectionExampleScenario.node[788].veinsmobility 	minSpeed 	5.6500000953674
scalar IntersectionExampleScenario.node[788].veinsmobility 	maxSpeed 	6.9000000953674
scalar IntersectionExampleScenario.node[788].veinsmobility 	totalDistance 	4.471923828125
scalar IntersectionExampleScenario.node[788].veinsmobility 	totalCO2Emission 	2.7116680206665
