file 31904514 1591455315                                        
version 2
run nodebug-12-20200606-10:50:13-6208
attr configname nodebug
attr datetime 20200606-10:50:13
attr experiment nodebug
attr inifile omnetpp.ini
attr iterationvars ""
attr iterationvars2 $repetition=12
attr measurement ""
attr network "\"org.car2x.veins.modules.application.ExtTraCIScenarioManagerLaunchd.IntersectionExampleScenario\""
attr processid 6208
attr repetition 12
attr replication #12
attr resultdir results
attr runnumber 12
attr seedset 12
param **.coreDebug false
param **.debug false
param *.**.nic.mac1609_4.bitrate 18Mbps
param *.**.nic.mac1609_4.txPower 20mW
param *.**.nic.mac1609_4.useServiceChannel false
param *.**.nic.phy80211p.analogueModels "xmldoc(\"config.xml\")"
param *.**.nic.phy80211p.decider "xmldoc(\"config.xml\")"
param *.**.nic.phy80211p.sensitivity -89dBm
param *.**.nic.phy80211p.thermalNoise -110dBm
param *.**.nic.phy80211p.usePropagationDelay true
param *.**.nic.phy80211p.useThermalNoise true
param *.annotations.draw false
param *.connectionManager.alpha 2.0
param *.connectionManager.carrierFrequency "5.890e9 Hz"
param *.connectionManager.pMax 20mW
param *.connectionManager.sat -89dBm
param *.connectionManager.sendDirect true
param *.manager.autoShutdown true
param *.manager.host "\"localhost\""
param *.manager.launchConfig "xmldoc(\"paramics.launchd.xml\")"
param *.manager.margin 25
param *.manager.moduleDisplayString "\"\""
param *.manager.moduleName "\"node\""
param *.manager.moduleType "\"org.car2x.veins.nodes.Car\""
param *.manager.port 9999
param *.manager.updateInterval 250ms
param *.node[*0].veinsmobility.accidentCount 0
param *.node[*0].veinsmobility.accidentDuration 30s
param *.node[*0].veinsmobility.accidentStart 75s
param *.node[*].appl.LiderSelectZoneRadio 55.0
param *.node[*].appl.ShareDataZoneRadio 110.0
param *.node[*].appl.TiempoSemaforo 30.0
param *.node[*].appl.beaconInterval 1s
param *.node[*].appl.beaconPriority 3
param *.node[*].appl.dataOnSch false
param *.node[*].appl.dataPriority 2
param *.node[*].appl.debug false
param *.node[*].appl.headerLength "256 bit"
param *.node[*].appl.maxOffset 0.005s
param *.node[*].appl.sendBeacons false
param *.node[*].appl.sendData true
param *.node[*].applType "\"Dummy\""
param *.node[*].mobilityType "\"TraCIMobility\""
param *.node[*].mobilityType.debug true
param *.node[*].veinsmobility.x 0
param *.node[*].veinsmobility.y 0
param *.node[*].veinsmobility.z 1.895
param *.node[*].veinsmobilityType "\"org.car2x.veins.modules.mobility.traci.TraCIMobility\""
param *.node[*].veinsmobilityType.debug true
param *.playgroundSizeX 8500m
param *.playgroundSizeY 8500m
param *.playgroundSizeZ 50m
param *.world.use2D false
param *.world.useTorus false

vector 5477  IntersectionExampleScenario.manager  vehiclesinsim  ETV
attr type  int
vector 5478  IntersectionExampleScenario.manager  realtime  ETV
attr type  int
attr unit  s
vector 5481  IntersectionExampleScenario.node[0].veinsmobility  posx  ETV
vector 5482  IntersectionExampleScenario.node[0].veinsmobility  posy  ETV
vector 5483  IntersectionExampleScenario.node[0].veinsmobility  speed  ETV
vector 5484  IntersectionExampleScenario.node[0].veinsmobility  acceleration  ETV
vector 5485  IntersectionExampleScenario.node[0].veinsmobility  co2emission  ETV
vector 5488  IntersectionExampleScenario.node[1].veinsmobility  posx  ETV
vector 5489  IntersectionExampleScenario.node[1].veinsmobility  posy  ETV
vector 5490  IntersectionExampleScenario.node[1].veinsmobility  speed  ETV
vector 5491  IntersectionExampleScenario.node[1].veinsmobility  acceleration  ETV
vector 5492  IntersectionExampleScenario.node[1].veinsmobility  co2emission  ETV
vector 5495  IntersectionExampleScenario.node[2].veinsmobility  posx  ETV
vector 5496  IntersectionExampleScenario.node[2].veinsmobility  posy  ETV
vector 5497  IntersectionExampleScenario.node[2].veinsmobility  speed  ETV
vector 5498  IntersectionExampleScenario.node[2].veinsmobility  acceleration  ETV
vector 5499  IntersectionExampleScenario.node[2].veinsmobility  co2emission  ETV
vector 5502  IntersectionExampleScenario.node[3].veinsmobility  posx  ETV
vector 5503  IntersectionExampleScenario.node[3].veinsmobility  posy  ETV
vector 5504  IntersectionExampleScenario.node[3].veinsmobility  speed  ETV
vector 5505  IntersectionExampleScenario.node[3].veinsmobility  acceleration  ETV
vector 5506  IntersectionExampleScenario.node[3].veinsmobility  co2emission  ETV
vector 5509  IntersectionExampleScenario.node[4].veinsmobility  posx  ETV
vector 5510  IntersectionExampleScenario.node[4].veinsmobility  posy  ETV
vector 5511  IntersectionExampleScenario.node[4].veinsmobility  speed  ETV
vector 5512  IntersectionExampleScenario.node[4].veinsmobility  acceleration  ETV
vector 5513  IntersectionExampleScenario.node[4].veinsmobility  co2emission  ETV
vector 5516  IntersectionExampleScenario.node[5].veinsmobility  posx  ETV
vector 5517  IntersectionExampleScenario.node[5].veinsmobility  posy  ETV
vector 5518  IntersectionExampleScenario.node[5].veinsmobility  speed  ETV
vector 5519  IntersectionExampleScenario.node[5].veinsmobility  acceleration  ETV
vector 5520  IntersectionExampleScenario.node[5].veinsmobility  co2emission  ETV
vector 5523  IntersectionExampleScenario.node[6].veinsmobility  posx  ETV
vector 5524  IntersectionExampleScenario.node[6].veinsmobility  posy  ETV
vector 5530  IntersectionExampleScenario.node[7].veinsmobility  posx  ETV
vector 5531  IntersectionExampleScenario.node[7].veinsmobility  posy  ETV
vector 5525  IntersectionExampleScenario.node[6].veinsmobility  speed  ETV
vector 5526  IntersectionExampleScenario.node[6].veinsmobility  acceleration  ETV
vector 5527  IntersectionExampleScenario.node[6].veinsmobility  co2emission  ETV
vector 5532  IntersectionExampleScenario.node[7].veinsmobility  speed  ETV
vector 5533  IntersectionExampleScenario.node[7].veinsmobility  acceleration  ETV
vector 5534  IntersectionExampleScenario.node[7].veinsmobility  co2emission  ETV
vector 5537  IntersectionExampleScenario.node[8].veinsmobility  posx  ETV
vector 5538  IntersectionExampleScenario.node[8].veinsmobility  posy  ETV
vector 5544  IntersectionExampleScenario.node[9].veinsmobility  posx  ETV
vector 5545  IntersectionExampleScenario.node[9].veinsmobility  posy  ETV
vector 5539  IntersectionExampleScenario.node[8].veinsmobility  speed  ETV
vector 5540  IntersectionExampleScenario.node[8].veinsmobility  acceleration  ETV
vector 5541  IntersectionExampleScenario.node[8].veinsmobility  co2emission  ETV
vector 5546  IntersectionExampleScenario.node[9].veinsmobility  speed  ETV
vector 5547  IntersectionExampleScenario.node[9].veinsmobility  acceleration  ETV
vector 5548  IntersectionExampleScenario.node[9].veinsmobility  co2emission  ETV
vector 5551  IntersectionExampleScenario.node[10].veinsmobility  posx  ETV
vector 5552  IntersectionExampleScenario.node[10].veinsmobility  posy  ETV
vector 5553  IntersectionExampleScenario.node[10].veinsmobility  speed  ETV
vector 5554  IntersectionExampleScenario.node[10].veinsmobility  acceleration  ETV
vector 5555  IntersectionExampleScenario.node[10].veinsmobility  co2emission  ETV
vector 5558  IntersectionExampleScenario.node[11].veinsmobility  posx  ETV
vector 5559  IntersectionExampleScenario.node[11].veinsmobility  posy  ETV
vector 5565  IntersectionExampleScenario.node[12].veinsmobility  posx  ETV
vector 5566  IntersectionExampleScenario.node[12].veinsmobility  posy  ETV
vector 5560  IntersectionExampleScenario.node[11].veinsmobility  speed  ETV
vector 5561  IntersectionExampleScenario.node[11].veinsmobility  acceleration  ETV
vector 5562  IntersectionExampleScenario.node[11].veinsmobility  co2emission  ETV
vector 5567  IntersectionExampleScenario.node[12].veinsmobility  speed  ETV
vector 5568  IntersectionExampleScenario.node[12].veinsmobility  acceleration  ETV
vector 5569  IntersectionExampleScenario.node[12].veinsmobility  co2emission  ETV
vector 5572  IntersectionExampleScenario.node[13].veinsmobility  posx  ETV
vector 5573  IntersectionExampleScenario.node[13].veinsmobility  posy  ETV
vector 5574  IntersectionExampleScenario.node[13].veinsmobility  speed  ETV
vector 5575  IntersectionExampleScenario.node[13].veinsmobility  acceleration  ETV
vector 5576  IntersectionExampleScenario.node[13].veinsmobility  co2emission  ETV
vector 5579  IntersectionExampleScenario.node[14].veinsmobility  posx  ETV
vector 5580  IntersectionExampleScenario.node[14].veinsmobility  posy  ETV
vector 5581  IntersectionExampleScenario.node[14].veinsmobility  speed  ETV
vector 5582  IntersectionExampleScenario.node[14].veinsmobility  acceleration  ETV
vector 5583  IntersectionExampleScenario.node[14].veinsmobility  co2emission  ETV
vector 5586  IntersectionExampleScenario.node[15].veinsmobility  posx  ETV
vector 5587  IntersectionExampleScenario.node[15].veinsmobility  posy  ETV
vector 5593  IntersectionExampleScenario.node[16].veinsmobility  posx  ETV
vector 5594  IntersectionExampleScenario.node[16].veinsmobility  posy  ETV
vector 5588  IntersectionExampleScenario.node[15].veinsmobility  speed  ETV
vector 5589  IntersectionExampleScenario.node[15].veinsmobility  acceleration  ETV
vector 5590  IntersectionExampleScenario.node[15].veinsmobility  co2emission  ETV
vector 5595  IntersectionExampleScenario.node[16].veinsmobility  speed  ETV
vector 5596  IntersectionExampleScenario.node[16].veinsmobility  acceleration  ETV
vector 5597  IntersectionExampleScenario.node[16].veinsmobility  co2emission  ETV
vector 5600  IntersectionExampleScenario.node[17].veinsmobility  posx  ETV
vector 5601  IntersectionExampleScenario.node[17].veinsmobility  posy  ETV
vector 5602  IntersectionExampleScenario.node[17].veinsmobility  speed  ETV
vector 5603  IntersectionExampleScenario.node[17].veinsmobility  acceleration  ETV
vector 5604  IntersectionExampleScenario.node[17].veinsmobility  co2emission  ETV
vector 5607  IntersectionExampleScenario.node[18].veinsmobility  posx  ETV
vector 5608  IntersectionExampleScenario.node[18].veinsmobility  posy  ETV
vector 5609  IntersectionExampleScenario.node[18].veinsmobility  speed  ETV
vector 5610  IntersectionExampleScenario.node[18].veinsmobility  acceleration  ETV
vector 5611  IntersectionExampleScenario.node[18].veinsmobility  co2emission  ETV
vector 5614  IntersectionExampleScenario.node[19].veinsmobility  posx  ETV
vector 5615  IntersectionExampleScenario.node[19].veinsmobility  posy  ETV
vector 5616  IntersectionExampleScenario.node[19].veinsmobility  speed  ETV
vector 5617  IntersectionExampleScenario.node[19].veinsmobility  acceleration  ETV
vector 5618  IntersectionExampleScenario.node[19].veinsmobility  co2emission  ETV
vector 5621  IntersectionExampleScenario.node[20].veinsmobility  posx  ETV
vector 5622  IntersectionExampleScenario.node[20].veinsmobility  posy  ETV
vector 5623  IntersectionExampleScenario.node[20].veinsmobility  speed  ETV
vector 5624  IntersectionExampleScenario.node[20].veinsmobility  acceleration  ETV
vector 5625  IntersectionExampleScenario.node[20].veinsmobility  co2emission  ETV
vector 5628  IntersectionExampleScenario.node[21].veinsmobility  posx  ETV
vector 5629  IntersectionExampleScenario.node[21].veinsmobility  posy  ETV
vector 5630  IntersectionExampleScenario.node[21].veinsmobility  speed  ETV
vector 5631  IntersectionExampleScenario.node[21].veinsmobility  acceleration  ETV
vector 5632  IntersectionExampleScenario.node[21].veinsmobility  co2emission  ETV
vector 5635  IntersectionExampleScenario.node[22].veinsmobility  posx  ETV
vector 5636  IntersectionExampleScenario.node[22].veinsmobility  posy  ETV
vector 5637  IntersectionExampleScenario.node[22].veinsmobility  speed  ETV
vector 5638  IntersectionExampleScenario.node[22].veinsmobility  acceleration  ETV
vector 5639  IntersectionExampleScenario.node[22].veinsmobility  co2emission  ETV
vector 5642  IntersectionExampleScenario.node[23].veinsmobility  posx  ETV
vector 5643  IntersectionExampleScenario.node[23].veinsmobility  posy  ETV
vector 5644  IntersectionExampleScenario.node[23].veinsmobility  speed  ETV
vector 5645  IntersectionExampleScenario.node[23].veinsmobility  acceleration  ETV
vector 5646  IntersectionExampleScenario.node[23].veinsmobility  co2emission  ETV
5506	12386 4916 141 4999 8.5 48.25 160 0.973 11.450879080643 483.55874724144 2498.9327372035
5505	17302 4433 141 4999 8.5 48.25 160 -3.2029228210449 2.5 36.98334312439 225.3128650685
5504	21735 4809 132 4999 8.25 48.25 161 5.6500000953674 15.375 2213.4104833603 31255.669943232
5503	26544 5117 123 4999 8 48.25 162 483.14999389648 734.82073974609 86966.61491394 47679136.177617
5502	31661 5091 123 4999 8 48.25 162 184.17810058594 486.88031005859 64531.929931641 27504632.485564
vector 5649  IntersectionExampleScenario.node[24].veinsmobility  posx  ETV
vector 5650  IntersectionExampleScenario.node[24].veinsmobility  posy  ETV
vector 5651  IntersectionExampleScenario.node[24].veinsmobility  speed  ETV
vector 5652  IntersectionExampleScenario.node[24].veinsmobility  acceleration  ETV
vector 5653  IntersectionExampleScenario.node[24].veinsmobility  co2emission  ETV
5485	37148 6559 12 6943 1.75 61 238 0.973 11.810082123732 620.86843340365 3106.5759933432
5484	43707 5670 12 6943 1.75 61 238 -25.825225830078 4 39.869146347046 1055.6485130102
5483	49377 6092 9 6943 1.5 61 239 0 15.875 2182.6320943832 31625.122360022
5482	55469 7469 6 6943 1.25 61 240 486.85000610352 734.37205505371 124918.76174927 66075310.311598
5481	62938 7530 6 6943 1.25 61 240 486.63604736328 785.82187652588 131410.7120285 73974291.998263
vector 5656  IntersectionExampleScenario.node[25].veinsmobility  posx  ETV
vector 5657  IntersectionExampleScenario.node[25].veinsmobility  posy  ETV
5499	70620 6565 88 7042 6.75 61.75 221 0.973 12.353032912318 622.77963001959 3303.5033100425
5498	77185 6555 88 7042 6.75 61.75 221 -4.5 2.5 42.585195541382 480.90036196223
5497	83740 6587 81 7042 6.5 61.75 222 0 16.625 2109.1695747897 30786.38358144
5496	90327 7053 74 7042 6.25 61.75 223 236.53277587891 486.85000610352 100659.59020996 46472704.310279
5495	97380 7030 74 7042 6.25 61.75 223 483.13458251953 761.09687805176 121173.35334778 67395000.253726
vector 5658  IntersectionExampleScenario.node[25].veinsmobility  speed  ETV
vector 5659  IntersectionExampleScenario.node[25].veinsmobility  acceleration  ETV
vector 5660  IntersectionExampleScenario.node[25].veinsmobility  co2emission  ETV
vector 5663  IntersectionExampleScenario.node[26].veinsmobility  posx  ETV
vector 5664  IntersectionExampleScenario.node[26].veinsmobility  posy  ETV
vector 5665  IntersectionExampleScenario.node[26].veinsmobility  speed  ETV
5492	104883 6922 64 7507 5.75 65.25 239 0.973 11.450879080643 596.04864606101 2732.2144251869
5491	111805 7333 64 7507 5.75 65.25 239 -4.5 2.5000019073486 37.15309715271 356.16185783877
5490	119138 7318 59 7507 5.5 65.25 240 0 15.375 2227.7943231817 28680.511394057
5489	126456 7613 54 7507 5.25 65.25 241 237.59405517578 486.85000610352 108817.85861206 50247953.698451
5488	134069 7594 54 7507 5.25 65.25 241 483.14999389648 792.02188110352 135060.73351288 77912236.482727
vector 5666  IntersectionExampleScenario.node[26].veinsmobility  acceleration  ETV
vector 5667  IntersectionExampleScenario.node[26].veinsmobility  co2emission  ETV
vector 5670  IntersectionExampleScenario.node[27].veinsmobility  posx  ETV
vector 5671  IntersectionExampleScenario.node[27].veinsmobility  posy  ETV
vector 5672  IntersectionExampleScenario.node[27].veinsmobility  speed  ETV
vector 5673  IntersectionExampleScenario.node[27].veinsmobility  acceleration  ETV
vector 5674  IntersectionExampleScenario.node[27].veinsmobility  co2emission  ETV
5513	142226 6741 190 7865 9.75 68 234 0.973 11.36141391502 596.52722132878 2866.4486969783
5512	148967 7051 190 7865 9.75 68 234 -4.3777503967285 2.5 37.32285118103 393.2021496708
5511	156018 7145 179 7865 9.5 68 235 0 15.25 2242.6836254261 28563.647382163
5510	163163 7490 168 7865 9.25 68 236 486.85000610352 734.68588256836 123319.74331665 65526509.686544
5509	170653 7473 168 7865 9.25 68 236 486.85000610352 799.09872436523 133156.98404694 77217606.799386
5534	178126 6315 414 7895 14.25 68.25 217 0.973 11.990504229548 592.66453969292 3007.7351516365
5533	184441 6406 414 7895 14.25 68.25 217 -4.5 2.5 41.057416915894 366.48997541682
5532	190847 6652 397 7895 14 68.25 218 0 16.125 2177.2507307753 29112.604172524
5531	197499 6978 380 7895 13.75 68.25 219 486.85000610352 486.85000610352 106620.15133667 51908021.329015
5530	204477 6952 380 7895 13.75 68.25 219 236.09448242188 774.85443878174 114622.77487946 63852343.863859
vector 5677  IntersectionExampleScenario.node[28].veinsmobility  posx  ETV
vector 5678  IntersectionExampleScenario.node[28].veinsmobility  posy  ETV
vector 5679  IntersectionExampleScenario.node[28].veinsmobility  speed  ETV
vector 5680  IntersectionExampleScenario.node[28].veinsmobility  acceleration  ETV
vector 5681  IntersectionExampleScenario.node[28].veinsmobility  co2emission  ETV
5520	211825 6738 326 8325 12.75 72.25 239 0.973 11.450879080643 616.5663384349 2938.8530001187
5519	218563 5895 326 8325 12.75 72.25 239 -19.13623046875 4 38.511121749878 803.22124980708
5518	224458 6339 313 8325 12.5 72.25 240 0 15.465929031372 2233.2497186661 32070.744812849
5517	230797 7677 300 8325 12.25 72.25 241 483.14999389648 483.14999389648 116439.14852905 56257573.901123
5516	238474 7647 300 8325 12.25 72.25 241 179.81719970703 733.9766998291 109741.31712341 54253841.975808
5541	246121 6893 556 8433 16.25 73.25 229 0.973 11.810082123732 620.50248464941 3122.9213431997
5540	253014 6704 556 8433 16.25 73.25 229 -4.5 2.5 40.548154830933 447.37090713778
5539	259718 7022 535 8433 16 73.25 230 0 15.875 2229.018528495 31724.418490878
5538	266740 7358 516 8433 15.75 73.25 231 237.59234619141 483.14999389648 103736.90515137 47600790.782647
5537	274098 7340 516 8433 15.75 73.25 231 172.35388183594 483.14999389648 95657.14465332 41750103.092693
vector 5684  IntersectionExampleScenario.node[29].veinsmobility  posx  ETV
vector 5685  IntersectionExampleScenario.node[29].veinsmobility  posy  ETV
vector 5686  IntersectionExampleScenario.node[29].veinsmobility  speed  ETV
vector 5687  IntersectionExampleScenario.node[29].veinsmobility  acceleration  ETV
vector 5688  IntersectionExampleScenario.node[29].veinsmobility  co2emission  ETV
5569	281834 6406 1068 8818 21.75 76.75 221 0.973 11.36141391502 569.48260842042 2764.2061852063
5568	288240 6645 1068 8818 21.75 76.75 221 -3.9517059326172 2.5 37.15309715271 327.55214389755
5567	294885 6762 1041 8818 21.5 76.75 222 0 15.25 2187.5743114278 27892.727312496
5566	301647 7125 1014 8818 21.25 76.75 223 235.890625 483.14999389648 99336.321960449 45314577.754818
5565	308772 7109 1014 8818 21.25 76.75 223 184.17810058594 483.14999389648 91502.789764404 39430666.393804
5625	315881 4926 3190 8923 37.5 77.75 162 0.97223939240464 11.648172402475 540.05359026261 3206.8778560077
5624	320807 4585 3190 8923 37.5 77.75 162 -2.9546279907227 2.5 38.680875778198 292.90870202741
5623	325392 4988 3149 8923 37.25 77.75 163 5.6500000953674 15.64999961853 2221.8176803589 31158.301203645
5622	330380 5248 3108 8923 37 77.75 164 483.14999389648 483.14999389648 79236.598999023 38283162.322756
5621	335628 5219 3108 8923 37 77.75 164 184.17810058594 734.13584899902 73307.0519104 36925814.130794
vector 5691  IntersectionExampleScenario.node[30].veinsmobility  posx  ETV
vector 5692  IntersectionExampleScenario.node[30].veinsmobility  posy  ETV
vector 5693  IntersectionExampleScenario.node[30].veinsmobility  speed  ETV
vector 5698  IntersectionExampleScenario.node[31].veinsmobility  posx  ETV
vector 5699  IntersectionExampleScenario.node[31].veinsmobility  posy  ETV
vector 5694  IntersectionExampleScenario.node[30].veinsmobility  acceleration  ETV
vector 5695  IntersectionExampleScenario.node[30].veinsmobility  co2emission  ETV
vector 5700  IntersectionExampleScenario.node[31].veinsmobility  speed  ETV
vector 5701  IntersectionExampleScenario.node[31].veinsmobility  acceleration  ETV
vector 5702  IntersectionExampleScenario.node[31].veinsmobility  co2emission  ETV
vector 5705  IntersectionExampleScenario.node[32].veinsmobility  posx  ETV
vector 5706  IntersectionExampleScenario.node[32].veinsmobility  posy  ETV
vector 5707  IntersectionExampleScenario.node[32].veinsmobility  speed  ETV
vector 5708  IntersectionExampleScenario.node[32].veinsmobility  acceleration  ETV
vector 5709  IntersectionExampleScenario.node[32].veinsmobility  co2emission  ETV
5597	342035 5983 2024 9346 29.75 81.75 209 0.973 12.099024792222 602.33885868144 3175.3842796048
5596	348018 5627 2024 9346 29.75 81.75 209 -7.2880325317383 4 41.057416915894 488.84917513162
5595	353645 5819 1989 9346 29.5 81.75 210 0 16.27499961853 2217.0234456062 32544.019599336
5594	359464 6739 1954 9346 29.25 81.75 211 235.58752441406 785.82187652588 108746.68502045 60108540.36164
5593	366203 6754 1954 9346 29.25 81.75 211 483.14999389648 483.14999389648 101944.64871216 49254556.403058
vector 5712  IntersectionExampleScenario.node[33].veinsmobility  posx  ETV
vector 5713  IntersectionExampleScenario.node[33].veinsmobility  posy  ETV
vector 5714  IntersectionExampleScenario.node[33].veinsmobility  speed  ETV
5590	373186 6111 1989 9405 29.5 82.25 212 0.973 11.648172402475 577.98655260613 2914.9269878475
5589	379297 5677 1989 9405 29.5 82.25 212 -8.4909086227417 4 38.001859664917 488.16079423471
5588	384974 5865 1954 9405 29.25 82.25 213 0 15.64999961853 2172.5754644871 30408.737049521
5587	390839 6824 1921 9405 29 82.25 214 184.17810058594 483.36395263672 88894.887969971 38884806.478941
5586	397663 6783 1921 9405 29 82.25 214 486.85000610352 732.01240539551 112341.73057556 59993062.539338
vector 5715  IntersectionExampleScenario.node[33].veinsmobility  acceleration  ETV
vector 5716  IntersectionExampleScenario.node[33].veinsmobility  co2emission  ETV
5604	404613 6602 2133 9634 30.5 84.25 216 0.973 11.423249024451 593.5209866274 2800.5287300579
5603	411215 6458 2133 9634 30.5 84.25 216 -4.5 2.5 38.341367721558 423.89740657727
5602	417673 6918 2096 9634 30.25 84.25 217 0 15.336415290833 2297.846729055 31819.302296777
5601	424591 6964 2059 9634 30 84.25 218 483.02282714844 808.82032012939 122845.94574738 71612010.145044
5600	431555 6962 2059 9634 30 84.25 218 483.14999389648 733.06701660156 113745.06767273 60422475.771608
5611	438517 6378 2285 9688 31.5 84.75 214 0.973 10.756497587458 542.84519720579 2421.2183439243
5610	444895 6324 2285 9688 31.5 84.75 214 -3.8954048156738 2.5 33.079023361206 347.48574671979
5609	451219 6756 2246 9688 31.25 84.75 215 0 14.39999961853 2290.6972935963 29596.706588805
5608	457975 6861 2207 9688 31 84.75 216 166.078125 734.62231445312 96352.769821167 47889784.059606
5607	464836 6912 2207 9688 31 84.75 216 486.85000610352 486.85000610352 105159.60131836 51196952.543686
vector 5719  IntersectionExampleScenario.node[34].veinsmobility  posx  ETV
vector 5720  IntersectionExampleScenario.node[34].veinsmobility  posy  ETV
vector 5721  IntersectionExampleScenario.node[34].veinsmobility  speed  ETV
vector 5722  IntersectionExampleScenario.node[34].veinsmobility  acceleration  ETV
vector 5723  IntersectionExampleScenario.node[34].veinsmobility  co2emission  ETV
5618	472144 5871 3030 9831 36.5 86 199 0.973 11.393785635452 570.06988417843 2713.0892319354
5617	478015 6280 3030 9831 36.5 86 199 -4.5 2.5 38.52109336853 333.31633823545
5616	484295 6257 2991 9831 36.25 86 200 2.1261794567108 15.295250892639 2244.4410152435 29252.000698486
5615	490552 6412 2952 9831 36 86 201 176.03161621094 732.52239990234 89531.434402466 44324243.764659
5614	496964 6430 2952 9831 36 86 201 486.85000610352 486.85000610352 97856.851226807 47641608.617041
vector 5726  IntersectionExampleScenario.node[35].veinsmobility  posx  ETV
vector 5727  IntersectionExampleScenario.node[35].veinsmobility  posy  ETV
vector 5728  IntersectionExampleScenario.node[35].veinsmobility  speed  ETV
vector 5729  IntersectionExampleScenario.node[35].veinsmobility  acceleration  ETV
vector 5730  IntersectionExampleScenario.node[35].veinsmobility  co2emission  ETV
5639	503790 5320 4270 10031 44 87.75 176 0.973 10.916047529558 537.24743069075 2901.4093674043
5638	509110 5066 4270 10031 44 87.75 176 -3.1765556335449 2.5 34.267293930054 332.56341145221
5637	514176 5355 4225 10031 43.75 87.75 177 5.6500000953674 14.625 2189.9142503738 28334.640679723
5636	519531 5688 4180 10031 43.5 87.75 178 486.85000610352 785.82187652588 101617.83918762 59828399.674454
5635	525219 5684 4180 10031 43.5 87.75 178 234.88702392578 483.14999389648 77122.089904785 34439132.241082
vector 5733  IntersectionExampleScenario.node[36].veinsmobility  posx  ETV
vector 5734  IntersectionExampleScenario.node[36].veinsmobility  posy  ETV
5527	531055 8551 397 10474 14 91.75 312 0.973 11.90022389248 755.58565211296 3553.8645442027
5526	539606 8136 397 10474 14 91.75 312 -28.359008789062 4 44.830829620361 1366.1394384907
5525	547742 8425 380 10474 13.75 91.75 313 0 16 2247.4052792974 29379.634117538
5524	556167 10033 365 10474 13.5 91.75 314 236.69555664062 486.85000610352 144775.06130981 67890213.854302
5523	566200 10020 365 10474 13.5 91.75 314 483.14999389648 796.82124328613 172819.6930542 97588281.815215
vector 5735  IntersectionExampleScenario.node[36].veinsmobility  speed  ETV
vector 5740  IntersectionExampleScenario.node[37].veinsmobility  posx  ETV
vector 5741  IntersectionExampleScenario.node[37].veinsmobility  posy  ETV
vector 5736  IntersectionExampleScenario.node[36].veinsmobility  acceleration  ETV
vector 5737  IntersectionExampleScenario.node[36].veinsmobility  co2emission  ETV
vector 5742  IntersectionExampleScenario.node[37].veinsmobility  speed  ETV
vector 5743  IntersectionExampleScenario.node[37].veinsmobility  acceleration  ETV
vector 5744  IntersectionExampleScenario.node[37].veinsmobility  co2emission  ETV
5548	576860 8855 577 10687 16.5 93.5 309 0.973 11.436746621299 704.76614964932 2973.5514417801
5547	585715 9194 577 10687 16.5 93.5 309 -4.5 2.5 38.341367721558 507.31105599733
5546	594909 9172 556 10687 16.25 93.5 310 0 15.355266571045 2313.1138024218 29899.611156333
5545	604081 9955 535 10687 16 93.5 311 486.85000610352 486.85000610352 151410.35189819 73714130.745771
5544	614036 9926 535 10687 16 93.5 311 235.38861083984 808.93927001953 163956.0009079 91237304.396597
5555	623962 9107 644 10997 17.25 96 316 0.973 11.810082123732 708.40550468965 3135.0851780661
5554	633069 9511 644 10997 17.25 96 316 -4.5 2.5 40.072620391846 470.57515447502
5553	642580 9497 621 10997 17 96 317 0 15.875 2316.652767079 28551.272540004
5552	652077 10168 598 10997 16.75 96 318 486.85000610352 731.75173950195 162869.32107544 84522581.623908
5551	662245 10161 598 10997 16.75 96 318 486.85000610352 820.37901306152 179058.07701111 103542338.41059
vector 5747  IntersectionExampleScenario.node[38].veinsmobility  posx  ETV
vector 5748  IntersectionExampleScenario.node[38].veinsmobility  posy  ETV
vector 5754  IntersectionExampleScenario.node[39].veinsmobility  posx  ETV
vector 5755  IntersectionExampleScenario.node[39].veinsmobility  posy  ETV
vector 5749  IntersectionExampleScenario.node[38].veinsmobility  speed  ETV
vector 5750  IntersectionExampleScenario.node[38].veinsmobility  acceleration  ETV
vector 5751  IntersectionExampleScenario.node[38].veinsmobility  co2emission  ETV
vector 5756  IntersectionExampleScenario.node[39].veinsmobility  speed  ETV
vector 5757  IntersectionExampleScenario.node[39].veinsmobility  acceleration  ETV
vector 5758  IntersectionExampleScenario.node[39].veinsmobility  co2emission  ETV
5576	673198 8880 1261 11366 23.5 99 303 0.973 11.36141391502 661.88662657124 2859.5074082037
5575	682078 9390 1261 11366 23.5 99 303 -4.5 2.5000002384186 37.32285118103 425.27137236777
5574	691468 9472 1232 11366 23.25 99 304 0 15.25 2148.3230778985 25865.102003825
5573	700940 9802 1203 11366 23 99 305 486.85000610352 734.71548461914 156914.56364441 81883703.042065
5572	710742 9743 1203 11366 23 99 305 486.85000610352 775.7375869751 169162.31256104 95564812.34503
vector 5761  IntersectionExampleScenario.node[40].veinsmobility  posx  ETV
vector 5762  IntersectionExampleScenario.node[40].veinsmobility  posy  ETV
vector 5763  IntersectionExampleScenario.node[40].veinsmobility  speed  ETV
5562	720714 9293 1041 11452 21.5 99.75 314 0.973 11.54047740176 711.8716933243 3039.0785054464
5561	730007 9318 1041 11452 21.5 99.75 314 -4.5 2.5 38.511121749878 596.60521127186
5560	739325 9672 1014 11452 21.25 99.75 315 0 15.5 2319.4405098986 28523.219571811
5559	748997 10161 989 11452 21 99.75 316 486.85000610352 486.85000610352 153844.60192871 74899245.387986
5558	759158 10123 989 11452 21 99.75 316 235.45562744141 810.11998748779 171931.26519012 98745535.328644
vector 5764  IntersectionExampleScenario.node[40].veinsmobility  acceleration  ETV
vector 5765  IntersectionExampleScenario.node[40].veinsmobility  co2emission  ETV
vector 5768  IntersectionExampleScenario.node[41].veinsmobility  posx  ETV
vector 5769  IntersectionExampleScenario.node[41].veinsmobility  posy  ETV
vector 5770  IntersectionExampleScenario.node[41].veinsmobility  speed  ETV
vector 5771  IntersectionExampleScenario.node[41].veinsmobility  acceleration  ETV
vector 5772  IntersectionExampleScenario.node[41].veinsmobility  co2emission  ETV
vector 5775  IntersectionExampleScenario.node[42].veinsmobility  posx  ETV
vector 5776  IntersectionExampleScenario.node[42].veinsmobility  posy  ETV
vector 5777  IntersectionExampleScenario.node[42].veinsmobility  speed  ETV
5632	770073 6712 4137 11805 43.25 102.75 239 0.96100111070328 11.810082123732 639.15006045183 3376.3845628415
5631	776785 5944 4137 11805 43.25 102.75 239 -25.469772338867 4 40.887662887573 1064.5449005516
5630	782729 6292 4094 11805 43 102.75 240 0 16.322818756104 2176.6736927032 31928.569691344
5629	789021 7713 4051 11805 42.75 102.75 241 236.62127685547 483.14999389648 108543.47640991 49919548.10064
5628	796734 7765 4051 11805 42.75 102.75 241 184.17810058594 483.36395263672 101959.30679321 45149905.52481
vector 5782  IntersectionExampleScenario.node[43].veinsmobility  posx  ETV
vector 5783  IntersectionExampleScenario.node[43].veinsmobility  posy  ETV
vector 5778  IntersectionExampleScenario.node[42].veinsmobility  acceleration  ETV
vector 5779  IntersectionExampleScenario.node[42].veinsmobility  co2emission  ETV
vector 5784  IntersectionExampleScenario.node[43].veinsmobility  speed  ETV
vector 5785  IntersectionExampleScenario.node[43].veinsmobility  acceleration  ETV
vector 5786  IntersectionExampleScenario.node[43].veinsmobility  co2emission  ETV
vector 5789  IntersectionExampleScenario.node[44].veinsmobility  posx  ETV
vector 5790  IntersectionExampleScenario.node[44].veinsmobility  posy  ETV
vector 5791  IntersectionExampleScenario.node[44].veinsmobility  speed  ETV
vector 5792  IntersectionExampleScenario.node[44].veinsmobility  acceleration  ETV
vector 5793  IntersectionExampleScenario.node[44].veinsmobility  co2emission  ETV
vector 5796  IntersectionExampleScenario.node[45].veinsmobility  posx  ETV
vector 5797  IntersectionExampleScenario.node[45].veinsmobility  posy  ETV
vector 5798  IntersectionExampleScenario.node[45].veinsmobility  speed  ETV
5646	805687 6987 4913 12201 47.75 105.75 233 0.973 11.36141391502 586.89358740897 2783.7391026077
5645	812674 7435 4913 12201 47.75 105.75 233 -3.7586181163788 2.5 37.492597579956 340.79262759819
5644	820109 7302 4870 12201 47.5 105.75 234 0 15.25 2178.244897224 28877.342382287
5643	827411 7616 4827 12201 47.25 105.75 235 238.3779296875 483.14999389648 105340.27905273 48266851.600983
5642	835027 7596 4827 12201 47.25 105.75 235 184.17810058594 483.20031738281 97885.075958252 42728712.586265
vector 5799  IntersectionExampleScenario.node[45].veinsmobility  acceleration  ETV
vector 5800  IntersectionExampleScenario.node[45].veinsmobility  co2emission  ETV
vector 5803  IntersectionExampleScenario.node[46].veinsmobility  posx  ETV
vector 5804  IntersectionExampleScenario.node[46].veinsmobility  posy  ETV
vector 5805  IntersectionExampleScenario.node[46].veinsmobility  speed  ETV
vector 5806  IntersectionExampleScenario.node[46].veinsmobility  acceleration  ETV
vector 5807  IntersectionExampleScenario.node[46].veinsmobility  co2emission  ETV
vector 5810  IntersectionExampleScenario.node[47].veinsmobility  posx  ETV
vector 5811  IntersectionExampleScenario.node[47].veinsmobility  posy  ETV
vector 5812  IntersectionExampleScenario.node[47].veinsmobility  speed  ETV
vector 5813  IntersectionExampleScenario.node[47].veinsmobility  acceleration  ETV
vector 5814  IntersectionExampleScenario.node[47].veinsmobility  co2emission  ETV
vector 5817  IntersectionExampleScenario.node[48].veinsmobility  posx  ETV
vector 5818  IntersectionExampleScenario.node[48].veinsmobility  posy  ETV
5660	843734 6108 7109 13172 62.25 113.25 205 0.97223939240464 11.810082123732 577.57275159457 3033.9788533661
5659	849842 5694 7109 13172 62.25 113.25 205 -7.1630792617798 4 38.680875778198 476.87807198367
5658	855536 5878 7076 13172 62 113.25 206 0 15.875 2184.2048678398 30861.61710822
5657	861414 6755 7042 13172 61.75 113.25 207 184.17810058594 483.36395263672 85667.568359375 37385622.611704
5656	868169 6711 7042 13172 61.75 113.25 207 486.85000610352 734.74661254883 109018.00178528 58445148.405933
vector 5819  IntersectionExampleScenario.node[48].veinsmobility  speed  ETV
5653	874957 6986 5771 13205 53 113.5 243 0.973 11.36141391502 605.5094521385 2893.7715901309
5652	881943 6435 5771 13205 53 113.5 243 -13.265880584717 4 37.32285118103 620.16676263261
5651	888378 6571 5731 13205 52.75 113.5 244 0 15.371500015259 2180.2586278915 30465.023029801
5650	894949 7995 5690 13205 52.5 113.5 245 486.63604736328 785.82187652588 134198.96060944 75564674.225881
5649	902944 7935 5690 13205 52.5 113.5 245 236.31317138672 483.14999389648 110020.92105103 50492634.210042
vector 5820  IntersectionExampleScenario.node[48].veinsmobility  acceleration  ETV
vector 5821  IntersectionExampleScenario.node[48].veinsmobility  co2emission  ETV
vector 5824  IntersectionExampleScenario.node[49].veinsmobility  posx  ETV
vector 5825  IntersectionExampleScenario.node[49].veinsmobility  posy  ETV
vector 5831  IntersectionExampleScenario.node[50].veinsmobility  posx  ETV
vector 5832  IntersectionExampleScenario.node[50].veinsmobility  posy  ETV
vector 5826  IntersectionExampleScenario.node[49].veinsmobility  speed  ETV
5667	911427 5806 7542 13306 65.5 114.25 196 0.973 12.099024792222 592.23420730257 3271.6562277046
5666	917233 6338 7542 13306 65.5 114.25 196 -2.8065414428711 2.5 42.601110458374 334.38356596933
5665	923571 6430 7507 13306 65.25 114.25 197 0.98592746257782 16.372333526611 2201.3948962688 30199.185208443
5664	930001 6493 7472 13306 65 114.25 198 483.04104614258 785.82187652588 111017.17676544 64086180.338543
5663	936494 6490 7472 13306 65 114.25 198 483.14999389648 733.07147216797 103754.52410889 55388393.002994
vector 5827  IntersectionExampleScenario.node[49].veinsmobility  acceleration  ETV
vector 5828  IntersectionExampleScenario.node[49].veinsmobility  co2emission  ETV
vector 5833  IntersectionExampleScenario.node[50].veinsmobility  speed  ETV
vector 5834  IntersectionExampleScenario.node[50].veinsmobility  acceleration  ETV
vector 5835  IntersectionExampleScenario.node[50].veinsmobility  co2emission  ETV
vector 5838  IntersectionExampleScenario.node[51].veinsmobility  posx  ETV
vector 5839  IntersectionExampleScenario.node[51].veinsmobility  posy  ETV
vector 5840  IntersectionExampleScenario.node[51].veinsmobility  speed  ETV
5681	943624 5472 8325 13567 72.25 116 176 0.973 11.200708441096 530.11947782287 2814.872099979
5680	949096 5468 8325 13567 72.25 116 176 -2.5800361633301 2.5 36.98334312439 289.92865297317
5679	954564 5623 8298 13567 72 116 177 4.886908531189 15.293361663818 2213.5558342934 29511.150961389
5678	960187 5840 8271 13567 71.75 116 178 184.17810058594 487.07098388672 71470.399414062 30517978.46589
5677	966027 5866 8271 13567 71.75 116 178 235.50286865234 486.85000610352 77984.354156494 35197347.906973
vector 5841  IntersectionExampleScenario.node[51].veinsmobility  acceleration  ETV
vector 5842  IntersectionExampleScenario.node[51].veinsmobility  co2emission  ETV
5674	972060 6189 7771 13790 67.25 117.5 202 0.973 12.099024792222 642.09236454441 3469.8755998407
5673	978249 6152 7771 13790 67.25 117.5 202 -28.595010757446 4 41.396924972534 1333.4660040618
5672	984401 6330 7738 13790 67 117.5 203 0 16.27499961853 2262.534078598 30639.793143337
5671	990731 6686 7705 13790 66.75 117.5 204 486.63604736328 805.05782318115 116433.81569672 68541721.267528
5670	997417 6649 7705 13790 66.75 117.5 204 236.03900146484 483.14999389648 90673.643768311 41289046.379347
5702	1004066 5066 9180 14170 80.25 120.25 161 0.97223939240464 11.811462727243 566.82545577498 3644.6730904284
5701	1009132 4812 9180 14170 80.25 120.25 161 -3.4311981201172 2.5 38.680875778198 367.47995374198
5700	1013944 5058 9153 14170 80 120.25 162 5.6500000953674 15.876915931702 2177.9666833878 30622.804924041
5699	1019002 5406 9126 14170 79.75 120.25 163 184.17810058594 483.14999389648 64705.441101074 27426180.428717
5698	1024408 5421 9126 14170 79.75 120.25 163 486.85000610352 731.95370483398 87421.908828735 47801241.547077
vector 5845  IntersectionExampleScenario.node[52].veinsmobility  posx  ETV
vector 5846  IntersectionExampleScenario.node[52].veinsmobility  posy  ETV
vector 5847  IntersectionExampleScenario.node[52].veinsmobility  speed  ETV
vector 5848  IntersectionExampleScenario.node[52].veinsmobility  acceleration  ETV
vector 5849  IntersectionExampleScenario.node[52].veinsmobility  co2emission  ETV
5716	1030225 5125 9434 14441 82.5 122.25 160 0.973 11.648172402475 506.13128478918 2799.6075806145
5715	1035350 4873 9434 14441 82.5 122.25 160 -3.3099460601807 2.5 38.341367721558 271.31742416601
5714	1040223 5071 9405 14441 82.25 122.25 161 5.6500000953674 15.64999961853 2184.1607251167 30962.429317263
5713	1045294 5405 9375 14441 82 122.25 162 486.85000610352 785.82187652588 92713.955802917 54804270.907094
5712	1050699 5410 9375 14441 82 122.25 162 236.98669433594 483.14999389648 70092.999664307 31252404.895225
5583	1056109 11113 1642 14573 26.75 123.25 387 0.973 11.450879080643 832.78347908772 3494.7375520288
5582	1067222 10751 1642 14573 26.75 123.25 387 -28.709739685059 4 38.171613693237 1545.7451060053
5581	1077973 11088 1611 14573 26.5 123.25 388 0 15.375 2267.8823421858 28817.518296343
5580	1089061 12682 1580 14573 26.25 123.25 389 237.83361816406 486.85000610352 181023.70925903 85448249.493282
5579	1101743 12652 1580 14573 26.25 123.25 389 483.14999389648 803.66426849365 214312.79636383 120524070.48798
5709	1114395 5338 9346 14705 81.75 124.25 171 0.973 12.099024792222 546.33050177183 3048.1202590488
5708	1119733 5255 9346 14705 81.75 124.25 171 -2.1758155822754 2.5000019073486 41.227170944214 290.0963380729
5707	1124988 5517 9317 14705 81.5 124.25 172 4.0116004943848 16.27499961853 2222.6542429924 31301.499835667
5706	1130505 5783 9288 14705 81.25 124.25 173 486.85000610352 486.85000610352 84225.051055908 41004966.620638
5705	1136288 5768 9288 14705 81.25 124.25 173 235.77319335938 785.82187652588 90560.052955627 51444131.248567
5723	1142056 5369 9773 15159 85.5 127.75 170 0.973 12.26218747632 607.88419542979 3834.7488509008
5722	1147425 5184 9773 15159 85.5 127.75 170 -4.5 2.5 42.075933456421 471.95891254245
5721	1152609 5403 9744 15159 85.25 127.75 171 5.4168906211853 16.5 2221.0673623085 31378.317338653
5720	1158012 5773 9715 15159 85 127.75 172 486.85000610352 734.51626586914 91571.709960938 49681403.00133
5719	1163785 5767 9715 15159 85 127.75 172 486.77951049805 793.78281402588 98705.720870972 58472043.557132
vector 5852  IntersectionExampleScenario.node[53].veinsmobility  posx  ETV
vector 5853  IntersectionExampleScenario.node[53].veinsmobility  posy  ETV
vector 5859  IntersectionExampleScenario.node[54].veinsmobility  posx  ETV
vector 5860  IntersectionExampleScenario.node[54].veinsmobility  posy  ETV
vector 5854  IntersectionExampleScenario.node[53].veinsmobility  speed  ETV
5737	1169933 5239 10532 15703 92.25 133.25 165 0.973 11.287811852985 495.70066947068 2736.9101529952
5736	1175172 5028 10532 15703 92.25 133.25 165 -3.1484222412109 2.5 35.795072555542 267.96503388108
5735	1180200 5298 10503 15703 92 133.25 166 5.6500000953674 15.147025108337 2180.7449178696 29778.463948849
5734	1185498 5634 10474 15703 91.75 133.25 167 486.85000610352 732.60319519043 89795.207763672 49238413.027448
5733	1191132 5630 10474 15703 91.75 133.25 167 486.82955932617 785.82187652588 95571.421760559 56476060.297922
vector 5855  IntersectionExampleScenario.node[53].veinsmobility  acceleration  ETV
vector 5856  IntersectionExampleScenario.node[53].veinsmobility  co2emission  ETV
vector 5861  IntersectionExampleScenario.node[54].veinsmobility  speed  ETV
vector 5862  IntersectionExampleScenario.node[54].veinsmobility  acceleration  ETV
vector 5863  IntersectionExampleScenario.node[54].veinsmobility  co2emission  ETV
5688	1197173 6944 8734 15828 76 134.5 235 0.973 11.648172402475 598.51319000483 2929.1355961741
5687	1204117 6467 8734 15828 76 134.5 235 -7.11266040802 4 37.662351608276 464.01913763349
5686	1210584 6626 8705 15828 75.75 134.5 236 0 15.64999961853 2184.1382353306 30418.311898846
5685	1217210 7846 8676 15828 75.5 134.5 237 235.25659179688 483.14999389648 106128.74624634 48609113.469483
5684	1225056 7884 8676 15828 75.5 134.5 237 184.17810058594 483.36395263672 99711.49887085 43977746.548002
vector 5866  IntersectionExampleScenario.node[55].veinsmobility  posx  ETV
vector 5867  IntersectionExampleScenario.node[55].veinsmobility  posy  ETV
vector 5868  IntersectionExampleScenario.node[55].veinsmobility  speed  ETV
vector 5869  IntersectionExampleScenario.node[55].veinsmobility  acceleration  ETV
vector 5870  IntersectionExampleScenario.node[55].veinsmobility  co2emission  ETV
5695	1233336 7049 9126 15907 79.75 135.25 223 0.973 11.648172402475 593.2136754746 2955.6231910548
5694	1240385 7131 9126 15907 79.75 135.25 223 -4.5 2.500000089407 38.341367721558 422.91628390584
5693	1247516 7333 9100 15907 79.5 135.25 224 0 15.64999961853 2243.0794253685 31356.849831573
5692	1254849 7535 9073 15907 79.25 135.25 225 483.14999389648 483.14999389648 108708.74862671 52522631.235489
5691	1262384 7496 9073 15907 79.25 135.25 225 176.21716308594 732.42797851562 101245.21687317 49875006.696442
5744	1269880 5790 10594 16204 92.75 138 182 0.973 11.200708441096 517.68230601739 2492.0167361624
5743	1275670 5799 10594 16204 92.75 138 182 -2.0422897338867 2.5 35.964826583862 248.50686430058
5742	1281469 6045 10563 16204 92.5 138 183 4.1096391677856 15.02499961853 2217.4553523064 28997.673927196
5741	1287514 6225 10532 16204 92.25 138 184 483.14999389648 483.14999389648 88899.598876953 42951840.6548
5740	1293739 6184 10532 16204 92.25 138 184 184.17810058594 733.49647521973 82424.361068726 41201107.156387
vector 5873  IntersectionExampleScenario.node[56].veinsmobility  posx  ETV
vector 5874  IntersectionExampleScenario.node[56].veinsmobility  posy  ETV
vector 5875  IntersectionExampleScenario.node[56].veinsmobility  speed  ETV
vector 5876  IntersectionExampleScenario.node[56].veinsmobility  acceleration  ETV
vector 5877  IntersectionExampleScenario.node[56].veinsmobility  co2emission  ETV
vector 5880  IntersectionExampleScenario.node[57].veinsmobility  posx  ETV
vector 5881  IntersectionExampleScenario.node[57].veinsmobility  posy  ETV
vector 5882  IntersectionExampleScenario.node[57].veinsmobility  speed  ETV
vector 5883  IntersectionExampleScenario.node[57].veinsmobility  acceleration  ETV
vector 5884  IntersectionExampleScenario.node[57].veinsmobility  co2emission  ETV
vector 5887  IntersectionExampleScenario.node[58].veinsmobility  posx  ETV
vector 5888  IntersectionExampleScenario.node[58].veinsmobility  posy  ETV
vector 5889  IntersectionExampleScenario.node[58].veinsmobility  speed  ETV
vector 5890  IntersectionExampleScenario.node[58].veinsmobility  acceleration  ETV
vector 5891  IntersectionExampleScenario.node[58].veinsmobility  co2emission  ETV
5793	1301111 5167 12002 16770 104.25 143.25 157 0.973 12.099024792222 535.44677629774 2944.8092157715
5792	1306278 5064 12002 16770 104.25 143.25 157 -3.2264041900635 2.5000019073486 41.396924972534 312.88025482696
5791	1311342 5133 11969 16770 104 143.25 158 5.6500000953674 16.27499961853 2202.4939956665 32293.044145624
5790	1316475 5400 11935 16770 103.75 143.25 159 483.14999389648 785.82187652588 90660.165214539 53449167.758992
5789	1321875 5399 11935 16770 103.75 143.25 159 483.14999389648 731.82788085938 84809.892562866 46153242.28738
5786	1327274 5272 11902 16824 103.5 143.75 162 0.973 11.420118658325 501.94099016005 2756.2244890508
5785	1332546 5182 11902 16824 103.5 143.75 162 -3.8628025054932 2.5 36.98334312439 287.34893030124
5784	1337728 5222 11869 16824 103.25 143.75 163 5.6500000953674 15.332042694092 2183.2732291222 30466.315502708
5783	1342950 5574 11836 16824 103 143.75 164 236.80004882812 483.14999389648 70871.648406982 31570373.820712
5782	1348524 5545 11836 16824 103 143.75 164 184.17810058594 483.14999389648 65192.48046875 27677632.415387
vector 5894  IntersectionExampleScenario.node[59].veinsmobility  posx  ETV
vector 5895  IntersectionExampleScenario.node[59].veinsmobility  posy  ETV
vector 5896  IntersectionExampleScenario.node[59].veinsmobility  speed  ETV
5730	1354298 6921 10002 16907 87.5 144.5 229 0.973 11.450879080643 587.9762404972 2831.0737598865
5729	1361219 6465 10002 16907 87.5 144.5 229 -7.3693799972534 4 36.813589096069 478.28302500225
5728	1367684 6630 9973 16907 87.25 144.5 230 0 15.375 2194.6603417397 30424.024302394
5727	1374314 7775 9944 16907 87 144.5 231 184.17810058594 486.85000610352 97010.031829834 42795527.509705
5726	1382089 7789 9944 16907 87 144.5 231 238.42358398438 486.85000610352 103964.7611084 47886138.7019
vector 5897  IntersectionExampleScenario.node[59].veinsmobility  acceleration  ETV
vector 5898  IntersectionExampleScenario.node[59].veinsmobility  co2emission  ETV
5751	1390045 5893 11121 16962 97 145 193 0.973 12.099024792222 563.17963266759 3154.3916034905
5750	1395938 6181 11121 16962 97 145 193 -2.0829696655273 2.5000019073486 40.038900375366 326.0264601032
5749	1402119 6417 11090 16962 96.75 145 194 1.2102518081665 16.27499961853 2221.6708562374 30436.550106376
5748	1408536 6589 11059 16962 96.5 145 195 184.17810058594 734.49208068848 87494.90171814 43354669.779836
5747	1415125 6615 11059 16962 96.5 145 195 486.85000610352 486.85000610352 94935.751190186 46219471.046384
5800	1421740 5388 12234 17178 106 147 165 0.973 11.450879080643 484.65074238627 2493.9251541201
5799	1427128 4937 12234 17178 106 147 165 -3.7997894287109 2.5 37.492597579956 206.44689364283
5798	1432065 5354 12201 17178 105.75 147 166 5.6500000953674 15.375 2280.9986944199 32201.713547381
5797	1437419 5670 12167 17178 105.5 147 167 482.94821166992 805.05782318115 96757.010253906 58151707.03959
5796	1443089 5671 12167 17178 105.5 147 167 483.14999389648 732.72053527832 89171.875183105 48595330.534821
vector 5901  IntersectionExampleScenario.node[60].veinsmobility  posx  ETV
vector 5902  IntersectionExampleScenario.node[60].veinsmobility  posy  ETV
vector 5903  IntersectionExampleScenario.node[60].veinsmobility  speed  ETV
vector 5904  IntersectionExampleScenario.node[60].veinsmobility  acceleration  ETV
vector 5905  IntersectionExampleScenario.node[60].veinsmobility  co2emission  ETV
5765	1449156 6346 11481 17420 100 149.25 198 0.973 11.648172402475 603.65622505118 3182.1881231714
5764	1455502 6098 11481 17420 100 149.25 198 -29.422351837158 4 38.341367721558 1338.9004745235
5763	1461600 6406 11452 17420 99.75 149.25 199 0 15.64999961853 2230.3561899662 29326.493907302
5762	1468006 6757 11423 17420 99.5 149.25 200 171.40313720703 483.36395263672 80077.508300781 34072060.07529
5761	1474763 6729 11423 17420 99.5 149.25 200 486.85000610352 733.04777526855 105551.7490387 56709544.193479
vector 5908  IntersectionExampleScenario.node[61].veinsmobility  posx  ETV
vector 5909  IntersectionExampleScenario.node[61].veinsmobility  posy  ETV
vector 5910  IntersectionExampleScenario.node[61].veinsmobility  speed  ETV
vector 5911  IntersectionExampleScenario.node[61].veinsmobility  acceleration  ETV
vector 5912  IntersectionExampleScenario.node[61].veinsmobility  co2emission  ETV
vector 5915  IntersectionExampleScenario.node[62].veinsmobility  posx  ETV
vector 5916  IntersectionExampleScenario.node[62].veinsmobility  posy  ETV
vector 5917  IntersectionExampleScenario.node[62].veinsmobility  speed  ETV
vector 5918  IntersectionExampleScenario.node[62].veinsmobility  acceleration  ETV
vector 5919  IntersectionExampleScenario.node[62].veinsmobility  co2emission  ETV
5758	1482284 6852 11152 17901 97.25 154 228 0.973 11.90022389248 622.17357290835 3194.548957551
5757	1489136 6528 11152 17901 97.25 154 228 -8.4158096313477 4 40.038900375366 523.51662842099
5756	1495664 6575 11121 17901 97 154 229 0 16.172737121582 2207.5359294415 31919.75148457
5755	1502239 7798 11090 17901 96.75 154 230 235.31896972656 486.85000610352 103690.47857666 47836071.992945
5754	1510037 7796 11090 17901 96.75 154 230 483.14999389648 785.82187652588 126227.41077423 71303657.498515
vector 5922  IntersectionExampleScenario.node[63].veinsmobility  posx  ETV
vector 5923  IntersectionExampleScenario.node[63].veinsmobility  posy  ETV
vector 5924  IntersectionExampleScenario.node[63].veinsmobility  speed  ETV
5772	1518062 6912 11658 18119 101.5 156 219 0.973 11.648172402475 577.18695139752 2913.0177775513
5771	1524974 7089 11658 18119 101.5 156 219 -3.8009672164917 2.5 37.662351608276 364.8311150851
5770	1532063 7180 11628 18119 101.25 156 220 0 15.64999961853 2207.9904817138 29769.265526638
5769	1539243 7505 11597 18119 101 156 221 486.85000610352 734.63635253906 115961.89312744 61908992.02863
5768	1546748 7492 11597 18119 101 156 221 486.85000610352 790.18281555176 123173.84233856 70646031.703495
vector 5925  IntersectionExampleScenario.node[63].veinsmobility  acceleration  ETV
vector 5926  IntersectionExampleScenario.node[63].veinsmobility  co2emission  ETV
vector 5929  IntersectionExampleScenario.node[64].veinsmobility  posx  ETV
vector 5930  IntersectionExampleScenario.node[64].veinsmobility  posy  ETV
vector 5936  IntersectionExampleScenario.node[65].veinsmobility  posx  ETV
vector 5937  IntersectionExampleScenario.node[65].veinsmobility  posy  ETV
vector 5931  IntersectionExampleScenario.node[64].veinsmobility  speed  ETV
vector 5932  IntersectionExampleScenario.node[64].veinsmobility  acceleration  ETV
vector 5933  IntersectionExampleScenario.node[64].veinsmobility  co2emission  ETV
vector 5938  IntersectionExampleScenario.node[65].veinsmobility  speed  ETV
vector 5939  IntersectionExampleScenario.node[65].veinsmobility  acceleration  ETV
vector 5940  IntersectionExampleScenario.node[65].veinsmobility  co2emission  ETV
5779	1555199 6825 11836 18300 103 157.5 219 0.973 11.990504229548 606.04163205941 3127.5341330677
5778	1562024 7037 11836 18300 103 157.5 219 -4.5 2.5000019073486 39.529638290405 442.0806459837
5777	1569061 7219 11805 18300 102.75 157.5 220 0 16.125 2313.1051688492 31119.037268525
5776	1576280 7514 11774 18300 102.5 157.5 221 486.85000610352 486.85000610352 107593.85134888 52382067.185901
5775	1583794 7497 11774 18300 102.5 157.5 221 235.12219238281 808.29610443115 117315.79031372 66926560.081725
5814	1591291 6505 12688 18785 109.5 161.75 210 0.973 11.200708441096 549.40644759921 2706.8035918521
5813	1597796 6574 12688 18785 109.5 161.75 210 -4.4903259277344 2.5 35.625318527222 424.47216068578
5812	1604370 6821 12655 18785 109.25 161.75 211 0 15.02499961853 2179.523866415 27540.83598469
5811	1611191 7205 12622 18785 109 161.75 212 486.85000610352 732.03492736816 111687.50064087 59883249.054721
5810	1618396 7184 12622 18785 109 161.75 212 486.83941650391 785.82187652588 119399.42136383 69107964.144339
5842	1625580 6181 13605 19035 116.25 164.5 194 0.973 11.200708441096 537.88970469348 2645.2045951419
5841	1631761 5922 13605 19035 116.25 164.5 194 -4.5 2.5 35.625318527222 369.60376350106
5840	1637683 6321 13567 19035 116 164.5 195 1.3167219161987 15.02499961853 2180.3837039471 27758.165892567
5839	1644004 6660 13528 19035 115.75 164.5 196 486.85000610352 732.18989562988 103909.16023254 56104470.553044
5838	1650664 6640 13528 19035 115.75 164.5 196 486.85000610352 785.82187652588 111050.17430878 64744011.376756
vector 5943  IntersectionExampleScenario.node[66].veinsmobility  posx  ETV
vector 5944  IntersectionExampleScenario.node[66].veinsmobility  posy  ETV
vector 5945  IntersectionExampleScenario.node[66].veinsmobility  speed  ETV
vector 5946  IntersectionExampleScenario.node[66].veinsmobility  acceleration  ETV
vector 5947  IntersectionExampleScenario.node[66].veinsmobility  co2emission  ETV
5807	1657700 6914 12590 19102 108.75 165.25 227 0.973 11.450879080643 598.05017385626 2898.2472400985
5806	1664614 6320 12590 19102 108.75 165.25 227 -7.0983591079712 4 38.341367721558 477.64958396179
5805	1670934 6647 12557 19102 108.5 165.25 228 0 15.375 2212.4343681335 31390.189235871
5804	1677581 7787 12524 19102 108.25 165.25 229 483.14999389648 483.14999389648 110641.34860229 53456366.901897
5803	1685368 7757 12524 19102 108.25 165.25 229 184.17810058594 733.41819763184 104369.53852844 51741422.50656
vector 5950  IntersectionExampleScenario.node[67].veinsmobility  posx  ETV
vector 5951  IntersectionExampleScenario.node[67].veinsmobility  posy  ETV
vector 5952  IntersectionExampleScenario.node[67].veinsmobility  speed  ETV
vector 5953  IntersectionExampleScenario.node[67].veinsmobility  acceleration  ETV
vector 5954  IntersectionExampleScenario.node[67].veinsmobility  co2emission  ETV
5828	1693521 6569 13343 19198 114.5 166.25 208 0.973 11.648172402475 592.89395908306 2948.0996051027
5827	1700090 6816 13343 19198 114.5 166.25 208 -3.8715078830719 2.5000000149012 41.396924972534 369.55596436843
5826	1706906 6877 13306 19198 114.25 166.25 209 0 16.01099395752 2213.3382906839 31209.683607225
5825	1713783 7121 13271 19198 114 166.25 210 483.14999389648 734.99609375 109651.29679871 58303169.756044
5824	1720904 7103 13271 19198 114 166.25 210 184.17810058594 487.02700805664 86987.895874023 37935953.615008
vector 5957  IntersectionExampleScenario.node[68].veinsmobility  posx  ETV
vector 5958  IntersectionExampleScenario.node[68].veinsmobility  posy  ETV
vector 5964  IntersectionExampleScenario.node[69].veinsmobility  posx  ETV
vector 5965  IntersectionExampleScenario.node[69].veinsmobility  posy  ETV
vector 5959  IntersectionExampleScenario.node[68].veinsmobility  speed  ETV
vector 5960  IntersectionExampleScenario.node[68].veinsmobility  acceleration  ETV
vector 5961  IntersectionExampleScenario.node[68].veinsmobility  co2emission  ETV
vector 5966  IntersectionExampleScenario.node[69].veinsmobility  speed  ETV
vector 5967  IntersectionExampleScenario.node[69].veinsmobility  acceleration  ETV
vector 5968  IntersectionExampleScenario.node[69].veinsmobility  co2emission  ETV
vector 5971  IntersectionExampleScenario.node[70].veinsmobility  posx  ETV
vector 5972  IntersectionExampleScenario.node[70].veinsmobility  posy  ETV
vector 5973  IntersectionExampleScenario.node[70].veinsmobility  speed  ETV
vector 5974  IntersectionExampleScenario.node[70].veinsmobility  acceleration  ETV
vector 5975  IntersectionExampleScenario.node[70].veinsmobility  co2emission  ETV
5856	1729195 5286 15728 19916 133.5 173 159 0.973 11.200708441096 454.35911991347 2192.1748794677
5855	1734481 4791 15728 19916 133.5 173 159 -2.9507179260254 2.5 35.795072555542 167.29327392471
5854	1739272 5224 15703 19916 133.25 173 160 5.6500000953674 15.02499961853 2213.0092506409 31119.00031273
5853	1744496 5472 15680 19916 133 173 161 483.14999389648 483.14999389648 77787.149017334 37582860.57295
5852	1749968 5443 15680 19916 133 173 161 184.17810058594 732.51210021973 72318.647140503 36736366.211433
vector 5978  IntersectionExampleScenario.node[71].veinsmobility  posx  ETV
vector 5979  IntersectionExampleScenario.node[71].veinsmobility  posy  ETV
vector 5980  IntersectionExampleScenario.node[71].veinsmobility  speed  ETV
vector 5981  IntersectionExampleScenario.node[71].veinsmobility  acceleration  ETV
vector 5982  IntersectionExampleScenario.node[71].veinsmobility  co2emission  ETV
5821	1755807 7519 13238 20219 113.75 176 250 0.973 11.200708441096 606.31375759679 2772.4777330852
5820	1763326 6943 13238 20219 113.75 176 250 -34.743347167969 4 35.625318527222 1538.8896437297
5819	1770269 7088 13205 20219 113.5 176 251 0 15.02499961853 2208.0060567856 30456.675303222
5818	1777357 8546 13172 20219 113.25 176 252 184.17810058594 486.85000610352 106824.45391846 47406499.56022
5817	1785903 8566 13172 20219 113.25 176 252 235.62408447266 486.85000610352 113824.97479248 52586521.904987
5835	1794469 7458 13380 20244 114.75 176.25 247 0.973 11.00486315618 591.24619760641 2614.6531018123
5834	1801927 6565 13380 20244 114.75 176.25 247 -8.1519565582275 4 34.437047958374 525.37010927673
5833	1808492 7143 13343 20244 114.5 176.25 248 0 14.75 2213.983546257 29888.629050637
5832	1815635 8440 13306 20244 114.25 176.25 249 235.88970947266 785.82187652588 127598.7539978 69778815.887268
5831	1824075 8467 13306 20244 114.25 176.25 249 483.14999389648 483.14999389648 120304.34848022 58125045.233941
5863	1832542 5595 15753 20369 133.75 177.5 176 0.973 11.648172402475 540.68607120203 2868.7396917344
5862	1838137 5866 15753 20369 133.75 177.5 176 -2.1426239013672 2.5 39.710165023804 273.0425054366
5861	1844003 5884 15728 20369 133.5 177.5 177 4.2299332618713 15.64999961853 2215.9383597374 29938.105264011
5860	1849887 6043 15703 20369 133.25 177.5 178 236.99951171875 785.82187652588 92723.979316711 52497924.022748
5859	1855930 6053 15703 20369 133.25 177.5 178 483.14999389648 483.14999389648 86000.698913574 41551237.155187
5870	1861983 5420 15907 20369 135.25 177.5 170 0.973 12.099024792222 540.10604830698 2971.3611563663
5869	1867403 5488 15907 20369 135.25 177.5 170 -2.6782379150391 2.5 40.378400802612 282.67346390121
5868	1872891 5538 15880 20369 135 177.5 171 5.2893195152283 16.27499961853 2207.8999705315 30555.41293835
5867	1878429 5819 15853 20369 134.75 177.5 172 184.17810058594 486.88095092773 69001.865570068 29451090.575679
5866	1884248 5839 15853 20369 134.75 177.5 172 237.23553466797 486.85000610352 75584.782958984 34180813.145782
5884	1890087 5223 16368 20569 139.5 179.5 161 0.973 11.648172402475 516.5543755816 2895.4004398102
5883	1895310 4981 16368 20569 139.5 179.5 161 -3.1875076293945 2.5 39.869146347046 258.94592053211
5882	1900291 5276 16341 20569 139.25 179.5 162 5.6500000953674 15.64999961853 2209.4236564636 31162.87737312
5881	1905567 5529 16313 20569 139 179.5 163 238.78845214844 785.82187652588 85637.069816589 49041119.142496
5880	1911096 5541 16313 20569 139 179.5 163 483.14999389648 483.14999389648 78753.449005127 38049728.406154
vector 5985  IntersectionExampleScenario.node[72].veinsmobility  posx  ETV
vector 5986  IntersectionExampleScenario.node[72].veinsmobility  posy  ETV
vector 5987  IntersectionExampleScenario.node[72].veinsmobility  speed  ETV
vector 5988  IntersectionExampleScenario.node[72].veinsmobility  acceleration  ETV
vector 5989  IntersectionExampleScenario.node[72].veinsmobility  co2emission  ETV
vector 5992  IntersectionExampleScenario.node[73].veinsmobility  posx  ETV
vector 5993  IntersectionExampleScenario.node[73].veinsmobility  posy  ETV
vector 5994  IntersectionExampleScenario.node[73].veinsmobility  speed  ETV
vector 5995  IntersectionExampleScenario.node[73].veinsmobility  acceleration  ETV
vector 5996  IntersectionExampleScenario.node[73].veinsmobility  co2emission  ETV
vector 5999  IntersectionExampleScenario.node[74].veinsmobility  posx  ETV
vector 6000  IntersectionExampleScenario.node[74].veinsmobility  posy  ETV
vector 6001  IntersectionExampleScenario.node[74].veinsmobility  speed  ETV
vector 6002  IntersectionExampleScenario.node[74].veinsmobility  acceleration  ETV
vector 6003  IntersectionExampleScenario.node[74].veinsmobility  co2emission  ETV
vector 6006  IntersectionExampleScenario.node[75].veinsmobility  posx  ETV
vector 6007  IntersectionExampleScenario.node[75].veinsmobility  posy  ETV
vector 6013  IntersectionExampleScenario.node[76].veinsmobility  posx  ETV
vector 6014  IntersectionExampleScenario.node[76].veinsmobility  posy  ETV
vector 6008  IntersectionExampleScenario.node[75].veinsmobility  speed  ETV
vector 6009  IntersectionExampleScenario.node[75].veinsmobility  acceleration  ETV
vector 6010  IntersectionExampleScenario.node[75].veinsmobility  co2emission  ETV
vector 6015  IntersectionExampleScenario.node[76].veinsmobility  speed  ETV
vector 6016  IntersectionExampleScenario.node[76].veinsmobility  acceleration  ETV
vector 6017  IntersectionExampleScenario.node[76].veinsmobility  co2emission  ETV
vector 6020  IntersectionExampleScenario.node[77].veinsmobility  posx  ETV
vector 6021  IntersectionExampleScenario.node[77].veinsmobility  posy  ETV
5849	1918769 7723 14306 21262 121.25 185.75 259 0.973 11.200708441096 639.74092867241 2987.6694088159
5848	1926492 7312 14306 21262 121.25 185.75 259 -6.6641402244568 4 35.795072555542 545.38890538585
5847	1933804 7603 14271 21262 121 185.75 260 0 15.02499961853 2205.8777366877 28417.878960195
5846	1941407 8875 14236 21262 120.75 185.75 261 486.85000610352 486.85000610352 127067.85159302 61862984.323621
5845	1950282 8861 14236 21262 120.75 185.75 261 238.29931640625 785.82187652588 134570.34803009 73667681.044636
vector 6022  IntersectionExampleScenario.node[77].veinsmobility  speed  ETV
vector 6023  IntersectionExampleScenario.node[77].veinsmobility  acceleration  ETV
vector 6024  IntersectionExampleScenario.node[77].veinsmobility  co2emission  ETV
5877	1959387 5880 16286 21324 138.75 186.25 191 0.93438186594183 12.26218747632 567.11850081791 3273.4670370627
5876	1965267 6081 16286 21324 138.75 186.25 191 -2.1572227478027 2.5 41.057416915894 334.69712410253
5875	1971348 6184 16259 21324 138.5 186.25 192 1.4066160917282 16.5 2177.7454935312 29693.040173075
5874	1977532 6558 16231 21324 138.25 186.25 193 486.85000610352 731.39814758301 101709.25396729 54546010.047502
5873	1984090 6556 16231 21324 138.25 186.25 193 486.85000610352 785.82187652588 108774.97039032 63094622.900341
5891	1990646 5702 16716 21447 142.75 187.25 179 0.973 12.099024792222 577.95912498128 3139.0373126005
5890	1996348 5797 16716 21447 142.75 187.25 179 -4.5 2.5000019073486 43.395719528198 343.14004745135
5889	2002145 5893 16689 21447 142.5 187.25 180 3.7660622596741 16.661651611328 2245.6693842411 31662.408819748
5888	2008038 6155 16662 21447 142.25 187.25 181 486.85000610352 486.85000610352 88119.851104736 42901150.048182
5887	2014193 6125 16662 21447 142.25 187.25 181 236.27648925781 792.02188110352 95608.695259094 54603501.529843
5912	2020318 4946 17595 21795 151 190.25 158 0.973 12.099024792222 519.89538812965 3342.3171655436
5911	2025264 4905 17595 21795 151 190.25 158 -3.279655456543 2.5 40.038900375366 268.68990899457
5910	2030169 5162 17570 21795 150.75 190.25 159 5.6500000953674 16.27499961853 2213.7015228271 31658.70555065
5909	2035331 5440 17545 21795 150.5 190.25 160 486.85000610352 486.85000610352 77896.000976562 37923668.550879
5908	2040771 5424 17545 21795 150.5 190.25 160 237.75762939453 785.82187652588 84091.742073059 48270983.481379
vector 6027  IntersectionExampleScenario.node[78].veinsmobility  posx  ETV
vector 6028  IntersectionExampleScenario.node[78].veinsmobility  posy  ETV
vector 6029  IntersectionExampleScenario.node[78].veinsmobility  speed  ETV
vector 6030  IntersectionExampleScenario.node[78].veinsmobility  acceleration  ETV
vector 6031  IntersectionExampleScenario.node[78].veinsmobility  co2emission  ETV
5898	2046591 6437 16935 22377 144.75 196.25 207 0.97223939240464 11.648172402475 581.15976922157 2973.450450937
5897	2053028 5861 16935 22377 144.75 196.25 207 -7.1630792617798 4 38.680875778198 475.21272919869
5896	2058889 6250 16907 22377 144.5 196.25 208 0 15.64999961853 2217.0011966228 31576.668141371
5895	2065139 7107 16878 22377 144.25 196.25 209 483.14999389648 483.14999389648 100978.34872437 48787688.569854
5894	2072246 7073 16878 22377 144.25 196.25 209 184.17810058594 734.53523254395 95022.772384644 47373795.615811
5919	2079319 5585 17874 22538 153.75 198 178 0.973 12.099024792222 551.73560160393 3057.1033093365
5918	2084904 5834 17874 22538 153.75 198 178 -2.2408142089844 2.5 40.887662887573 296.8286641274
5917	2090738 5935 17847 22538 153.5 198 179 3.3509130477905 16.27499961853 2221.26151371 30821.47518794
5916	2096673 6120 17820 22538 153.25 198 180 483.14999389648 483.14999389648 86966.998901367 42018104.988391
5915	2102793 6089 17820 22538 153.25 198 180 184.17810058594 734.43276977539 80556.005432129 40110582.370435
vector 6034  IntersectionExampleScenario.node[79].veinsmobility  posx  ETV
vector 6035  IntersectionExampleScenario.node[79].veinsmobility  posy  ETV
vector 6036  IntersectionExampleScenario.node[79].veinsmobility  speed  ETV
5940	2109111 5656 18269 22790 157.25 200.75 175 0.973 11.648172402475 530.14881988529 2802.4459274915
5939	2114767 5518 18269 22790 157.25 200.75 175 -4.5 2.5 38.511121749878 329.22796616156
5938	2120285 5757 18238 22790 157 200.75 176 3.8619484901428 15.64999961853 2171.7770826817 29363.113448179
5937	2126042 6019 18207 22790 156.75 200.75 177 483.14999389648 483.14999389648 85517.548919678 41317803.238584
5936	2132061 6002 18207 22790 156.75 200.75 177 194.49920654297 732.88732910156 79562.306228638 39687494.732955
vector 6037  IntersectionExampleScenario.node[79].veinsmobility  acceleration  ETV
vector 6038  IntersectionExampleScenario.node[79].veinsmobility  co2emission  ETV
5933	2138230 5962 18238 23024 157 203.5 187 0.973 11.810082123732 585.69952093719 3165.5075796985
5932	2144192 5973 18238 23024 157 203.5 187 -4.5 2.5 42.565294265747 398.92280380724
5931	2150165 6058 18207 23024 156.75 203.5 188 4.3904895782471 15.875 2221.8853292465 28927.415021606
5930	2156223 6422 18177 23024 156.5 203.5 189 238.56646728516 483.14999389648 83264.415466309 37647806.079363
5929	2162645 6407 18177 23024 156.5 203.5 189 172.9296875 483.14999389648 74032.563751221 31072142.559711
vector 6041  IntersectionExampleScenario.node[80].veinsmobility  posx  ETV
vector 6042  IntersectionExampleScenario.node[80].veinsmobility  posy  ETV
vector 6048  IntersectionExampleScenario.node[81].veinsmobility  posx  ETV
vector 6049  IntersectionExampleScenario.node[81].veinsmobility  posy  ETV
vector 6043  IntersectionExampleScenario.node[80].veinsmobility  speed  ETV
vector 6044  IntersectionExampleScenario.node[80].veinsmobility  acceleration  ETV
vector 6045  IntersectionExampleScenario.node[80].veinsmobility  co2emission  ETV
vector 6050  IntersectionExampleScenario.node[81].veinsmobility  speed  ETV
vector 6051  IntersectionExampleScenario.node[81].veinsmobility  acceleration  ETV
vector 6052  IntersectionExampleScenario.node[81].veinsmobility  co2emission  ETV
vector 6055  IntersectionExampleScenario.node[82].veinsmobility  posx  ETV
vector 6056  IntersectionExampleScenario.node[82].veinsmobility  posy  ETV
vector 6057  IntersectionExampleScenario.node[82].veinsmobility  speed  ETV
5905	2170073 7214 17285 23363 148 207.25 238 0.973 11.00486315618 579.2110986398 2596.1713826117
5904	2177287 6530 17285 23363 148 207.25 238 -7.1267910003662 4 34.437047958374 448.96657704428
5903	2183817 6993 17258 23363 147.75 207.25 239 0 14.75 2213.4741737843 29707.09257647
5902	2190810 8120 17231 23363 147.5 207.25 240 184.17810058594 734.11030578613 109662.9715271 54497575.75605
5901	2198930 8160 17231 23363 147.5 207.25 240 486.85000610352 486.85000610352 116844.00146484 56885502.826318
vector 6058  IntersectionExampleScenario.node[82].veinsmobility  acceleration  ETV
vector 6059  IntersectionExampleScenario.node[82].veinsmobility  co2emission  ETV
5926	2207257 6452 18148 23464 156.25 208.25 209 0.973 11.36141391502 551.37525701814 2734.3397037148
5925	2213709 6697 18148 23464 156.25 208.25 209 -3.8471026420593 2.5 37.15309715271 325.25813537714
5924	2220406 6819 18119 23464 156 208.25 210 0 15.25 2187.6415887624 28451.545464937
5923	2227225 7149 18090 23464 155.75 208.25 211 184.17810058594 483.14999389648 86470.215118408 37319107.085811
5922	2234374 7169 18090 23464 155.75 208.25 211 486.85000610352 734.17643737793 111136.35430908 59584412.361627
5954	2241543 5523 19198 23564 166.25 209.25 173 0.973 11.648172402475 516.59385353615 2727.5331428064
5953	2247066 5227 19198 23564 166.25 209.25 173 -2.0646018981934 2.5000019073486 37.662351608276 252.26385959317
5952	2252293 5692 19173 23564 166 209.25 174 5.4226489067078 15.64999961853 2221.0825505257 29945.249487452
5951	2257985 5895 19148 23564 165.75 209.25 175 184.17810058594 734.02661132812 78167.987228394 39122479.464213
5950	2263880 5950 19148 23564 165.75 209.25 175 486.85000610352 486.85000610352 85198.751068115 41479012.477524
5975	2269830 5223 19788 23764 171.75 211.25 159 0.97223939240464 11.810082123732 507.90446564047 2852.4636117653
5974	2275053 4903 19788 23764 171.75 211.25 159 -3.3224430084229 2.5 38.680875778198 281.07750478256
5973	2279956 5102 19761 23764 171.5 211.25 160 5.6500000953674 15.875 2180.3963141441 31117.975677723
5972	2285058 5471 19734 23764 171.25 211.25 161 486.73587036133 785.82187652588 92162.609840393 54496323.186597
5971	2290529 5471 19734 23764 171.25 211.25 161 237.83447265625 483.14999389648 69706.979278564 31091660.187102
vector 6062  IntersectionExampleScenario.node[83].veinsmobility  posx  ETV
vector 6063  IntersectionExampleScenario.node[83].veinsmobility  posy  ETV
vector 6069  IntersectionExampleScenario.node[84].veinsmobility  posx  ETV
vector 6070  IntersectionExampleScenario.node[84].veinsmobility  posy  ETV
vector 6064  IntersectionExampleScenario.node[83].veinsmobility  speed  ETV
vector 6065  IntersectionExampleScenario.node[83].veinsmobility  acceleration  ETV
vector 6066  IntersectionExampleScenario.node[83].veinsmobility  co2emission  ETV
vector 6071  IntersectionExampleScenario.node[84].veinsmobility  speed  ETV
vector 6072  IntersectionExampleScenario.node[84].veinsmobility  acceleration  ETV
vector 6073  IntersectionExampleScenario.node[84].veinsmobility  co2emission  ETV
vector 6076  IntersectionExampleScenario.node[85].veinsmobility  posx  ETV
vector 6077  IntersectionExampleScenario.node[85].veinsmobility  posy  ETV
vector 6078  IntersectionExampleScenario.node[85].veinsmobility  speed  ETV
vector 6083  IntersectionExampleScenario.node[86].veinsmobility  posx  ETV
vector 6084  IntersectionExampleScenario.node[86].veinsmobility  posy  ETV
vector 6079  IntersectionExampleScenario.node[85].veinsmobility  acceleration  ETV
vector 6080  IntersectionExampleScenario.node[85].veinsmobility  co2emission  ETV
vector 6085  IntersectionExampleScenario.node[86].veinsmobility  speed  ETV
vector 6086  IntersectionExampleScenario.node[86].veinsmobility  acceleration  ETV
vector 6087  IntersectionExampleScenario.node[86].veinsmobility  co2emission  ETV
5947	2297584 6250 19102 24225 165.25 215.75 203 0.973 12.099024792222 589.66892647595 3134.7174067383
5946	2303834 5766 19102 24225 165.25 215.75 203 -7.8776445388794 4 40.038900375366 506.86298142088
5945	2309600 6114 19079 24225 165 215.75 204 0 16.27499961853 2203.8333246708 32016.310512142
5944	2315714 6971 19056 24225 164.75 215.75 205 486.85000610352 486.85000610352 99804.251251221 48589700.330813
5943	2322685 6949 19056 24225 164.75 215.75 205 238.71252441406 785.82187652588 105922.64917755 58768098.184546
5968	2329634 6382 19408 24457 168.25 218 200 0.973 11.36141391502 557.72360896391 2771.6516240182
5967	2336016 6117 19408 24457 168.25 218 200 -4.0121955871582 2.5 37.492597579956 371.91901890025
5966	2342133 6544 19379 24457 168 218 201 0 15.25 2239.0947598182 30385.296522139
5965	2348677 6857 19350 24457 167.75 218 202 486.85000610352 734.13848876953 106700.47436523 57390082.51708
5964	2355534 6849 19350 24457 167.75 218 202 486.85000610352 798.59687805176 114256.13762665 66715540.57542
vector 6090  IntersectionExampleScenario.node[87].veinsmobility  posx  ETV
vector 6091  IntersectionExampleScenario.node[87].veinsmobility  posy  ETV
vector 6092  IntersectionExampleScenario.node[87].veinsmobility  speed  ETV
vector 6093  IntersectionExampleScenario.node[87].veinsmobility  acceleration  ETV
vector 6094  IntersectionExampleScenario.node[87].veinsmobility  co2emission  ETV
vector 6097  IntersectionExampleScenario.node[88].veinsmobility  posx  ETV
vector 6098  IntersectionExampleScenario.node[88].veinsmobility  posy  ETV
vector 6099  IntersectionExampleScenario.node[88].veinsmobility  speed  ETV
vector 6100  IntersectionExampleScenario.node[88].veinsmobility  acceleration  ETV
vector 6101  IntersectionExampleScenario.node[88].veinsmobility  co2emission  ETV
6017	2363175 5011 21204 24923 185.25 222.75 151 0.973 11.990504229548 479.97191342524 2613.7218177773
6016	2368186 4497 21204 24923 185.25 222.75 151 -3.2447547912598 2.5 39.869146347046 201.41922718971
6015	2372683 4915 21175 24923 185 222.75 152 5.6500000953674 16.125 2212.2037334442 32921.068151754
6014	2377598 5203 21145 24923 184.75 222.75 153 486.85000610352 486.85000610352 74488.050933838 36264508.051778
6013	2382801 5166 21145 24923 184.75 222.75 153 238.06097412109 785.82187652588 79972.657585144 45844433.356388
vector 6104  IntersectionExampleScenario.node[89].veinsmobility  posx  ETV
vector 6105  IntersectionExampleScenario.node[89].veinsmobility  posy  ETV
vector 6106  IntersectionExampleScenario.node[89].veinsmobility  speed  ETV
vector 6107  IntersectionExampleScenario.node[89].veinsmobility  acceleration  ETV
vector 6108  IntersectionExampleScenario.node[89].veinsmobility  co2emission  ETV
vector 6111  IntersectionExampleScenario.node[90].veinsmobility  posx  ETV
vector 6112  IntersectionExampleScenario.node[90].veinsmobility  posy  ETV
5961	2388515 7130 19379 25324 168 227.5 239 0.973 11.450879080643 611.60242084036 3074.6269412798
5960	2395645 6769 19379 25324 168 227.5 239 -7.5576038360596 4 37.15309715271 526.33712623393
5959	2402414 6904 19350 25324 167.75 227.5 240 0 15.375 2210.8696906567 30950.013098426
5958	2409318 8194 19323 25324 167.5 227.5 241 483.14999389648 483.14999389648 116439.14852905 56257573.901123
5957	2417512 8165 19323 25324 167.5 227.5 241 184.17810058594 733.24285888672 110022.00215149 54460103.319772
vector 6113  IntersectionExampleScenario.node[90].veinsmobility  speed  ETV
vector 6118  IntersectionExampleScenario.node[91].veinsmobility  posx  ETV
vector 6119  IntersectionExampleScenario.node[91].veinsmobility  posy  ETV
vector 6114  IntersectionExampleScenario.node[90].veinsmobility  acceleration  ETV
vector 6115  IntersectionExampleScenario.node[90].veinsmobility  co2emission  ETV
vector 6125  IntersectionExampleScenario.node[92].veinsmobility  posx  ETV
vector 6126  IntersectionExampleScenario.node[92].veinsmobility  posy  ETV
vector 6120  IntersectionExampleScenario.node[91].veinsmobility  speed  ETV
vector 6121  IntersectionExampleScenario.node[91].veinsmobility  acceleration  ETV
vector 6122  IntersectionExampleScenario.node[91].veinsmobility  co2emission  ETV
vector 6127  IntersectionExampleScenario.node[92].veinsmobility  speed  ETV
5982	2426546 6683 20119 25422 175 228.5 215 0.973 11.810082123732 586.25464382071 3074.7046382886
5981	2433229 6953 20119 25422 175 228.5 215 -3.6795933246613 2.5 40.038900375366 355.69031255294
5980	2440182 7050 20093 25422 174.75 228.5 216 0 16.06477355957 2190.8164440114 29894.826117534
5979	2447232 7370 20066 25422 174.5 228.5 217 235.21020507812 483.14999389648 96764.386505127 44178889.447661
5978	2454602 7347 20066 25422 174.5 228.5 217 184.17810058594 483.14999389648 89693.859619141 38955297.960048
vector 6128  IntersectionExampleScenario.node[92].veinsmobility  acceleration  ETV
vector 6129  IntersectionExampleScenario.node[92].veinsmobility  co2emission  ETV
5996	2462116 6048 20729 25584 181 230 197 0.973 12.553400930962 581.61846257094 3308.9088627217
5995	2468164 6274 20729 25584 181 230 197 -3.0755271911621 2.5 42.585195541382 337.73942090258
5994	2474438 6397 20702 25584 180.75 230 198 1.6645758152008 16.89999961853 2177.339607358 29234.058063491
5993	2480835 6762 20675 25584 180.5 230 199 238.70922851562 483.14999389648 88557.087219238 40347520.718752
5992	2487597 6737 20675 25584 180.5 230 199 184.17810058594 483.16845703125 80727.627563477 34513166.943505
vector 6132  IntersectionExampleScenario.node[93].veinsmobility  posx  ETV
vector 6133  IntersectionExampleScenario.node[93].veinsmobility  posy  ETV
vector 6134  IntersectionExampleScenario.node[93].veinsmobility  speed  ETV
vector 6135  IntersectionExampleScenario.node[93].veinsmobility  acceleration  ETV
vector 6136  IntersectionExampleScenario.node[93].veinsmobility  co2emission  ETV
vector 6139  IntersectionExampleScenario.node[94].veinsmobility  posx  ETV
vector 6140  IntersectionExampleScenario.node[94].veinsmobility  posy  ETV
vector 6141  IntersectionExampleScenario.node[94].veinsmobility  speed  ETV
vector 6142  IntersectionExampleScenario.node[94].veinsmobility  acceleration  ETV
vector 6143  IntersectionExampleScenario.node[94].veinsmobility  co2emission  ETV
vector 6146  IntersectionExampleScenario.node[95].veinsmobility  posx  ETV
vector 6147  IntersectionExampleScenario.node[95].veinsmobility  posy  ETV
vector 6148  IntersectionExampleScenario.node[95].veinsmobility  speed  ETV
6003	2495355 6538 20841 25972 182 233.5 207 0.973 11.440161957732 555.6856011582 2753.7375143162
6002	2501893 6711 20841 25972 182 233.5 207 -3.2943840026855 2.5 36.98334312439 308.4189483278
6001	2508604 6769 20812 25972 181.75 233.5 208 1.3686133623123 15.360035896301 2276.2942103148 29471.746836424
6000	2515373 7100 20783 25972 181.5 233.5 209 236.19293212891 483.14999389648 92568.974151611 42042150.99763
5999	2522473 7077 20783 25972 181.5 233.5 209 162.00311279297 483.22576904297 83254.356781006 35393729.026875
vector 6149  IntersectionExampleScenario.node[95].veinsmobility  acceleration  ETV
vector 6150  IntersectionExampleScenario.node[95].veinsmobility  co2emission  ETV
6010	2529717 6332 21175 26117 185 234.75 200 0.973 11.200708441096 572.86370451936 2838.202068664
6009	2536049 6440 21175 26117 185 234.75 200 -2.9910125732422 2.5 40.038900375366 299.38584737092
6008	2542489 6521 21145 26117 184.75 234.75 201 3.3112223148346 15.722207069397 2272.7477421761 29874.233945535
6007	2549010 6862 21116 26117 184.5 234.75 202 238.73449707031 483.14999389648 89725.138153076 40823576.445522
6006	2555872 6847 21116 26117 184.5 234.75 202 160.19250488281 483.14999389648 79824.10256958 33713193.52441
vector 6153  IntersectionExampleScenario.node[96].veinsmobility  posx  ETV
vector 6154  IntersectionExampleScenario.node[96].veinsmobility  posy  ETV
vector 6155  IntersectionExampleScenario.node[96].veinsmobility  speed  ETV
vector 6156  IntersectionExampleScenario.node[96].veinsmobility  acceleration  ETV
vector 6157  IntersectionExampleScenario.node[96].veinsmobility  co2emission  ETV
6024	2563115 6323 21324 26388 186.25 237 204 0.973 11.810082123732 581.84780138711 3053.1818444695
6023	2569438 5851 21324 26388 186.25 237 204 -8.1522989273071 4 39.529638290405 490.76583509066
6022	2575289 6088 21293 26388 186 237 205 0 15.875 2178.69079566 31101.664936861
6021	2581377 6979 21262 26388 185.75 237 206 184.17810058594 483.36395263672 85275.866607666 37223762.904395
6020	2588356 6935 21262 26388 185.75 237 206 486.85000610352 733.38047790527 108342.05891418 57984451.657997
5989	2595291 7052 20649 26481 180.25 237.75 231 0.973 11.200708441096 583.20697154695 2692.1999875611
5988	2602343 6688 20649 26481 180.25 237.75 231 -8.6810245513916 4 36.134572982788 466.57867057003
5987	2609031 6910 20622 26481 180 237.75 232 0 15.035689353943 2204.7535133362 30262.792004714
[...]
vector 11187  IntersectionExampleScenario.node[815].veinsmobility  posy  ETV
vector 11188  IntersectionExampleScenario.node[815].veinsmobility  speed  ETV
vector 11189  IntersectionExampleScenario.node[815].veinsmobility  acceleration  ETV
vector 11190  IntersectionExampleScenario.node[815].veinsmobility  co2emission  ETV
11050	31191707 6106 273618 279017 1744.5 1787.25 172 0.973 11.648172402475 548.85904106191 2947.0508042269
11049	31197813 5587 273618 279017 1744.5 1787.25 172 -6.8118047714233 4 38.850629806519 473.41527261686
11048	31203400 6070 273593 279017 1744.25 1787.25 173 0 15.64999961853 2219.7540535927 31693.65606955
11047	31209470 6407 273567 279017 1744 1787.25 174 184.17810058594 735.09378051758 78552.72567749 39626362.4039
11046	31215877 6437 273567 279017 1744 1787.25 174 486.85000610352 486.85000610352 84711.901062012 41241989.549081
11008	31222314 8297 271080 279017 1724.25 1787.25 253 0.973 11.450879080643 618.55584233332 2927.1219399466
11007	31230611 7785 271080 279017 1724.25 1787.25 253 -19.8606300354 4 38.341367721558 779.6981080469
11006	31238396 8017 271047 279017 1724 1787.25 254 0 15.375 2305.6259346008 32363.882196779
11005	31246413 9414 271014 279017 1723.75 1787.25 255 236.58178710938 808.82032012939 132928.62580109 74067038.430364
11004	31255827 9435 271014 279017 1723.75 1787.25 255 483.14999389648 483.14999389648 123203.2484436 59525648.733554
11057	31265262 6027 273822 279162 1746.5 1788.5 169 0.97223939240464 11.810082123732 538.28136501059 3005.3642871002
11056	31271289 5675 273822 279162 1746.5 1788.5 169 -4.5 2.5000019073486 38.680875778198 359.87555093649
11055	31276964 5940 273795 279162 1746.25 1788.5 170 5.6500000953674 15.875 2251.6182861328 31596.777880354
11054	31282904 6282 273768 279162 1746 1788.5 171 166.078125 483.14999389648 67069.991424561 28341612.037319
11053	31289186 6323 273768 279162 1746 1788.5 171 486.85000610352 731.73556518555 91301.215713501 49678826.794191
11022	31295509 8379 271657 279191 1728.5 1788.75 242 0.973 11.648172402475 611.16922542995 2986.871719376
11021	31303888 8593 271657 279191 1728.5 1788.75 242 -4.5 2.5000000447035 38.001859664917 428.62466933076
11020	31312481 8677 271620 279191 1728.25 1788.75 243 0 15.64999961853 2245.9037834201 30650.539228101
11019	31321158 9008 271583 279191 1728 1788.75 244 486.85000610352 802.38581085205 135747.59107208 77801245.99106
11018	31330166 9021 271583 279191 1728 1788.75 244 237.93969726562 483.14999389648 109731.43948364 50405226.064972
11043	31339187 6531 273464 279365 1743 1790.25 190 0.973 11.648172402475 558.09065991069 2968.9095834333
11042	31345718 6827 273464 279365 1743 1790.25 190 -2.2096214294434 2.5000009536743 39.869146347046 309.72668906186
11041	31352545 7027 273437 279365 1742.75 1790.25 191 2.2050116062164 15.89288520813 2210.5503954887 29709.758705336
11040	31359572 7086 273410 279365 1742.5 1790.25 192 483.14999389648 785.82187652588 108355.58467865 62971966.178511
11039	31366658 7100 273410 279365 1742.5 1790.25 192 483.14999389648 733.46058654785 100994.67749023 54143741.491486
vector 11193  IntersectionExampleScenario.node[816].veinsmobility  posx  ETV
vector 11194  IntersectionExampleScenario.node[816].veinsmobility  posy  ETV
vector 11195  IntersectionExampleScenario.node[816].veinsmobility  speed  ETV
vector 11196  IntersectionExampleScenario.node[816].veinsmobility  acceleration  ETV
vector 11197  IntersectionExampleScenario.node[816].veinsmobility  co2emission  ETV
11071	31374164 6267 274025 279602 1748.25 1792.25 177 0.973 11.648172402475 576.46695847848 3147.3858440321
11070	31380431 6027 274025 279602 1748.25 1792.25 177 -4.5 2.5 38.341367721558 432.14864930847
11069	31386458 6396 273994 279602 1748 1792.25 178 3.8806338310242 15.64999961853 2291.2682027817 31456.06569355
11068	31392854 6606 273963 279602 1747.75 1792.25 179 155.89215087891 483.30960083008 69641.542144775 29313193.069168
11067	31399460 6613 273963 279602 1747.75 1792.25 179 486.85000610352 733.45295715332 95352.224700928 51762282.853915
vector 11200  IntersectionExampleScenario.node[817].veinsmobility  posx  ETV
vector 11201  IntersectionExampleScenario.node[817].veinsmobility  posy  ETV
vector 11202  IntersectionExampleScenario.node[817].veinsmobility  speed  ETV
vector 11203  IntersectionExampleScenario.node[817].veinsmobility  acceleration  ETV
vector 11204  IntersectionExampleScenario.node[817].veinsmobility  co2emission  ETV
11064	31406479 6416 273934 279748 1747.5 1793.5 185 0.973 11.36141391502 552.77268694028 2949.290221568
11063	31412895 6459 273934 279748 1747.5 1793.5 185 -4.0821723937988 2.5000019073486 37.32285118103 367.98929424083
11062	31419354 6556 273905 279748 1747.25 1793.5 186 4.2064094543457 15.25 2189.7827596664 28484.919634553
11061	31425910 6903 273876 279748 1747 1793.5 187 486.79876708984 785.82187652588 106419.56284332 62344983.191363
11060	31432813 6909 273876 279748 1747 1793.5 187 235.15814208984 483.14999389648 81914.385009766 36891840.586488
vector 11207  IntersectionExampleScenario.node[818].veinsmobility  posx  ETV
vector 11208  IntersectionExampleScenario.node[818].veinsmobility  posy  ETV
vector 11209  IntersectionExampleScenario.node[818].veinsmobility  speed  ETV
vector 11210  IntersectionExampleScenario.node[818].veinsmobility  acceleration  ETV
vector 11211  IntersectionExampleScenario.node[818].veinsmobility  co2emission  ETV
11085	31440128 6424 274150 279897 1749.25 1794.75 183 0.973 11.200708441096 551.12051318011 2880.1566657162
11084	31446552 6158 274150 279897 1749.25 1794.75 183 -4.5 2.5 36.643835067749 365.07516757703
11083	31452710 6581 274117 279897 1749 1794.75 184 3.6096162796021 15.254040718079 2288.8335437775 30407.297727041
11082	31459291 6828 274084 279897 1748.75 1794.75 185 237.84442138672 805.05782318115 98532.323509216 57138513.013547
11081	31466119 6846 274084 279897 1748.75 1794.75 185 483.14999389648 483.14999389648 89382.74887085 43185274.571402
vector 11214  IntersectionExampleScenario.node[819].veinsmobility  posx  ETV
vector 11215  IntersectionExampleScenario.node[819].veinsmobility  posy  ETV
vector 11216  IntersectionExampleScenario.node[819].veinsmobility  speed  ETV
vector 11217  IntersectionExampleScenario.node[819].veinsmobility  acceleration  ETV
vector 11218  IntersectionExampleScenario.node[819].veinsmobility  co2emission  ETV
11029	31473371 7616 273162 280204 1740.25 1797.25 229 0.973 11.810082123732 602.48794275247 3062.0621817883
11028	31480987 7114 273162 280204 1740.25 1797.25 229 -6.8117866516113 4 38.850629806519 475.00774497838
11027	31488101 7303 273133 280204 1740 1797.25 230 0 15.875 2186.7029876709 30970.845276154
11026	31495404 8472 273103 280204 1739.75 1797.25 231 486.85000610352 735.24140930176 120714.25401306 64149722.893791
11025	31503876 8540 273103 280204 1739.75 1797.25 231 486.63604736328 785.82187652588 127063.11917877 71894623.515757
vector 11221  IntersectionExampleScenario.node[820].veinsmobility  posx  ETV
vector 11222  IntersectionExampleScenario.node[820].veinsmobility  posy  ETV
vector 11223  IntersectionExampleScenario.node[820].veinsmobility  speed  ETV
vector 11228  IntersectionExampleScenario.node[821].veinsmobility  posx  ETV
vector 11229  IntersectionExampleScenario.node[821].veinsmobility  posy  ETV
vector 11224  IntersectionExampleScenario.node[820].veinsmobility  acceleration  ETV
vector 11225  IntersectionExampleScenario.node[820].veinsmobility  co2emission  ETV
vector 11230  IntersectionExampleScenario.node[821].veinsmobility  speed  ETV
vector 11231  IntersectionExampleScenario.node[821].veinsmobility  acceleration  ETV
vector 11232  IntersectionExampleScenario.node[821].veinsmobility  co2emission  ETV
11078	31513228 6740 274150 280405 1749.25 1798.75 199 0.973 11.648172402475 551.95539322539 2872.1845188121
11077	31519968 7021 274150 280405 1749.25 1798.75 199 -2.2047729492188 2.5000004768372 38.001859664917 311.27475652225
11076	31526989 7161 274117 280405 1749 1798.75 200 1.0401066541672 15.64999961853 2209.788194418 29289.556964256
11075	31534150 7431 274084 280405 1748.75 1798.75 201 235.66119384766 486.85000610352 89329.521148682 40766335.268241
11074	31541581 7432 274084 280405 1748.75 1798.75 201 482.96725463867 785.82187652588 112803.82129669 65186091.13311
vector 11235  IntersectionExampleScenario.node[822].veinsmobility  posx  ETV
vector 11236  IntersectionExampleScenario.node[822].veinsmobility  posy  ETV
11092	31549169 6417 274405 280571 1751.25 1800 196 0.973 11.648172402475 536.88118283536 2910.0211269897
11091	31555586 5998 274405 280571 1751.25 1800 196 -8.885950088501 4 38.342359542847 512.45265577448
11090	31561584 6127 274372 280571 1751 1800 197 0 15.64999961853 1696.0009071827 23348.704663004
11089	31567711 7320 274339 280571 1750.75 1800 198 483.14999389648 611.82434082031 97973.203826904 48647874.005278
11088	31575031 7296 274339 280571 1750.75 1800 198 184.17810058594 486.85000610352 81121.083526611 35104474.229749
11099	31582327 6651 274604 280571 1752.75 1800 190 0.973 11.200708441096 500.092694871 2506.4280551732
11098	31588978 6574 274604 280571 1752.75 1800 190 -4.5 2.5000009536743 35.796468734741 410.65793862225
11097	31595552 6771 274571 280571 1752.5 1800 191 0 15.02499961853 1661.1004205709 21488.889368186
11096	31602323 7098 274537 280571 1752.25 1800 192 387.72711181641 483.14999389648 91381.356994629 43568071.085
11095	31609421 7068 274537 280571 1752.25 1800 192 163.88433837891 483.14999389648 75511.028991699 31773351.496225
11106	31616489 5849 275119 280571 1756.75 1800 174 0.973 11.54047740176 483.49863403303 2623.5144575251
11105	31622338 6142 275119 280571 1756.75 1800 174 -3.8459811210632 2.5000019073486 38.141828536987 358.8655552561
11104	31628480 6243 275086 280571 1756.5 1800 175 0 15.5 1551.1743129045 19471.558937805
11103	31634723 6512 275053 280571 1756.25 1800 176 483.14999389648 483.14999389648 85034.398925781 41084369.321982
11102	31641235 6479 275053 280571 1756.25 1800 176 167.83123779297 550.83877563477 68322.84942627 28463483.214622
11113	31647714 5515 275552 280571 1760 1800 161 0.973 11.648172402475 410.66831063904 2019.4918657353
11112	31653229 5647 275552 280571 1760 1800 161 -4.5 2.5 18.39999961853 398.94013467799
11111	31658876 5761 275517 280571 1759.75 1800 162 0 15.64999961853 1350.3373150639 16106.934671379
11110	31664637 6030 275482 280571 1759.5 1800 163 463.03161621094 483.14999389648 78636.097442627 37937873.956129
11109	31670667 5995 275482 280571 1759.5 1800 163 164.75622558594 483.14999389648 60866.668609619 24367953.117085
11120	31676662 5379 275798 280571 1761.75 1800 154 0.973 12.553400930962 597.34522821498 3998.4118436271
11119	31682041 5133 275798 280571 1761.75 1800 154 -3.5983619689941 2.5 44.282758712769 414.43458165668
11118	31687174 5395 275763 280571 1761.5 1800 155 5.6500000953674 16.89999961853 2107.833237648 30540.691746217
11117	31692569 5765 275727 280571 1761.25 1800 156 486.85000610352 714.0326385498 82391.369491577 44214261.43376
11116	31698334 5761 275727 280571 1761.25 1800 156 486.81887817383 785.82187652588 89725.838417053 53251547.000948
11127	31704095 4705 276237 280571 1765 1800 141 0.973 11.589782407818 348.5432095498 1659.8703614761
11126	31708800 4803 276237 280571 1765 1800 141 -4.5 2.5 -2.5476551055908 408.60229859386
11125	31713603 5010 276201 280571 1764.75 1800 142 0 15.568706512451 1127.0918067396 13340.018537547
11124	31718613 5290 276166 280571 1764.5 1800 143 483.14999389648 483.14999389648 69090.449127197 33381050.074111
11123	31723903 5277 276166 280571 1764.5 1800 143 175.91162109375 456.37750244141 50582.216461182 19171141.560022
11134	31729180 4707 276272 280571 1765.25 1800 140 0.973 11.648172402475 358.2302332488 1880.3368498831
11133	31733887 4849 276272 280571 1765.25 1800 140 -39.076416015625 2.5 -22.60000038147 1909.5872933386
11132	31738736 5055 276237 280571 1765 1800 141 0 15.64999961853 1090.7328188755 13198.723326484
11131	31743791 5253 276201 280571 1764.75 1800 142 483.14999389648 483.14999389648 68607.299133301 33147616.157508
11130	31749044 5245 276201 280571 1764.75 1800 142 199.29736328125 471.60000610352 53504.817352295 21213122.522484
11141	31754289 3429 277482 280571 1774.5 1800 103 0.973 12.099024792222 288.02698214188 1601.0436704203
11140	31757718 3446 277482 280571 1774.5 1800 103 -6.9978852272034 2.5 -22.60000038147 326.65453373981
11139	31761164 3577 277454 280571 1774.25 1800 104 0 16.27499961853 1147.3112164736 16652.645670792
11138	31764741 3883 277425 280571 1774 1800 105 486.85000610352 486.85000610352 51119.250640869 24887407.486514
11137	31768624 3877 277425 280571 1774 1800 105 498.39999389648 785.82187652588 64824.679359436 41096932.926285
11148	31772501 3469 277540 280571 1775 1800 101 0.973 11.648172402475 293.57465795069 1533.3450238801
11147	31775970 3419 277540 280571 1775 1800 101 -7.775092124939 4 -1.1000003814697 380.00561916958
11146	31779389 3583 277511 280571 1774.75 1800 102 0 15.64999961853 1172.1268441677 16186.256428536
11145	31782972 3788 277482 280571 1774.5 1800 103 184.17810058594 476.20910644531 35772.21697998 13448204.876196
11144	31786760 3810 277482 280571 1774.5 1800 103 485.44281005859 486.85000610352 50142.344085693 24410242.568252
11155	31790570 3339 277711 280571 1776.5 1800 95 0.973 11.648172402475 292.81308271286 1568.0571513093
11154	31793909 3183 277711 280571 1776.5 1800 95 -4.5 2.5 5.1421604156494 296.30120944831
11153	31797092 3535 277682 280571 1776.25 1800 96 3.6855401992798 15.64999961853 1222.8023376465 16964.415076602
11152	31800627 3560 277653 280571 1776 1800 97 163.88433837891 467.17825317383 31144.936584473 10965136.896786
11151	31804187 3587 277653 280571 1776 1800 97 486.85000610352 486.85000610352 47224.450592041 22991224.05897
11162	31807774 3147 277770 280571 1777 1800 93 0.973 12.099024792222 275.58583266703 1581.2183697076
11161	31810921 3332 277770 280571 1777 1800 93 -4.5 2.5 -18.365489006042 288.60371255357
11160	31814253 3462 277741 280571 1776.75 1800 94 1.0586278438568 16.27499961853 1180.9135884047 16972.801869903
11159	31817715 3514 277711 280571 1776.5 1800 95 486.85000610352 486.85000610352 46250.750579834 22517178.202084
11158	31821229 3503 277711 280571 1776.5 1800 95 506.255859375 801.41563415527 61261.365592957 40443426.799914
11169	31824732 3140 277890 280571 1778 1800 89 0.973 10.756497587458 253.02105273635 1212.1252929915
11168	31827872 2926 277890 280571 1778 1800 89 -30.368844985962 2.5 -22.60000038147 1087.6554941476
11167	31830798 3288 277859 280571 1777.75 1800 90 0 14.39999961853 1145.7245135307 15371.982169817
11166	31834086 3356 277828 280571 1777.5 1800 91 498.39999389648 785.82187652588 58730.776763916 38652103.414822
11165	31837442 3366 277828 280571 1777.5 1800 91 483.14999389648 483.14999389648 43966.64944458 21242486.410798
11176	31840808 2979 278044 280571 1779.25 1800 84 0.973 10.756497587458 272.88391211829 1343.5464505544
11175	31843787 2996 278044 280571 1779.25 1800 84 -4.5 2.5 8.7405643463135 209.95580926074
11174	31846783 3130 278013 280571 1779 1800 85 5.6500000953674 16.266767501831 1205.164182663 17743.191344421
11173	31849913 3170 277982 280571 1778.75 1800 86 508.33294677734 807.09531402588 57296.596748352 38937156.097043
11172	31853083 3181 277982 280571 1778.75 1800 86 483.14999389648 483.14999389648 41550.899475098 20075316.827787
11183	31856264 2760 278233 280571 1780.75 1800 78 0.973 10.756497587458 269.38009579659 1461.0717247961
11182	31859024 2610 278233 280571 1780.75 1800 78 -4.5 2.5 27.319200515747 134.23674938742
11181	31861634 2893 278201 280571 1780.5 1800 79 5.6500000953674 16.181100845337 1155.8758163452 17442.384515321
11180	31864527 2953 278168 280571 1780.25 1800 80 532.04531860352 816.75234985352 54841.384368896 38222466.286335
11179	31867480 2960 278168 280571 1780.25 1800 80 483.14999389648 483.14999389648 38651.999511719 18674713.328174
11190	31870440 2228 278627 280571 1784 1800 65 0.973 11.648172402475 225.55828570263 1417.6381208507
11189	31872668 2262 278627 280571 1784 1800 65 -2.2736854553223 2.5 18.361619949341 144.31026809359
11188	31874930 2425 278596 280571 1783.75 1800 66 5.6500000953674 15.64999961853 884.30969238281 12280.60947844
11187	31877355 2478 278565 280571 1783.5 1800 67 486.85000610352 486.85000610352 32618.950408936 15880536.205681
11186	31879833 2472 278565 280571 1783.5 1800 67 568.03817749023 785.82187652588 45776.200813293 31596241.265285
11197	31882305 1233 279543 280571 1791.75 1800 34 0.973 11.648172402475 166.78879073828 1250.5847024128
11196	31883538 1127 279543 280571 1791.75 1800 34 -0.49953460693359 2.5 38.013120651245 100.57033910093
11195	31884665 1280 279512 280571 1791.5 1800 35 5.6500000953674 15.64999961853 455.24850749969 6264.6895119165
11194	31885945 1330 279481 280571 1791.25 1800 36 677.1003112793 785.82187652588 26625.993965149 19735668.356447
11193	31887275 1332 279481 280571 1791.25 1800 36 483.14999389648 483.14999389648 17393.399780273 8403620.9976782
11204	31888607 985 279748 280571 1793.5 1800 27 0.973 11.648172402475 152.68938928832 1221.4021005357
11203	31889592 846 279748 280571 1793.5 1800 27 -0.41465759277344 2.5 38.411413192749 100.39230083497
11202	31890438 1026 279719 280571 1793.25 1800 28 5.6500000953674 15.64999961853 349.83017444611 4677.3534531648
11201	31891464 1047 279689 280571 1793 1800 29 184.17810058594 266.51324462891 6323.9798583984 1398774.5011112
11200	31892511 1071 279689 280571 1793 1800 29 486.85000610352 486.85000610352 14118.650177002 6873664.9248468
11211	31893582 809 279897 280571 1794.75 1800 22 1.1319351608255 11.648172402475 143.91662979608 1204.8859176772
11210	31894391 647 279897 280571 1794.75 1800 22 -0.28734588623047 2.5 39.055185317993 100.182736495
11209	31895038 840 279866 280571 1794.5 1800 23 5.6500000953674 15.64999961853 273.9345369339 3525.4995021844
11208	31895878 876 279835 280571 1794.25 1800 24 162.90466308594 226.23413085938 4519.3352050781 860544.05763702
11207	31896754 888 279835 280571 1794.25 1800 24 486.85000610352 486.85000610352 11684.400146484 5688550.2826318
11218	31897642 476 280173 280571 1797 1800 13 5.2162187258585 10.315404520939 100.64515864481 812.01557512667
11217	31898118 335 280173 280571 1797 1800 13 2.4999980926514 2.5 32.499998092651 81.24999046326
11216	31898453 510 280142 280571 1796.75 1800 14 5.6500000953674 13.77499961853 135.97499656677 1409.5242963886
11215	31898963 545 280111 280571 1796.5 1800 15 156.65545654297 186.18981933594 2528.1349487305 427441.1405408
11214	31899508 554 280111 280571 1796.5 1800 15 486.85000610352 486.85000610352 7302.7500915527 3555343.9266449
11225	31900062 329 280301 280571 1798 1800 9 5.2162187258585 8.5795037135332 62.00095089838 437.72442123158
11224	31900391 235 280301 280571 1798 1800 9 2.4999980926514 2.5 22.499998092651 56.24999046326
11223	31900626 366 280268 280571 1797.75 1800 10 5.6500000953674 11.27499961853 84.624998092651 748.36558556557
11222	31900992 406 280235 280571 1797.5 1800 11 768.18751525879 785.82187652588 8565.2438354492 6669776.5751947
11221	31901398 406 280235 280571 1797.5 1800 11 483.14999389648 483.14999389648 5314.6499328613 2567773.0826239
11232	31901804 256 280371 280571 1798.5 1800 7 5.2162187258585 7.726741696285 45.269477411621 297.66192607747
11231	31902060 186 280371 280571 1798.5 1800 7 2.4999980926514 2.5 17.499998092651 43.74999046326
11230	31902246 295 280336 280571 1798.25 1800 8 5.6500000953674 10.02499961853 62.699998855591 507.81747729302
11229	31902541 331 280301 280571 1798 1800 9 483.14999389648 483.14999389648 4348.3499450684 2100905.2494196
11228	31902872 326 280301 280571 1798 1800 9 184.17810058594 196.79998779297 1703.7155761719 322683.41850586
11236	31903198 35 280571 280571 1800 1800 1 801.41563415527 801.41563415527 801.41563415527 642267.0186685
11235	31903233 35 280571 280571 1800 1800 1 483.14999389648 483.14999389648 483.14999389648 233433.91660217
5477	31903268 613 0 280570 0 1800 31 0 41 814 23198
5478	31903881 633 0 280570 0 1800 31 0 301 4688 988970
