version 2
run nodebug-18-20200606-11:05:49-6208
attr configname nodebug
attr datetime 20200606-11:05:49
attr experiment nodebug
attr inifile omnetpp.ini
attr iterationvars ""
attr iterationvars2 $repetition=18
attr measurement ""
attr network "\"org.car2x.veins.modules.application.ExtTraCIScenarioManagerLaunchd.IntersectionExampleScenario\""
attr processid 6208
attr repetition 18
attr replication #18
attr resultdir results
attr runnumber 18
attr seedset 18
param **.coreDebug false
param **.debug false
param *.**.nic.mac1609_4.bitrate 18Mbps
param *.**.nic.mac1609_4.txPower 20mW
param *.**.nic.mac1609_4.useServiceChannel false
param *.**.nic.phy80211p.analogueModels "xmldoc(\"config.xml\")"
param *.**.nic.phy80211p.decider "xmldoc(\"config.xml\")"
param *.**.nic.phy80211p.sensitivity -89dBm
param *.**.nic.phy80211p.thermalNoise -110dBm
param *.**.nic.phy80211p.usePropagationDelay true
param *.**.nic.phy80211p.useThermalNoise true
param *.annotations.draw false
param *.connectionManager.alpha 2.0
param *.connectionManager.carrierFrequency "5.890e9 Hz"
param *.connectionManager.pMax 20mW
param *.connectionManager.sat -89dBm
param *.connectionManager.sendDirect true
param *.manager.autoShutdown true
param *.manager.host "\"localhost\""
param *.manager.launchConfig "xmldoc(\"paramics.launchd.xml\")"
param *.manager.margin 25
param *.manager.moduleDisplayString "\"\""
param *.manager.moduleName "\"node\""
param *.manager.moduleType "\"org.car2x.veins.nodes.Car\""
param *.manager.port 9999
param *.manager.updateInterval 250ms
param *.node[*0].veinsmobility.accidentCount 0
param *.node[*0].veinsmobility.accidentDuration 30s
param *.node[*0].veinsmobility.accidentStart 75s
param *.node[*].appl.LiderSelectZoneRadio 55.0
param *.node[*].appl.ShareDataZoneRadio 110.0
param *.node[*].appl.TiempoSemaforo 30.0
param *.node[*].appl.beaconInterval 1s
param *.node[*].appl.beaconPriority 3
param *.node[*].appl.dataOnSch false
param *.node[*].appl.dataPriority 2
param *.node[*].appl.debug false
param *.node[*].appl.headerLength "256 bit"
param *.node[*].appl.maxOffset 0.005s
param *.node[*].appl.sendBeacons false
param *.node[*].appl.sendData true
param *.node[*].applType "\"Dummy\""
param *.node[*].mobilityType "\"TraCIMobility\""
param *.node[*].mobilityType.debug true
param *.node[*].veinsmobility.x 0
param *.node[*].veinsmobility.y 0
param *.node[*].veinsmobility.z 1.895
param *.node[*].veinsmobilityType "\"org.car2x.veins.modules.mobility.traci.TraCIMobility\""
param *.node[*].veinsmobilityType.debug true
param *.playgroundSizeX 8500m
param *.playgroundSizeY 8500m
param *.playgroundSizeZ 50m
param *.world.use2D false
param *.world.useTorus false

scalar IntersectionExampleScenario.node[0].appl 	VehicleRemoved 	0
scalar IntersectionExampleScenario.node[0].appl 	ArrivedAtDest 	1
scalar IntersectionExampleScenario.node[0].appl 	IntersectionEnterTime 	2.25
scalar IntersectionExampleScenario.node[0].appl 	IntersectionExitTime 	26.022730027733
scalar IntersectionExampleScenario.node[0].appl 	NumberOfCollisions 	0
scalar IntersectionExampleScenario.node[0].nic.phy80211p 	busyTime 	0
scalar IntersectionExampleScenario.node[0].nic.mac1609_4 	ReceivedUnicastPackets 	0
scalar IntersectionExampleScenario.node[0].nic.mac1609_4 	ReceivedBroadcasts 	0
scalar IntersectionExampleScenario.node[0].nic.mac1609_4 	SentPackets 	0
scalar IntersectionExampleScenario.node[0].nic.mac1609_4 	SNIRLostPackets 	0
scalar IntersectionExampleScenario.node[0].nic.mac1609_4 	RXTXLostPackets 	0
scalar IntersectionExampleScenario.node[0].nic.mac1609_4 	TotalLostPackets 	0
scalar IntersectionExampleScenario.node[0].nic.mac1609_4 	DroppedPacketsInMac 	0
scalar IntersectionExampleScenario.node[0].nic.mac1609_4 	TooLittleTime 	0
scalar IntersectionExampleScenario.node[0].nic.mac1609_4 	TimesIntoBackoff 	0
scalar IntersectionExampleScenario.node[0].nic.mac1609_4 	SlotsBackoff 	0
scalar IntersectionExampleScenario.node[0].nic.mac1609_4 	NumInternalContention 	0
scalar IntersectionExampleScenario.node[0].nic.mac1609_4 	totalBusyTime 	0
scalar IntersectionExampleScenario.node[0].veinsmobility 	startTime 	2.25
scalar IntersectionExampleScenario.node[0].veinsmobility 	totalTime 	40.75
scalar IntersectionExampleScenario.node[0].veinsmobility 	stopTime 	43.25
scalar IntersectionExampleScenario.node[0].veinsmobility 	minSpeed 	5.6500000953674
scalar IntersectionExampleScenario.node[0].veinsmobility 	maxSpeed 	15.25
scalar IntersectionExampleScenario.node[0].veinsmobility 	totalDistance 	543.47435240175
scalar IntersectionExampleScenario.node[0].veinsmobility 	totalCO2Emission 	124.63866132814
scalar IntersectionExampleScenario.node[2].appl 	VehicleRemoved 	0
scalar IntersectionExampleScenario.node[2].appl 	ArrivedAtDest 	1
scalar IntersectionExampleScenario.node[2].appl 	IntersectionEnterTime 	8.25
scalar IntersectionExampleScenario.node[2].appl 	IntersectionExitTime 	30.355914048821
scalar IntersectionExampleScenario.node[2].appl 	NumberOfCollisions 	0
scalar IntersectionExampleScenario.node[2].nic.phy80211p 	busyTime 	0
scalar IntersectionExampleScenario.node[2].nic.mac1609_4 	ReceivedUnicastPackets 	0
scalar IntersectionExampleScenario.node[2].nic.mac1609_4 	ReceivedBroadcasts 	0
scalar IntersectionExampleScenario.node[2].nic.mac1609_4 	SentPackets 	0
scalar IntersectionExampleScenario.node[2].nic.mac1609_4 	SNIRLostPackets 	0
scalar IntersectionExampleScenario.node[2].nic.mac1609_4 	RXTXLostPackets 	0
scalar IntersectionExampleScenario.node[2].nic.mac1609_4 	TotalLostPackets 	0
scalar IntersectionExampleScenario.node[2].nic.mac1609_4 	DroppedPacketsInMac 	0
scalar IntersectionExampleScenario.node[2].nic.mac1609_4 	TooLittleTime 	0
scalar IntersectionExampleScenario.node[2].nic.mac1609_4 	TimesIntoBackoff 	0
scalar IntersectionExampleScenario.node[2].nic.mac1609_4 	SlotsBackoff 	0
scalar IntersectionExampleScenario.node[2].nic.mac1609_4 	NumInternalContention 	0
scalar IntersectionExampleScenario.node[2].nic.mac1609_4 	totalBusyTime 	0
scalar IntersectionExampleScenario.node[2].veinsmobility 	startTime 	8.25
scalar IntersectionExampleScenario.node[2].veinsmobility 	totalTime 	37.25
scalar IntersectionExampleScenario.node[2].veinsmobility 	stopTime 	45.75
scalar IntersectionExampleScenario.node[2].veinsmobility 	minSpeed 	5.6500000953674
scalar IntersectionExampleScenario.node[2].veinsmobility 	maxSpeed 	16.75
scalar IntersectionExampleScenario.node[2].veinsmobility 	totalDistance 	554.32487487793
scalar IntersectionExampleScenario.node[2].veinsmobility 	totalCO2Emission 	125.01604405275
scalar IntersectionExampleScenario.node[3].appl 	VehicleRemoved 	0
scalar IntersectionExampleScenario.node[3].appl 	ArrivedAtDest 	1
scalar IntersectionExampleScenario.node[3].appl 	IntersectionEnterTime 	8.5
scalar IntersectionExampleScenario.node[3].appl 	IntersectionExitTime 	35.287215467688
scalar IntersectionExampleScenario.node[3].appl 	NumberOfCollisions 	0
scalar IntersectionExampleScenario.node[3].nic.phy80211p 	busyTime 	0
scalar IntersectionExampleScenario.node[3].nic.mac1609_4 	ReceivedUnicastPackets 	0
scalar IntersectionExampleScenario.node[3].nic.mac1609_4 	ReceivedBroadcasts 	0
scalar IntersectionExampleScenario.node[3].nic.mac1609_4 	SentPackets 	0
scalar IntersectionExampleScenario.node[3].nic.mac1609_4 	SNIRLostPackets 	0
scalar IntersectionExampleScenario.node[3].nic.mac1609_4 	RXTXLostPackets 	0
scalar IntersectionExampleScenario.node[3].nic.mac1609_4 	TotalLostPackets 	0
scalar IntersectionExampleScenario.node[3].nic.mac1609_4 	DroppedPacketsInMac 	0
scalar IntersectionExampleScenario.node[3].nic.mac1609_4 	TooLittleTime 	0
scalar IntersectionExampleScenario.node[3].nic.mac1609_4 	TimesIntoBackoff 	0
scalar IntersectionExampleScenario.node[3].nic.mac1609_4 	SlotsBackoff 	0
scalar IntersectionExampleScenario.node[3].nic.mac1609_4 	NumInternalContention 	0
scalar IntersectionExampleScenario.node[3].nic.mac1609_4 	totalBusyTime 	0
scalar IntersectionExampleScenario.node[3].veinsmobility 	startTime 	8.5
scalar IntersectionExampleScenario.node[3].veinsmobility 	totalTime 	41.75
scalar IntersectionExampleScenario.node[3].veinsmobility 	stopTime 	50.5
scalar IntersectionExampleScenario.node[3].veinsmobility 	minSpeed 	0
scalar IntersectionExampleScenario.node[3].veinsmobility 	maxSpeed 	16.625
scalar IntersectionExampleScenario.node[3].veinsmobility 	totalDistance 	551.36893463135
scalar IntersectionExampleScenario.node[3].veinsmobility 	totalCO2Emission 	143.79593657518
scalar IntersectionExampleScenario.node[4].appl 	VehicleRemoved 	0
scalar IntersectionExampleScenario.node[4].appl 	ArrivedAtDest 	1
scalar IntersectionExampleScenario.node[4].appl 	IntersectionEnterTime 	12
scalar IntersectionExampleScenario.node[4].appl 	IntersectionExitTime 	35.332148628309
scalar IntersectionExampleScenario.node[4].appl 	NumberOfCollisions 	0
scalar IntersectionExampleScenario.node[4].nic.phy80211p 	busyTime 	0
scalar IntersectionExampleScenario.node[4].nic.mac1609_4 	ReceivedUnicastPackets 	0
scalar IntersectionExampleScenario.node[4].nic.mac1609_4 	ReceivedBroadcasts 	0
scalar IntersectionExampleScenario.node[4].nic.mac1609_4 	SentPackets 	0
scalar IntersectionExampleScenario.node[4].nic.mac1609_4 	SNIRLostPackets 	0
scalar IntersectionExampleScenario.node[4].nic.mac1609_4 	RXTXLostPackets 	0
scalar IntersectionExampleScenario.node[4].nic.mac1609_4 	TotalLostPackets 	0
scalar IntersectionExampleScenario.node[4].nic.mac1609_4 	DroppedPacketsInMac 	0
scalar IntersectionExampleScenario.node[4].nic.mac1609_4 	TooLittleTime 	0
scalar IntersectionExampleScenario.node[4].nic.mac1609_4 	TimesIntoBackoff 	0
scalar IntersectionExampleScenario.node[4].nic.mac1609_4 	SlotsBackoff 	0
scalar IntersectionExampleScenario.node[4].nic.mac1609_4 	NumInternalContention 	0
scalar IntersectionExampleScenario.node[4].nic.mac1609_4 	totalBusyTime 	0
scalar IntersectionExampleScenario.node[4].veinsmobility 	startTime 	12
scalar IntersectionExampleScenario.node[4].veinsmobility 	totalTime 	39.25
scalar IntersectionExampleScenario.node[4].veinsmobility 	stopTime 	51.5
scalar IntersectionExampleScenario.node[4].veinsmobility 	minSpeed 	5.6500000953674
scalar IntersectionExampleScenario.node[4].veinsmobility 	maxSpeed 	16
scalar IntersectionExampleScenario.node[4].veinsmobility 	totalDistance 	549.8919962202
scalar IntersectionExampleScenario.node[4].veinsmobility 	totalCO2Emission 	126.67429257077
scalar IntersectionExampleScenario.node[7].appl 	VehicleRemoved 	0
scalar IntersectionExampleScenario.node[7].appl 	ArrivedAtDest 	1
scalar IntersectionExampleScenario.node[7].appl 	IntersectionEnterTime 	17
scalar IntersectionExampleScenario.node[7].appl 	IntersectionExitTime 	40.536741996271
scalar IntersectionExampleScenario.node[7].appl 	NumberOfCollisions 	0
scalar IntersectionExampleScenario.node[7].nic.phy80211p 	busyTime 	0
scalar IntersectionExampleScenario.node[7].nic.mac1609_4 	ReceivedUnicastPackets 	0
scalar IntersectionExampleScenario.node[7].nic.mac1609_4 	ReceivedBroadcasts 	0
scalar IntersectionExampleScenario.node[7].nic.mac1609_4 	SentPackets 	0
scalar IntersectionExampleScenario.node[7].nic.mac1609_4 	SNIRLostPackets 	0
scalar IntersectionExampleScenario.node[7].nic.mac1609_4 	RXTXLostPackets 	0
scalar IntersectionExampleScenario.node[7].nic.mac1609_4 	TotalLostPackets 	0
scalar IntersectionExampleScenario.node[7].nic.mac1609_4 	DroppedPacketsInMac 	0
scalar IntersectionExampleScenario.node[7].nic.mac1609_4 	TooLittleTime 	0
scalar IntersectionExampleScenario.node[7].nic.mac1609_4 	TimesIntoBackoff 	0
scalar IntersectionExampleScenario.node[7].nic.mac1609_4 	SlotsBackoff 	0
scalar IntersectionExampleScenario.node[7].nic.mac1609_4 	NumInternalContention 	0
scalar IntersectionExampleScenario.node[7].nic.mac1609_4 	totalBusyTime 	0
scalar IntersectionExampleScenario.node[7].veinsmobility 	startTime 	17
scalar IntersectionExampleScenario.node[7].veinsmobility 	totalTime 	40.25
scalar IntersectionExampleScenario.node[7].veinsmobility 	stopTime 	57.5
scalar IntersectionExampleScenario.node[7].veinsmobility 	minSpeed 	5.6500000953674
scalar IntersectionExampleScenario.node[7].veinsmobility 	maxSpeed 	15.64999961853
scalar IntersectionExampleScenario.node[7].veinsmobility 	totalDistance 	543.22262812937
scalar IntersectionExampleScenario.node[7].veinsmobility 	totalCO2Emission 	125.59157104988
scalar IntersectionExampleScenario.node[8].appl 	VehicleRemoved 	0
scalar IntersectionExampleScenario.node[8].appl 	ArrivedAtDest 	1
scalar IntersectionExampleScenario.node[8].appl 	IntersectionEnterTime 	18.25
scalar IntersectionExampleScenario.node[8].appl 	IntersectionExitTime 	42.773959675047
scalar IntersectionExampleScenario.node[8].appl 	NumberOfCollisions 	0
scalar IntersectionExampleScenario.node[8].nic.phy80211p 	busyTime 	0
scalar IntersectionExampleScenario.node[8].nic.mac1609_4 	ReceivedUnicastPackets 	0
scalar IntersectionExampleScenario.node[8].nic.mac1609_4 	ReceivedBroadcasts 	0
scalar IntersectionExampleScenario.node[8].nic.mac1609_4 	SentPackets 	0
scalar IntersectionExampleScenario.node[8].nic.mac1609_4 	SNIRLostPackets 	0
scalar IntersectionExampleScenario.node[8].nic.mac1609_4 	RXTXLostPackets 	0
scalar IntersectionExampleScenario.node[8].nic.mac1609_4 	TotalLostPackets 	0
scalar IntersectionExampleScenario.node[8].nic.mac1609_4 	DroppedPacketsInMac 	0
scalar IntersectionExampleScenario.node[8].nic.mac1609_4 	TooLittleTime 	0
scalar IntersectionExampleScenario.node[8].nic.mac1609_4 	TimesIntoBackoff 	0
scalar IntersectionExampleScenario.node[8].nic.mac1609_4 	SlotsBackoff 	0
scalar IntersectionExampleScenario.node[8].nic.mac1609_4 	NumInternalContention 	0
scalar IntersectionExampleScenario.node[8].nic.mac1609_4 	totalBusyTime 	0
scalar IntersectionExampleScenario.node[8].veinsmobility 	startTime 	18.25
scalar IntersectionExampleScenario.node[8].veinsmobility 	totalTime 	40
scalar IntersectionExampleScenario.node[8].veinsmobility 	stopTime 	58.5
scalar IntersectionExampleScenario.node[8].veinsmobility 	minSpeed 	5.6500000953674
scalar IntersectionExampleScenario.node[8].veinsmobility 	maxSpeed 	16.125
scalar IntersectionExampleScenario.node[8].veinsmobility 	totalDistance 	572.48654174805
scalar IntersectionExampleScenario.node[8].veinsmobility 	totalCO2Emission 	133.04398439928
scalar IntersectionExampleScenario.node[1].appl 	VehicleRemoved 	0
scalar IntersectionExampleScenario.node[1].appl 	ArrivedAtDest 	1
scalar IntersectionExampleScenario.node[1].appl 	IntersectionEnterTime 	7.75
scalar IntersectionExampleScenario.node[1].appl 	IntersectionExitTime 	45.623486931116
scalar IntersectionExampleScenario.node[1].appl 	NumberOfCollisions 	0
scalar IntersectionExampleScenario.node[1].nic.phy80211p 	busyTime 	0
scalar IntersectionExampleScenario.node[1].nic.mac1609_4 	ReceivedUnicastPackets 	0
scalar IntersectionExampleScenario.node[1].nic.mac1609_4 	ReceivedBroadcasts 	0
scalar IntersectionExampleScenario.node[1].nic.mac1609_4 	SentPackets 	0
scalar IntersectionExampleScenario.node[1].nic.mac1609_4 	SNIRLostPackets 	0
scalar IntersectionExampleScenario.node[1].nic.mac1609_4 	RXTXLostPackets 	0
scalar IntersectionExampleScenario.node[1].nic.mac1609_4 	TotalLostPackets 	0
scalar IntersectionExampleScenario.node[1].nic.mac1609_4 	DroppedPacketsInMac 	0
scalar IntersectionExampleScenario.node[1].nic.mac1609_4 	TooLittleTime 	0
scalar IntersectionExampleScenario.node[1].nic.mac1609_4 	TimesIntoBackoff 	0
scalar IntersectionExampleScenario.node[1].nic.mac1609_4 	SlotsBackoff 	0
scalar IntersectionExampleScenario.node[1].nic.mac1609_4 	NumInternalContention 	0
scalar IntersectionExampleScenario.node[1].nic.mac1609_4 	totalBusyTime 	0
scalar IntersectionExampleScenario.node[1].veinsmobility 	startTime 	7.75
scalar IntersectionExampleScenario.node[1].veinsmobility 	totalTime 	53.5
scalar IntersectionExampleScenario.node[1].veinsmobility 	stopTime 	61.5
scalar IntersectionExampleScenario.node[1].veinsmobility 	minSpeed 	0
scalar IntersectionExampleScenario.node[1].veinsmobility 	maxSpeed 	16.89999961853
scalar IntersectionExampleScenario.node[1].veinsmobility 	totalDistance 	545.17509056753
scalar IntersectionExampleScenario.node[1].veinsmobility 	totalCO2Emission 	156.9924306526
scalar IntersectionExampleScenario.node[6].appl 	VehicleRemoved 	0
scalar IntersectionExampleScenario.node[6].appl 	ArrivedAtDest 	1
scalar IntersectionExampleScenario.node[6].appl 	IntersectionEnterTime 	15.25
scalar IntersectionExampleScenario.node[6].appl 	IntersectionExitTime 	48.333325043641
scalar IntersectionExampleScenario.node[6].appl 	NumberOfCollisions 	0
scalar IntersectionExampleScenario.node[6].nic.phy80211p 	busyTime 	0
scalar IntersectionExampleScenario.node[6].nic.mac1609_4 	ReceivedUnicastPackets 	0
scalar IntersectionExampleScenario.node[6].nic.mac1609_4 	ReceivedBroadcasts 	0
scalar IntersectionExampleScenario.node[6].nic.mac1609_4 	SentPackets 	0
scalar IntersectionExampleScenario.node[6].nic.mac1609_4 	SNIRLostPackets 	0
scalar IntersectionExampleScenario.node[6].nic.mac1609_4 	RXTXLostPackets 	0
scalar IntersectionExampleScenario.node[6].nic.mac1609_4 	TotalLostPackets 	0
scalar IntersectionExampleScenario.node[6].nic.mac1609_4 	DroppedPacketsInMac 	0
scalar IntersectionExampleScenario.node[6].nic.mac1609_4 	TooLittleTime 	0
scalar IntersectionExampleScenario.node[6].nic.mac1609_4 	TimesIntoBackoff 	0
scalar IntersectionExampleScenario.node[6].nic.mac1609_4 	SlotsBackoff 	0
scalar IntersectionExampleScenario.node[6].nic.mac1609_4 	NumInternalContention 	0
scalar IntersectionExampleScenario.node[6].nic.mac1609_4 	totalBusyTime 	0
scalar IntersectionExampleScenario.node[6].veinsmobility 	startTime 	15.25
scalar IntersectionExampleScenario.node[6].veinsmobility 	totalTime 	49.5
scalar IntersectionExampleScenario.node[6].veinsmobility 	stopTime 	65
scalar IntersectionExampleScenario.node[6].veinsmobility 	minSpeed 	1.6024661064148
scalar IntersectionExampleScenario.node[6].veinsmobility 	maxSpeed 	15.875
scalar IntersectionExampleScenario.node[6].veinsmobility 	totalDistance 	545.44447224134
scalar IntersectionExampleScenario.node[6].veinsmobility 	totalCO2Emission 	139.75388073026
scalar IntersectionExampleScenario.node[5].appl 	VehicleRemoved 	0
scalar IntersectionExampleScenario.node[5].appl 	ArrivedAtDest 	1
scalar IntersectionExampleScenario.node[5].appl 	IntersectionEnterTime 	13.5
scalar IntersectionExampleScenario.node[5].appl 	IntersectionExitTime 	55.601755992015
scalar IntersectionExampleScenario.node[5].appl 	NumberOfCollisions 	0
scalar IntersectionExampleScenario.node[5].nic.phy80211p 	busyTime 	0
scalar IntersectionExampleScenario.node[5].nic.mac1609_4 	ReceivedUnicastPackets 	0
scalar IntersectionExampleScenario.node[5].nic.mac1609_4 	ReceivedBroadcasts 	0
scalar IntersectionExampleScenario.node[5].nic.mac1609_4 	SentPackets 	0
scalar IntersectionExampleScenario.node[5].nic.mac1609_4 	SNIRLostPackets 	0
scalar IntersectionExampleScenario.node[5].nic.mac1609_4 	RXTXLostPackets 	0
scalar IntersectionExampleScenario.node[5].nic.mac1609_4 	TotalLostPackets 	0
scalar IntersectionExampleScenario.node[5].nic.mac1609_4 	DroppedPacketsInMac 	0
scalar IntersectionExampleScenario.node[5].nic.mac1609_4 	TooLittleTime 	0
scalar IntersectionExampleScenario.node[5].nic.mac1609_4 	TimesIntoBackoff 	0
scalar IntersectionExampleScenario.node[5].nic.mac1609_4 	SlotsBackoff 	0
scalar IntersectionExampleScenario.node[5].nic.mac1609_4 	NumInternalContention 	0
scalar IntersectionExampleScenario.node[5].nic.mac1609_4 	totalBusyTime 	0
scalar IntersectionExampleScenario.node[5].veinsmobility 	startTime 	13.5
scalar IntersectionExampleScenario.node[5].veinsmobility 	totalTime 	59
scalar IntersectionExampleScenario.node[5].veinsmobility 	stopTime 	72.75
scalar IntersectionExampleScenario.node[5].veinsmobility 	minSpeed 	0
scalar IntersectionExampleScenario.node[5].veinsmobility 	maxSpeed 	15.25
scalar IntersectionExampleScenario.node[5].veinsmobility 	totalDistance 	543.92479611785
scalar IntersectionExampleScenario.node[5].veinsmobility 	totalCO2Emission 	147.81585192622
scalar IntersectionExampleScenario.node[11].appl 	VehicleRemoved 	0
scalar IntersectionExampleScenario.node[11].appl 	ArrivedAtDest 	1
scalar IntersectionExampleScenario.node[11].appl 	IntersectionEnterTime 	28
scalar IntersectionExampleScenario.node[11].appl 	IntersectionExitTime 	58.069382049347
scalar IntersectionExampleScenario.node[11].appl 	NumberOfCollisions 	0
scalar IntersectionExampleScenario.node[11].nic.phy80211p 	busyTime 	0
scalar IntersectionExampleScenario.node[11].nic.mac1609_4 	ReceivedUnicastPackets 	0
scalar IntersectionExampleScenario.node[11].nic.mac1609_4 	ReceivedBroadcasts 	0
scalar IntersectionExampleScenario.node[11].nic.mac1609_4 	SentPackets 	0
scalar IntersectionExampleScenario.node[11].nic.mac1609_4 	SNIRLostPackets 	0
scalar IntersectionExampleScenario.node[11].nic.mac1609_4 	RXTXLostPackets 	0
scalar IntersectionExampleScenario.node[11].nic.mac1609_4 	TotalLostPackets 	0
scalar IntersectionExampleScenario.node[11].nic.mac1609_4 	DroppedPacketsInMac 	0
scalar IntersectionExampleScenario.node[11].nic.mac1609_4 	TooLittleTime 	0
scalar IntersectionExampleScenario.node[11].nic.mac1609_4 	TimesIntoBackoff 	0
scalar IntersectionExampleScenario.node[11].nic.mac1609_4 	SlotsBackoff 	0
scalar IntersectionExampleScenario.node[11].nic.mac1609_4 	NumInternalContention 	0
scalar IntersectionExampleScenario.node[11].nic.mac1609_4 	totalBusyTime 	0
scalar IntersectionExampleScenario.node[11].veinsmobility 	startTime 	28
scalar IntersectionExampleScenario.node[11].veinsmobility 	totalTime 	46.25
scalar IntersectionExampleScenario.node[11].veinsmobility 	stopTime 	74.5
scalar IntersectionExampleScenario.node[11].veinsmobility 	minSpeed 	2.6849048137665
scalar IntersectionExampleScenario.node[11].veinsmobility 	maxSpeed 	16.27499961853
scalar IntersectionExampleScenario.node[11].veinsmobility 	totalDistance 	543.33877104517
scalar IntersectionExampleScenario.node[11].veinsmobility 	totalCO2Emission 	137.65677900396
scalar IntersectionExampleScenario.node[9].appl 	VehicleRemoved 	0
scalar IntersectionExampleScenario.node[9].appl 	ArrivedAtDest 	1
scalar IntersectionExampleScenario.node[9].appl 	IntersectionEnterTime 	22.25
scalar IntersectionExampleScenario.node[9].appl 	IntersectionExitTime 	66.321565988997
scalar IntersectionExampleScenario.node[9].appl 	NumberOfCollisions 	0
scalar IntersectionExampleScenario.node[9].nic.phy80211p 	busyTime 	0
scalar IntersectionExampleScenario.node[9].nic.mac1609_4 	ReceivedUnicastPackets 	0
scalar IntersectionExampleScenario.node[9].nic.mac1609_4 	ReceivedBroadcasts 	0
scalar IntersectionExampleScenario.node[9].nic.mac1609_4 	SentPackets 	0
scalar IntersectionExampleScenario.node[9].nic.mac1609_4 	SNIRLostPackets 	0
scalar IntersectionExampleScenario.node[9].nic.mac1609_4 	RXTXLostPackets 	0
scalar IntersectionExampleScenario.node[9].nic.mac1609_4 	TotalLostPackets 	0
scalar IntersectionExampleScenario.node[9].nic.mac1609_4 	DroppedPacketsInMac 	0
scalar IntersectionExampleScenario.node[9].nic.mac1609_4 	TooLittleTime 	0
scalar IntersectionExampleScenario.node[9].nic.mac1609_4 	TimesIntoBackoff 	0
scalar IntersectionExampleScenario.node[9].nic.mac1609_4 	SlotsBackoff 	0
scalar IntersectionExampleScenario.node[9].nic.mac1609_4 	NumInternalContention 	0
scalar IntersectionExampleScenario.node[9].nic.mac1609_4 	totalBusyTime 	0
scalar IntersectionExampleScenario.node[9].veinsmobility 	startTime 	22.25
scalar IntersectionExampleScenario.node[9].veinsmobility 	totalTime 	61
scalar IntersectionExampleScenario.node[9].veinsmobility 	stopTime 	83.5
scalar IntersectionExampleScenario.node[9].veinsmobility 	minSpeed 	0
scalar IntersectionExampleScenario.node[9].veinsmobility 	maxSpeed 	14.75
scalar IntersectionExampleScenario.node[9].veinsmobility 	totalDistance 	570.33375549316
scalar IntersectionExampleScenario.node[9].veinsmobility 	totalCO2Emission 	149.49228398532
scalar IntersectionExampleScenario.node[10].appl 	VehicleRemoved 	0
scalar IntersectionExampleScenario.node[10].appl 	ArrivedAtDest 	1
scalar IntersectionExampleScenario.node[10].appl 	IntersectionEnterTime 	27.75
scalar IntersectionExampleScenario.node[10].appl 	IntersectionExitTime 	67.058775270503
scalar IntersectionExampleScenario.node[10].appl 	NumberOfCollisions 	0
scalar IntersectionExampleScenario.node[10].nic.phy80211p 	busyTime 	0
scalar IntersectionExampleScenario.node[10].nic.mac1609_4 	ReceivedUnicastPackets 	0
scalar IntersectionExampleScenario.node[10].nic.mac1609_4 	ReceivedBroadcasts 	0
scalar IntersectionExampleScenario.node[10].nic.mac1609_4 	SentPackets 	0
scalar IntersectionExampleScenario.node[10].nic.mac1609_4 	SNIRLostPackets 	0
scalar IntersectionExampleScenario.node[10].nic.mac1609_4 	RXTXLostPackets 	0
scalar IntersectionExampleScenario.node[10].nic.mac1609_4 	TotalLostPackets 	0
scalar IntersectionExampleScenario.node[10].nic.mac1609_4 	DroppedPacketsInMac 	0
scalar IntersectionExampleScenario.node[10].nic.mac1609_4 	TooLittleTime 	0
scalar IntersectionExampleScenario.node[10].nic.mac1609_4 	TimesIntoBackoff 	0
scalar IntersectionExampleScenario.node[10].nic.mac1609_4 	SlotsBackoff 	0
scalar IntersectionExampleScenario.node[10].nic.mac1609_4 	NumInternalContention 	0
scalar IntersectionExampleScenario.node[10].nic.mac1609_4 	totalBusyTime 	0
scalar IntersectionExampleScenario.node[10].veinsmobility 	startTime 	27.75
scalar IntersectionExampleScenario.node[10].veinsmobility 	totalTime 	55.5
scalar IntersectionExampleScenario.node[10].veinsmobility 	stopTime 	83.5
scalar IntersectionExampleScenario.node[10].veinsmobility 	minSpeed 	0
scalar IntersectionExampleScenario.node[10].veinsmobility 	maxSpeed 	15.89949131012
scalar IntersectionExampleScenario.node[10].veinsmobility 	totalDistance 	549.13542396278
scalar IntersectionExampleScenario.node[10].veinsmobility 	totalCO2Emission 	152.89337669282
scalar IntersectionExampleScenario.node[12].appl 	VehicleRemoved 	0
scalar IntersectionExampleScenario.node[12].appl 	ArrivedAtDest 	1
scalar IntersectionExampleScenario.node[12].appl 	IntersectionEnterTime 	29.5
scalar IntersectionExampleScenario.node[12].appl 	IntersectionExitTime 	69.808720511995
scalar IntersectionExampleScenario.node[12].appl 	NumberOfCollisions 	0
scalar IntersectionExampleScenario.node[12].nic.phy80211p 	busyTime 	0
scalar IntersectionExampleScenario.node[12].nic.mac1609_4 	ReceivedUnicastPackets 	0
scalar IntersectionExampleScenario.node[12].nic.mac1609_4 	ReceivedBroadcasts 	0
scalar IntersectionExampleScenario.node[12].nic.mac1609_4 	SentPackets 	0
scalar IntersectionExampleScenario.node[12].nic.mac1609_4 	SNIRLostPackets 	0
scalar IntersectionExampleScenario.node[12].nic.mac1609_4 	RXTXLostPackets 	0
scalar IntersectionExampleScenario.node[12].nic.mac1609_4 	TotalLostPackets 	0
scalar IntersectionExampleScenario.node[12].nic.mac1609_4 	DroppedPacketsInMac 	0
scalar IntersectionExampleScenario.node[12].nic.mac1609_4 	TooLittleTime 	0
scalar IntersectionExampleScenario.node[12].nic.mac1609_4 	TimesIntoBackoff 	0
scalar IntersectionExampleScenario.node[12].nic.mac1609_4 	SlotsBackoff 	0
scalar IntersectionExampleScenario.node[12].nic.mac1609_4 	NumInternalContention 	0
scalar IntersectionExampleScenario.node[12].nic.mac1609_4 	totalBusyTime 	0
scalar IntersectionExampleScenario.node[12].veinsmobility 	startTime 	29.5
scalar IntersectionExampleScenario.node[12].veinsmobility 	totalTime 	56
scalar IntersectionExampleScenario.node[12].veinsmobility 	stopTime 	85.75
scalar IntersectionExampleScenario.node[12].veinsmobility 	minSpeed 	0
scalar IntersectionExampleScenario.node[12].veinsmobility 	maxSpeed 	15.623990058899
scalar IntersectionExampleScenario.node[12].veinsmobility 	totalDistance 	573.7693939209
scalar IntersectionExampleScenario.node[12].veinsmobility 	totalCO2Emission 	152.2010374141
scalar IntersectionExampleScenario.node[13].appl 	VehicleRemoved 	0
scalar IntersectionExampleScenario.node[13].appl 	ArrivedAtDest 	1
scalar IntersectionExampleScenario.node[13].appl 	IntersectionEnterTime 	45.75
scalar IntersectionExampleScenario.node[13].appl 	IntersectionExitTime 	76.256930153497
scalar IntersectionExampleScenario.node[13].appl 	NumberOfCollisions 	0
scalar IntersectionExampleScenario.node[13].nic.phy80211p 	busyTime 	0
scalar IntersectionExampleScenario.node[13].nic.mac1609_4 	ReceivedUnicastPackets 	0
scalar IntersectionExampleScenario.node[13].nic.mac1609_4 	ReceivedBroadcasts 	0
scalar IntersectionExampleScenario.node[13].nic.mac1609_4 	SentPackets 	0
scalar IntersectionExampleScenario.node[13].nic.mac1609_4 	SNIRLostPackets 	0
scalar IntersectionExampleScenario.node[13].nic.mac1609_4 	RXTXLostPackets 	0
scalar IntersectionExampleScenario.node[13].nic.mac1609_4 	TotalLostPackets 	0
scalar IntersectionExampleScenario.node[13].nic.mac1609_4 	DroppedPacketsInMac 	0
scalar IntersectionExampleScenario.node[13].nic.mac1609_4 	TooLittleTime 	0
scalar IntersectionExampleScenario.node[13].nic.mac1609_4 	TimesIntoBackoff 	0
scalar IntersectionExampleScenario.node[13].nic.mac1609_4 	SlotsBackoff 	0
scalar IntersectionExampleScenario.node[13].nic.mac1609_4 	NumInternalContention 	0
scalar IntersectionExampleScenario.node[13].nic.mac1609_4 	totalBusyTime 	0
scalar IntersectionExampleScenario.node[13].veinsmobility 	startTime 	45.75
scalar IntersectionExampleScenario.node[13].veinsmobility 	totalTime 	46
scalar IntersectionExampleScenario.node[13].veinsmobility 	stopTime 	92
scalar IntersectionExampleScenario.node[13].veinsmobility 	minSpeed 	0
scalar IntersectionExampleScenario.node[13].veinsmobility 	maxSpeed 	16.27499961853
scalar IntersectionExampleScenario.node[13].veinsmobility 	totalDistance 	551.43729400635
scalar IntersectionExampleScenario.node[13].veinsmobility 	totalCO2Emission 	142.65689344961
scalar IntersectionExampleScenario.node[14].appl 	VehicleRemoved 	0
scalar IntersectionExampleScenario.node[14].appl 	ArrivedAtDest 	1
scalar IntersectionExampleScenario.node[14].appl 	IntersectionEnterTime 	47.25
scalar IntersectionExampleScenario.node[14].appl 	IntersectionExitTime 	78.560090557759
scalar IntersectionExampleScenario.node[14].appl 	NumberOfCollisions 	0
scalar IntersectionExampleScenario.node[14].nic.phy80211p 	busyTime 	0
scalar IntersectionExampleScenario.node[14].nic.mac1609_4 	ReceivedUnicastPackets 	0
scalar IntersectionExampleScenario.node[14].nic.mac1609_4 	ReceivedBroadcasts 	0
scalar IntersectionExampleScenario.node[14].nic.mac1609_4 	SentPackets 	0
scalar IntersectionExampleScenario.node[14].nic.mac1609_4 	SNIRLostPackets 	0
scalar IntersectionExampleScenario.node[14].nic.mac1609_4 	RXTXLostPackets 	0
scalar IntersectionExampleScenario.node[14].nic.mac1609_4 	TotalLostPackets 	0
scalar IntersectionExampleScenario.node[14].nic.mac1609_4 	DroppedPacketsInMac 	0
scalar IntersectionExampleScenario.node[14].nic.mac1609_4 	TooLittleTime 	0
scalar IntersectionExampleScenario.node[14].nic.mac1609_4 	TimesIntoBackoff 	0
scalar IntersectionExampleScenario.node[14].nic.mac1609_4 	SlotsBackoff 	0
scalar IntersectionExampleScenario.node[14].nic.mac1609_4 	NumInternalContention 	0
scalar IntersectionExampleScenario.node[14].nic.mac1609_4 	totalBusyTime 	0
scalar IntersectionExampleScenario.node[14].veinsmobility 	startTime 	47.25
scalar IntersectionExampleScenario.node[14].veinsmobility 	totalTime 	47
scalar IntersectionExampleScenario.node[14].veinsmobility 	stopTime 	94.5
scalar IntersectionExampleScenario.node[14].veinsmobility 	minSpeed 	0
scalar IntersectionExampleScenario.node[14].veinsmobility 	maxSpeed 	15.64999961853
scalar IntersectionExampleScenario.node[14].veinsmobility 	totalDistance 	571.46127319336
scalar IntersectionExampleScenario.node[14].veinsmobility 	totalCO2Emission 	140.91435182735
scalar IntersectionExampleScenario.node[15].appl 	VehicleRemoved 	0
scalar IntersectionExampleScenario.node[15].appl 	ArrivedAtDest 	1
scalar IntersectionExampleScenario.node[15].appl 	IntersectionEnterTime 	52.5
scalar IntersectionExampleScenario.node[15].appl 	IntersectionExitTime 	86.531382448098
scalar IntersectionExampleScenario.node[15].appl 	NumberOfCollisions 	0
scalar IntersectionExampleScenario.node[15].nic.phy80211p 	busyTime 	0
scalar IntersectionExampleScenario.node[15].nic.mac1609_4 	ReceivedUnicastPackets 	0
scalar IntersectionExampleScenario.node[15].nic.mac1609_4 	ReceivedBroadcasts 	0
scalar IntersectionExampleScenario.node[15].nic.mac1609_4 	SentPackets 	0
scalar IntersectionExampleScenario.node[15].nic.mac1609_4 	SNIRLostPackets 	0
scalar IntersectionExampleScenario.node[15].nic.mac1609_4 	RXTXLostPackets 	0
scalar IntersectionExampleScenario.node[15].nic.mac1609_4 	TotalLostPackets 	0
scalar IntersectionExampleScenario.node[15].nic.mac1609_4 	DroppedPacketsInMac 	0
scalar IntersectionExampleScenario.node[15].nic.mac1609_4 	TooLittleTime 	0
scalar IntersectionExampleScenario.node[15].nic.mac1609_4 	TimesIntoBackoff 	0
scalar IntersectionExampleScenario.node[15].nic.mac1609_4 	SlotsBackoff 	0
scalar IntersectionExampleScenario.node[15].nic.mac1609_4 	NumInternalContention 	0
scalar IntersectionExampleScenario.node[15].nic.mac1609_4 	totalBusyTime 	0
scalar IntersectionExampleScenario.node[15].veinsmobility 	startTime 	52.5
scalar IntersectionExampleScenario.node[15].veinsmobility 	totalTime 	50.75
scalar IntersectionExampleScenario.node[15].veinsmobility 	stopTime 	103.5
scalar IntersectionExampleScenario.node[15].veinsmobility 	minSpeed 	0
scalar IntersectionExampleScenario.node[15].veinsmobility 	maxSpeed 	15.875
scalar IntersectionExampleScenario.node[15].veinsmobility 	totalDistance 	546.147513403
scalar IntersectionExampleScenario.node[15].veinsmobility 	totalCO2Emission 	143.66343789864
scalar IntersectionExampleScenario.node[16].appl 	VehicleRemoved 	0
scalar IntersectionExampleScenario.node[16].appl 	ArrivedAtDest 	1
scalar IntersectionExampleScenario.node[16].appl 	IntersectionEnterTime 	61.75
scalar IntersectionExampleScenario.node[16].appl 	IntersectionExitTime 	97.274489998701
scalar IntersectionExampleScenario.node[16].appl 	NumberOfCollisions 	0
scalar IntersectionExampleScenario.node[16].nic.phy80211p 	busyTime 	0
scalar IntersectionExampleScenario.node[16].nic.mac1609_4 	ReceivedUnicastPackets 	0
scalar IntersectionExampleScenario.node[16].nic.mac1609_4 	ReceivedBroadcasts 	0
scalar IntersectionExampleScenario.node[16].nic.mac1609_4 	SentPackets 	0
scalar IntersectionExampleScenario.node[16].nic.mac1609_4 	SNIRLostPackets 	0
scalar IntersectionExampleScenario.node[16].nic.mac1609_4 	RXTXLostPackets 	0
scalar IntersectionExampleScenario.node[16].nic.mac1609_4 	TotalLostPackets 	0
scalar IntersectionExampleScenario.node[16].nic.mac1609_4 	DroppedPacketsInMac 	0
scalar IntersectionExampleScenario.node[16].nic.mac1609_4 	TooLittleTime 	0
scalar IntersectionExampleScenario.node[16].nic.mac1609_4 	TimesIntoBackoff 	0
scalar IntersectionExampleScenario.node[16].nic.mac1609_4 	SlotsBackoff 	0
scalar IntersectionExampleScenario.node[16].nic.mac1609_4 	NumInternalContention 	0
scalar IntersectionExampleScenario.node[16].nic.mac1609_4 	totalBusyTime 	0
scalar IntersectionExampleScenario.node[16].veinsmobility 	startTime 	61.75
scalar IntersectionExampleScenario.node[16].veinsmobility 	totalTime 	51.25
scalar IntersectionExampleScenario.node[16].veinsmobility 	stopTime 	113.25
scalar IntersectionExampleScenario.node[16].veinsmobility 	minSpeed 	0
scalar IntersectionExampleScenario.node[16].veinsmobility 	maxSpeed 	16.27499961853
scalar IntersectionExampleScenario.node[16].veinsmobility 	totalDistance 	551.4950953876
scalar IntersectionExampleScenario.node[16].veinsmobility 	totalCO2Emission 	147.74848038682
scalar IntersectionExampleScenario.node[22].appl 	VehicleRemoved 	0
scalar IntersectionExampleScenario.node[22].appl 	ArrivedAtDest 	1
scalar IntersectionExampleScenario.node[22].appl 	IntersectionEnterTime 	74.5
scalar IntersectionExampleScenario.node[22].appl 	IntersectionExitTime 	97.547148024518
scalar IntersectionExampleScenario.node[22].appl 	NumberOfCollisions 	0
scalar IntersectionExampleScenario.node[22].nic.phy80211p 	busyTime 	0
scalar IntersectionExampleScenario.node[22].nic.mac1609_4 	ReceivedUnicastPackets 	0
scalar IntersectionExampleScenario.node[22].nic.mac1609_4 	ReceivedBroadcasts 	0
scalar IntersectionExampleScenario.node[22].nic.mac1609_4 	SentPackets 	0
scalar IntersectionExampleScenario.node[22].nic.mac1609_4 	SNIRLostPackets 	0
scalar IntersectionExampleScenario.node[22].nic.mac1609_4 	RXTXLostPackets 	0
scalar IntersectionExampleScenario.node[22].nic.mac1609_4 	TotalLostPackets 	0
scalar IntersectionExampleScenario.node[22].nic.mac1609_4 	DroppedPacketsInMac 	0
scalar IntersectionExampleScenario.node[22].nic.mac1609_4 	TooLittleTime 	0
scalar IntersectionExampleScenario.node[22].nic.mac1609_4 	TimesIntoBackoff 	0
scalar IntersectionExampleScenario.node[22].nic.mac1609_4 	SlotsBackoff 	0
scalar IntersectionExampleScenario.node[22].nic.mac1609_4 	NumInternalContention 	0
scalar IntersectionExampleScenario.node[22].nic.mac1609_4 	totalBusyTime 	0
scalar IntersectionExampleScenario.node[22].veinsmobility 	startTime 	74.5
scalar IntersectionExampleScenario.node[22].veinsmobility 	totalTime 	39
scalar IntersectionExampleScenario.node[22].veinsmobility 	stopTime 	113.75
scalar IntersectionExampleScenario.node[22].veinsmobility 	minSpeed 	5.6500000953674
scalar IntersectionExampleScenario.node[22].veinsmobility 	maxSpeed 	16.27499961853
scalar IntersectionExampleScenario.node[22].veinsmobility 	totalDistance 	551.22755633304
scalar IntersectionExampleScenario.node[22].veinsmobility 	totalCO2Emission 	128.02317745728
scalar IntersectionExampleScenario.node[17].appl 	VehicleRemoved 	0
scalar IntersectionExampleScenario.node[17].appl 	ArrivedAtDest 	1
scalar IntersectionExampleScenario.node[17].appl 	IntersectionEnterTime 	66.25
scalar IntersectionExampleScenario.node[17].appl 	IntersectionExitTime 	98.307749176834
scalar IntersectionExampleScenario.node[17].appl 	NumberOfCollisions 	0
scalar IntersectionExampleScenario.node[17].nic.phy80211p 	busyTime 	0
scalar IntersectionExampleScenario.node[17].nic.mac1609_4 	ReceivedUnicastPackets 	0
scalar IntersectionExampleScenario.node[17].nic.mac1609_4 	ReceivedBroadcasts 	0
scalar IntersectionExampleScenario.node[17].nic.mac1609_4 	SentPackets 	0
scalar IntersectionExampleScenario.node[17].nic.mac1609_4 	SNIRLostPackets 	0
scalar IntersectionExampleScenario.node[17].nic.mac1609_4 	RXTXLostPackets 	0
scalar IntersectionExampleScenario.node[17].nic.mac1609_4 	TotalLostPackets 	0
scalar IntersectionExampleScenario.node[17].nic.mac1609_4 	DroppedPacketsInMac 	0
scalar IntersectionExampleScenario.node[17].nic.mac1609_4 	TooLittleTime 	0
scalar IntersectionExampleScenario.node[17].nic.mac1609_4 	TimesIntoBackoff 	0
scalar IntersectionExampleScenario.node[17].nic.mac1609_4 	SlotsBackoff 	0
scalar IntersectionExampleScenario.node[17].nic.mac1609_4 	NumInternalContention 	0
scalar IntersectionExampleScenario.node[17].nic.mac1609_4 	totalBusyTime 	0
scalar IntersectionExampleScenario.node[17].veinsmobility 	startTime 	66.25
scalar IntersectionExampleScenario.node[17].veinsmobility 	totalTime 	48
scalar IntersectionExampleScenario.node[17].veinsmobility 	stopTime 	114.5
scalar IntersectionExampleScenario.node[17].veinsmobility 	minSpeed 	0
scalar IntersectionExampleScenario.node[17].veinsmobility 	maxSpeed 	15.64999961853
scalar IntersectionExampleScenario.node[17].veinsmobility 	totalDistance 	552.02667236328
scalar IntersectionExampleScenario.node[17].veinsmobility 	totalCO2Emission 	138.26698410093
scalar IntersectionExampleScenario.node[23].appl 	VehicleRemoved 	0
scalar IntersectionExampleScenario.node[23].appl 	ArrivedAtDest 	1
scalar IntersectionExampleScenario.node[23].appl 	IntersectionEnterTime 	75.75
scalar IntersectionExampleScenario.node[23].appl 	IntersectionExitTime 	100.5245556182
scalar IntersectionExampleScenario.node[23].appl 	NumberOfCollisions 	0
scalar IntersectionExampleScenario.node[23].nic.phy80211p 	busyTime 	0
scalar IntersectionExampleScenario.node[23].nic.mac1609_4 	ReceivedUnicastPackets 	0
scalar IntersectionExampleScenario.node[23].nic.mac1609_4 	ReceivedBroadcasts 	0
scalar IntersectionExampleScenario.node[23].nic.mac1609_4 	SentPackets 	0
scalar IntersectionExampleScenario.node[23].nic.mac1609_4 	SNIRLostPackets 	0
scalar IntersectionExampleScenario.node[23].nic.mac1609_4 	RXTXLostPackets 	0
scalar IntersectionExampleScenario.node[23].nic.mac1609_4 	TotalLostPackets 	0
scalar IntersectionExampleScenario.node[23].nic.mac1609_4 	DroppedPacketsInMac 	0
scalar IntersectionExampleScenario.node[23].nic.mac1609_4 	TooLittleTime 	0
scalar IntersectionExampleScenario.node[23].nic.mac1609_4 	TimesIntoBackoff 	0
scalar IntersectionExampleScenario.node[23].nic.mac1609_4 	SlotsBackoff 	0
scalar IntersectionExampleScenario.node[23].nic.mac1609_4 	NumInternalContention 	0
scalar IntersectionExampleScenario.node[23].nic.mac1609_4 	totalBusyTime 	0
scalar IntersectionExampleScenario.node[23].veinsmobility 	startTime 	75.75
scalar IntersectionExampleScenario.node[23].veinsmobility 	totalTime 	41.25
scalar IntersectionExampleScenario.node[23].veinsmobility 	stopTime 	117.25
scalar IntersectionExampleScenario.node[23].veinsmobility 	minSpeed 	5.6500000953674
scalar IntersectionExampleScenario.node[23].veinsmobility 	maxSpeed 	14.930240631104
scalar IntersectionExampleScenario.node[23].veinsmobility 	totalDistance 	574.15293121338
scalar IntersectionExampleScenario.node[23].veinsmobility 	totalCO2Emission 	117.98677508924
scalar IntersectionExampleScenario.node[26].appl 	VehicleRemoved 	0
scalar IntersectionExampleScenario.node[26].appl 	ArrivedAtDest 	1
scalar IntersectionExampleScenario.node[26].appl 	IntersectionEnterTime 	81.25
scalar IntersectionExampleScenario.node[26].appl 	IntersectionExitTime 	105.61488910575
scalar IntersectionExampleScenario.node[26].appl 	NumberOfCollisions 	0
scalar IntersectionExampleScenario.node[26].nic.phy80211p 	busyTime 	0
scalar IntersectionExampleScenario.node[26].nic.mac1609_4 	ReceivedUnicastPackets 	0
scalar IntersectionExampleScenario.node[26].nic.mac1609_4 	ReceivedBroadcasts 	0
scalar IntersectionExampleScenario.node[26].nic.mac1609_4 	SentPackets 	0
scalar IntersectionExampleScenario.node[26].nic.mac1609_4 	SNIRLostPackets 	0
scalar IntersectionExampleScenario.node[26].nic.mac1609_4 	RXTXLostPackets 	0
scalar IntersectionExampleScenario.node[26].nic.mac1609_4 	TotalLostPackets 	0
scalar IntersectionExampleScenario.node[26].nic.mac1609_4 	DroppedPacketsInMac 	0
scalar IntersectionExampleScenario.node[26].nic.mac1609_4 	TooLittleTime 	0
scalar IntersectionExampleScenario.node[26].nic.mac1609_4 	TimesIntoBackoff 	0
scalar IntersectionExampleScenario.node[26].nic.mac1609_4 	SlotsBackoff 	0
scalar IntersectionExampleScenario.node[26].nic.mac1609_4 	NumInternalContention 	0
scalar IntersectionExampleScenario.node[26].nic.mac1609_4 	totalBusyTime 	0
scalar IntersectionExampleScenario.node[26].veinsmobility 	startTime 	81.25
scalar IntersectionExampleScenario.node[26].veinsmobility 	totalTime 	41.25
scalar IntersectionExampleScenario.node[26].veinsmobility 	stopTime 	122.75
scalar IntersectionExampleScenario.node[26].veinsmobility 	minSpeed 	5.6500000953674
scalar IntersectionExampleScenario.node[26].veinsmobility 	maxSpeed 	14.75
scalar IntersectionExampleScenario.node[26].veinsmobility 	totalDistance 	549.03308519101
scalar IntersectionExampleScenario.node[26].veinsmobility 	totalCO2Emission 	117.09073369629
scalar IntersectionExampleScenario.node[18].appl 	VehicleRemoved 	0
scalar IntersectionExampleScenario.node[18].appl 	ArrivedAtDest 	1
scalar IntersectionExampleScenario.node[18].appl 	IntersectionEnterTime 	66.75
scalar IntersectionExampleScenario.node[18].appl 	IntersectionExitTime 	107.5739779417
scalar IntersectionExampleScenario.node[18].appl 	NumberOfCollisions 	0
scalar IntersectionExampleScenario.node[18].nic.phy80211p 	busyTime 	0
scalar IntersectionExampleScenario.node[18].nic.mac1609_4 	ReceivedUnicastPackets 	0
scalar IntersectionExampleScenario.node[18].nic.mac1609_4 	ReceivedBroadcasts 	0
scalar IntersectionExampleScenario.node[18].nic.mac1609_4 	SentPackets 	0
scalar IntersectionExampleScenario.node[18].nic.mac1609_4 	SNIRLostPackets 	0
scalar IntersectionExampleScenario.node[18].nic.mac1609_4 	RXTXLostPackets 	0
scalar IntersectionExampleScenario.node[18].nic.mac1609_4 	TotalLostPackets 	0
scalar IntersectionExampleScenario.node[18].nic.mac1609_4 	DroppedPacketsInMac 	0
scalar IntersectionExampleScenario.node[18].nic.mac1609_4 	TooLittleTime 	0
scalar IntersectionExampleScenario.node[18].nic.mac1609_4 	TimesIntoBackoff 	0
scalar IntersectionExampleScenario.node[18].nic.mac1609_4 	SlotsBackoff 	0
scalar IntersectionExampleScenario.node[18].nic.mac1609_4 	NumInternalContention 	0
scalar IntersectionExampleScenario.node[18].nic.mac1609_4 	totalBusyTime 	0
scalar IntersectionExampleScenario.node[18].veinsmobility 	startTime 	66.75
scalar IntersectionExampleScenario.node[18].veinsmobility 	totalTime 	57.5
scalar IntersectionExampleScenario.node[18].veinsmobility 	stopTime 	124.5
scalar IntersectionExampleScenario.node[18].veinsmobility 	minSpeed 	0
scalar IntersectionExampleScenario.node[18].veinsmobility 	maxSpeed 	15.02499961853
scalar IntersectionExampleScenario.node[18].veinsmobility 	totalDistance 	554.34421539307
scalar IntersectionExampleScenario.node[18].veinsmobility 	totalCO2Emission 	148.52292668622
scalar IntersectionExampleScenario.node[21].appl 	VehicleRemoved 	0
scalar IntersectionExampleScenario.node[21].appl 	ArrivedAtDest 	1
scalar IntersectionExampleScenario.node[21].appl 	IntersectionEnterTime 	70.5
scalar IntersectionExampleScenario.node[21].appl 	IntersectionExitTime 	108.04736575307
scalar IntersectionExampleScenario.node[21].appl 	NumberOfCollisions 	0
scalar IntersectionExampleScenario.node[21].nic.phy80211p 	busyTime 	0
scalar IntersectionExampleScenario.node[21].nic.mac1609_4 	ReceivedUnicastPackets 	0
scalar IntersectionExampleScenario.node[21].nic.mac1609_4 	ReceivedBroadcasts 	0
scalar IntersectionExampleScenario.node[21].nic.mac1609_4 	SentPackets 	0
scalar IntersectionExampleScenario.node[21].nic.mac1609_4 	SNIRLostPackets 	0
scalar IntersectionExampleScenario.node[21].nic.mac1609_4 	RXTXLostPackets 	0
scalar IntersectionExampleScenario.node[21].nic.mac1609_4 	TotalLostPackets 	0
scalar IntersectionExampleScenario.node[21].nic.mac1609_4 	DroppedPacketsInMac 	0
scalar IntersectionExampleScenario.node[21].nic.mac1609_4 	TooLittleTime 	0
scalar IntersectionExampleScenario.node[21].nic.mac1609_4 	TimesIntoBackoff 	0
scalar IntersectionExampleScenario.node[21].nic.mac1609_4 	SlotsBackoff 	0
scalar IntersectionExampleScenario.node[21].nic.mac1609_4 	NumInternalContention 	0
scalar IntersectionExampleScenario.node[21].nic.mac1609_4 	totalBusyTime 	0
scalar IntersectionExampleScenario.node[21].veinsmobility 	startTime 	70.5
scalar IntersectionExampleScenario.node[21].veinsmobility 	totalTime 	54.5
scalar IntersectionExampleScenario.node[21].veinsmobility 	stopTime 	125.25
scalar IntersectionExampleScenario.node[21].veinsmobility 	minSpeed 	0
scalar IntersectionExampleScenario.node[21].veinsmobility 	maxSpeed 	15.25
scalar IntersectionExampleScenario.node[21].veinsmobility 	totalDistance 	530.31358627707
scalar IntersectionExampleScenario.node[21].veinsmobility 	totalCO2Emission 	142.73222624863
scalar IntersectionExampleScenario.node[19].appl 	VehicleRemoved 	0
scalar IntersectionExampleScenario.node[19].appl 	ArrivedAtDest 	1
scalar IntersectionExampleScenario.node[19].appl 	IntersectionEnterTime 	69
scalar IntersectionExampleScenario.node[19].appl 	IntersectionExitTime 	111.03037601491
scalar IntersectionExampleScenario.node[19].appl 	NumberOfCollisions 	0
scalar IntersectionExampleScenario.node[19].nic.phy80211p 	busyTime 	0
scalar IntersectionExampleScenario.node[19].nic.mac1609_4 	ReceivedUnicastPackets 	0
scalar IntersectionExampleScenario.node[19].nic.mac1609_4 	ReceivedBroadcasts 	0
scalar IntersectionExampleScenario.node[19].nic.mac1609_4 	SentPackets 	0
scalar IntersectionExampleScenario.node[19].nic.mac1609_4 	SNIRLostPackets 	0
scalar IntersectionExampleScenario.node[19].nic.mac1609_4 	RXTXLostPackets 	0
scalar IntersectionExampleScenario.node[19].nic.mac1609_4 	TotalLostPackets 	0
scalar IntersectionExampleScenario.node[19].nic.mac1609_4 	DroppedPacketsInMac 	0
scalar IntersectionExampleScenario.node[19].nic.mac1609_4 	TooLittleTime 	0
scalar IntersectionExampleScenario.node[19].nic.mac1609_4 	TimesIntoBackoff 	0
scalar IntersectionExampleScenario.node[19].nic.mac1609_4 	SlotsBackoff 	0
scalar IntersectionExampleScenario.node[19].nic.mac1609_4 	NumInternalContention 	0
scalar IntersectionExampleScenario.node[19].nic.mac1609_4 	totalBusyTime 	0
scalar IntersectionExampleScenario.node[19].veinsmobility 	startTime 	69
scalar IntersectionExampleScenario.node[19].veinsmobility 	totalTime 	58.5
scalar IntersectionExampleScenario.node[19].veinsmobility 	stopTime 	127.75
scalar IntersectionExampleScenario.node[19].veinsmobility 	minSpeed 	0
scalar IntersectionExampleScenario.node[19].veinsmobility 	maxSpeed 	15.067485809326
scalar IntersectionExampleScenario.node[19].veinsmobility 	totalDistance 	570.34264373779
scalar IntersectionExampleScenario.node[19].veinsmobility 	totalCO2Emission 	154.61949980491
scalar IntersectionExampleScenario.node[20].appl 	VehicleRemoved 	0
scalar IntersectionExampleScenario.node[20].appl 	ArrivedAtDest 	1
scalar IntersectionExampleScenario.node[20].appl 	IntersectionEnterTime 	69.25
scalar IntersectionExampleScenario.node[20].appl 	IntersectionExitTime 	113.59930196512
scalar IntersectionExampleScenario.node[20].appl 	NumberOfCollisions 	0
scalar IntersectionExampleScenario.node[20].nic.phy80211p 	busyTime 	0
scalar IntersectionExampleScenario.node[20].nic.mac1609_4 	ReceivedUnicastPackets 	0
scalar IntersectionExampleScenario.node[20].nic.mac1609_4 	ReceivedBroadcasts 	0
scalar IntersectionExampleScenario.node[20].nic.mac1609_4 	SentPackets 	0
scalar IntersectionExampleScenario.node[20].nic.mac1609_4 	SNIRLostPackets 	0
scalar IntersectionExampleScenario.node[20].nic.mac1609_4 	RXTXLostPackets 	0
scalar IntersectionExampleScenario.node[20].nic.mac1609_4 	TotalLostPackets 	0
scalar IntersectionExampleScenario.node[20].nic.mac1609_4 	DroppedPacketsInMac 	0
scalar IntersectionExampleScenario.node[20].nic.mac1609_4 	TooLittleTime 	0
scalar IntersectionExampleScenario.node[20].nic.mac1609_4 	TimesIntoBackoff 	0
scalar IntersectionExampleScenario.node[20].nic.mac1609_4 	SlotsBackoff 	0
scalar IntersectionExampleScenario.node[20].nic.mac1609_4 	NumInternalContention 	0
scalar IntersectionExampleScenario.node[20].nic.mac1609_4 	totalBusyTime 	0
scalar IntersectionExampleScenario.node[20].veinsmobility 	startTime 	69.25
scalar IntersectionExampleScenario.node[20].veinsmobility 	totalTime 	61.25
scalar IntersectionExampleScenario.node[20].veinsmobility 	stopTime 	130.75
scalar IntersectionExampleScenario.node[20].veinsmobility 	minSpeed 	0
scalar IntersectionExampleScenario.node[20].veinsmobility 	maxSpeed 	15.25
scalar IntersectionExampleScenario.node[20].veinsmobility 	totalDistance 	577.53172411468
scalar IntersectionExampleScenario.node[20].veinsmobility 	totalCO2Emission 	155.60090204292
scalar IntersectionExampleScenario.node[33].appl 	VehicleRemoved 	0
scalar IntersectionExampleScenario.node[33].appl 	ArrivedAtDest 	1
scalar IntersectionExampleScenario.node[33].appl 	IntersectionEnterTime 	89.5
scalar IntersectionExampleScenario.node[33].appl 	IntersectionExitTime 	115.75552735469
scalar IntersectionExampleScenario.node[33].appl 	NumberOfCollisions 	0
scalar IntersectionExampleScenario.node[33].nic.phy80211p 	busyTime 	0
scalar IntersectionExampleScenario.node[33].nic.mac1609_4 	ReceivedUnicastPackets 	0
scalar IntersectionExampleScenario.node[33].nic.mac1609_4 	ReceivedBroadcasts 	0
scalar IntersectionExampleScenario.node[33].nic.mac1609_4 	SentPackets 	0
scalar IntersectionExampleScenario.node[33].nic.mac1609_4 	SNIRLostPackets 	0
scalar IntersectionExampleScenario.node[33].nic.mac1609_4 	RXTXLostPackets 	0
scalar IntersectionExampleScenario.node[33].nic.mac1609_4 	TotalLostPackets 	0
scalar IntersectionExampleScenario.node[33].nic.mac1609_4 	DroppedPacketsInMac 	0
scalar IntersectionExampleScenario.node[33].nic.mac1609_4 	TooLittleTime 	0
scalar IntersectionExampleScenario.node[33].nic.mac1609_4 	TimesIntoBackoff 	0
scalar IntersectionExampleScenario.node[33].nic.mac1609_4 	SlotsBackoff 	0
scalar IntersectionExampleScenario.node[33].nic.mac1609_4 	NumInternalContention 	0
scalar IntersectionExampleScenario.node[33].nic.mac1609_4 	totalBusyTime 	0
scalar IntersectionExampleScenario.node[33].veinsmobility 	startTime 	89.5
scalar IntersectionExampleScenario.node[33].veinsmobility 	totalTime 	42.75
scalar IntersectionExampleScenario.node[33].veinsmobility 	stopTime 	132.5
scalar IntersectionExampleScenario.node[33].veinsmobility 	minSpeed 	5.2850503921509
scalar IntersectionExampleScenario.node[33].veinsmobility 	maxSpeed 	15.64999961853
scalar IntersectionExampleScenario.node[33].veinsmobility 	totalDistance 	513.63986414189
scalar IntersectionExampleScenario.node[33].veinsmobility 	totalCO2Emission 	131.18091215627
scalar IntersectionExampleScenario.node[24].appl 	VehicleRemoved 	0
scalar IntersectionExampleScenario.node[24].appl 	ArrivedAtDest 	1
scalar IntersectionExampleScenario.node[24].appl 	IntersectionEnterTime 	76.75
scalar IntersectionExampleScenario.node[24].appl 	IntersectionExitTime 	117.60044177919
scalar IntersectionExampleScenario.node[24].appl 	NumberOfCollisions 	0
scalar IntersectionExampleScenario.node[24].nic.phy80211p 	busyTime 	0
scalar IntersectionExampleScenario.node[24].nic.mac1609_4 	ReceivedUnicastPackets 	0
scalar IntersectionExampleScenario.node[24].nic.mac1609_4 	ReceivedBroadcasts 	0
scalar IntersectionExampleScenario.node[24].nic.mac1609_4 	SentPackets 	0
scalar IntersectionExampleScenario.node[24].nic.mac1609_4 	SNIRLostPackets 	0
scalar IntersectionExampleScenario.node[24].nic.mac1609_4 	RXTXLostPackets 	0
scalar IntersectionExampleScenario.node[24].nic.mac1609_4 	TotalLostPackets 	0
scalar IntersectionExampleScenario.node[24].nic.mac1609_4 	DroppedPacketsInMac 	0
scalar IntersectionExampleScenario.node[24].nic.mac1609_4 	TooLittleTime 	0
scalar IntersectionExampleScenario.node[24].nic.mac1609_4 	TimesIntoBackoff 	0
scalar IntersectionExampleScenario.node[24].nic.mac1609_4 	SlotsBackoff 	0
scalar IntersectionExampleScenario.node[24].nic.mac1609_4 	NumInternalContention 	0
scalar IntersectionExampleScenario.node[24].nic.mac1609_4 	totalBusyTime 	0
scalar IntersectionExampleScenario.node[24].veinsmobility 	startTime 	76.75
scalar IntersectionExampleScenario.node[24].veinsmobility 	totalTime 	58
scalar IntersectionExampleScenario.node[24].veinsmobility 	stopTime 	135
scalar IntersectionExampleScenario.node[24].veinsmobility 	minSpeed 	0
scalar IntersectionExampleScenario.node[24].veinsmobility 	maxSpeed 	15.25
scalar IntersectionExampleScenario.node[24].veinsmobility 	totalDistance 	544.38066769988
scalar IntersectionExampleScenario.node[24].veinsmobility 	totalCO2Emission 	145.53566949431
scalar IntersectionExampleScenario.node[25].appl 	VehicleRemoved 	0
scalar IntersectionExampleScenario.node[25].appl 	ArrivedAtDest 	1
scalar IntersectionExampleScenario.node[25].appl 	IntersectionEnterTime 	79
scalar IntersectionExampleScenario.node[25].appl 	IntersectionExitTime 	120.05950330922
scalar IntersectionExampleScenario.node[25].appl 	NumberOfCollisions 	0
scalar IntersectionExampleScenario.node[25].nic.phy80211p 	busyTime 	0
scalar IntersectionExampleScenario.node[25].nic.mac1609_4 	ReceivedUnicastPackets 	0
scalar IntersectionExampleScenario.node[25].nic.mac1609_4 	ReceivedBroadcasts 	0
scalar IntersectionExampleScenario.node[25].nic.mac1609_4 	SentPackets 	0
scalar IntersectionExampleScenario.node[25].nic.mac1609_4 	SNIRLostPackets 	0
scalar IntersectionExampleScenario.node[25].nic.mac1609_4 	RXTXLostPackets 	0
scalar IntersectionExampleScenario.node[25].nic.mac1609_4 	TotalLostPackets 	0
scalar IntersectionExampleScenario.node[25].nic.mac1609_4 	DroppedPacketsInMac 	0
scalar IntersectionExampleScenario.node[25].nic.mac1609_4 	TooLittleTime 	0
scalar IntersectionExampleScenario.node[25].nic.mac1609_4 	TimesIntoBackoff 	0
scalar IntersectionExampleScenario.node[25].nic.mac1609_4 	SlotsBackoff 	0
scalar IntersectionExampleScenario.node[25].nic.mac1609_4 	NumInternalContention 	0
scalar IntersectionExampleScenario.node[25].nic.mac1609_4 	totalBusyTime 	0
scalar IntersectionExampleScenario.node[25].veinsmobility 	startTime 	79
scalar IntersectionExampleScenario.node[25].veinsmobility 	totalTime 	57.75
scalar IntersectionExampleScenario.node[25].veinsmobility 	stopTime 	137
scalar IntersectionExampleScenario.node[25].veinsmobility 	minSpeed 	0
scalar IntersectionExampleScenario.node[25].veinsmobility 	maxSpeed 	15.317594528198
scalar IntersectionExampleScenario.node[25].veinsmobility 	totalDistance 	562.27838714865
scalar IntersectionExampleScenario.node[25].veinsmobility 	totalCO2Emission 	151.97590273623
scalar IntersectionExampleScenario.node[27].appl 	VehicleRemoved 	0
scalar IntersectionExampleScenario.node[27].appl 	ArrivedAtDest 	1
scalar IntersectionExampleScenario.node[27].appl 	IntersectionEnterTime 	87
scalar IntersectionExampleScenario.node[27].appl 	IntersectionExitTime 	122.78204415712
scalar IntersectionExampleScenario.node[27].appl 	NumberOfCollisions 	0
scalar IntersectionExampleScenario.node[27].nic.phy80211p 	busyTime 	0
scalar IntersectionExampleScenario.node[27].nic.mac1609_4 	ReceivedUnicastPackets 	0
scalar IntersectionExampleScenario.node[27].nic.mac1609_4 	ReceivedBroadcasts 	0
scalar IntersectionExampleScenario.node[27].nic.mac1609_4 	SentPackets 	0
scalar IntersectionExampleScenario.node[27].nic.mac1609_4 	SNIRLostPackets 	0
scalar IntersectionExampleScenario.node[27].nic.mac1609_4 	RXTXLostPackets 	0
scalar IntersectionExampleScenario.node[27].nic.mac1609_4 	TotalLostPackets 	0
scalar IntersectionExampleScenario.node[27].nic.mac1609_4 	DroppedPacketsInMac 	0
scalar IntersectionExampleScenario.node[27].nic.mac1609_4 	TooLittleTime 	0
scalar IntersectionExampleScenario.node[27].nic.mac1609_4 	TimesIntoBackoff 	0
scalar IntersectionExampleScenario.node[27].nic.mac1609_4 	SlotsBackoff 	0
scalar IntersectionExampleScenario.node[27].nic.mac1609_4 	NumInternalContention 	0
scalar IntersectionExampleScenario.node[27].nic.mac1609_4 	totalBusyTime 	0
scalar IntersectionExampleScenario.node[27].veinsmobility 	startTime 	87
scalar IntersectionExampleScenario.node[27].veinsmobility 	totalTime 	52.5
scalar IntersectionExampleScenario.node[27].veinsmobility 	stopTime 	139.75
scalar IntersectionExampleScenario.node[27].veinsmobility 	minSpeed 	0
scalar IntersectionExampleScenario.node[27].veinsmobility 	maxSpeed 	15.02499961853
scalar IntersectionExampleScenario.node[27].veinsmobility 	totalDistance 	552.95101928711
scalar IntersectionExampleScenario.node[27].veinsmobility 	totalCO2Emission 	136.20868779377
scalar IntersectionExampleScenario.node[29].appl 	VehicleRemoved 	0
scalar IntersectionExampleScenario.node[29].appl 	ArrivedAtDest 	1
scalar IntersectionExampleScenario.node[29].appl 	IntersectionEnterTime 	88.25
scalar IntersectionExampleScenario.node[29].appl 	IntersectionExitTime 	125.06065675392
scalar IntersectionExampleScenario.node[29].appl 	NumberOfCollisions 	0
scalar IntersectionExampleScenario.node[29].nic.phy80211p 	busyTime 	0
scalar IntersectionExampleScenario.node[29].nic.mac1609_4 	ReceivedUnicastPackets 	0
scalar IntersectionExampleScenario.node[29].nic.mac1609_4 	ReceivedBroadcasts 	0
scalar IntersectionExampleScenario.node[29].nic.mac1609_4 	SentPackets 	0
scalar IntersectionExampleScenario.node[29].nic.mac1609_4 	SNIRLostPackets 	0
scalar IntersectionExampleScenario.node[29].nic.mac1609_4 	RXTXLostPackets 	0
scalar IntersectionExampleScenario.node[29].nic.mac1609_4 	TotalLostPackets 	0
scalar IntersectionExampleScenario.node[29].nic.mac1609_4 	DroppedPacketsInMac 	0
scalar IntersectionExampleScenario.node[29].nic.mac1609_4 	TooLittleTime 	0
scalar IntersectionExampleScenario.node[29].nic.mac1609_4 	TimesIntoBackoff 	0
scalar IntersectionExampleScenario.node[29].nic.mac1609_4 	SlotsBackoff 	0
scalar IntersectionExampleScenario.node[29].nic.mac1609_4 	NumInternalContention 	0
scalar IntersectionExampleScenario.node[29].nic.mac1609_4 	totalBusyTime 	0
scalar IntersectionExampleScenario.node[29].veinsmobility 	startTime 	88.25
scalar IntersectionExampleScenario.node[29].veinsmobility 	totalTime 	53
scalar IntersectionExampleScenario.node[29].veinsmobility 	stopTime 	141.5
scalar IntersectionExampleScenario.node[29].veinsmobility 	minSpeed 	0.99518346786499
scalar IntersectionExampleScenario.node[29].veinsmobility 	maxSpeed 	15.02499961853
scalar IntersectionExampleScenario.node[29].veinsmobility 	totalDistance 	572.71519470215
scalar IntersectionExampleScenario.node[29].veinsmobility 	totalCO2Emission 	145.84063660843
scalar IntersectionExampleScenario.node[34].appl 	VehicleRemoved 	0
scalar IntersectionExampleScenario.node[34].appl 	ArrivedAtDest 	1
scalar IntersectionExampleScenario.node[34].appl 	IntersectionEnterTime 	90.25
scalar IntersectionExampleScenario.node[34].appl 	IntersectionExitTime 	128.2794215552
scalar IntersectionExampleScenario.node[34].appl 	NumberOfCollisions 	0
scalar IntersectionExampleScenario.node[34].nic.phy80211p 	busyTime 	0
scalar IntersectionExampleScenario.node[34].nic.mac1609_4 	ReceivedUnicastPackets 	0
scalar IntersectionExampleScenario.node[34].nic.mac1609_4 	ReceivedBroadcasts 	0
scalar IntersectionExampleScenario.node[34].nic.mac1609_4 	SentPackets 	0
scalar IntersectionExampleScenario.node[34].nic.mac1609_4 	SNIRLostPackets 	0
scalar IntersectionExampleScenario.node[34].nic.mac1609_4 	RXTXLostPackets 	0
scalar IntersectionExampleScenario.node[34].nic.mac1609_4 	TotalLostPackets 	0
scalar IntersectionExampleScenario.node[34].nic.mac1609_4 	DroppedPacketsInMac 	0
scalar IntersectionExampleScenario.node[34].nic.mac1609_4 	TooLittleTime 	0
scalar IntersectionExampleScenario.node[34].nic.mac1609_4 	TimesIntoBackoff 	0
scalar IntersectionExampleScenario.node[34].nic.mac1609_4 	SlotsBackoff 	0
scalar IntersectionExampleScenario.node[34].nic.mac1609_4 	NumInternalContention 	0
scalar IntersectionExampleScenario.node[34].nic.mac1609_4 	totalBusyTime 	0
scalar IntersectionExampleScenario.node[34].veinsmobility 	startTime 	90.25
scalar IntersectionExampleScenario.node[34].veinsmobility 	totalTime 	54.25
scalar IntersectionExampleScenario.node[34].veinsmobility 	stopTime 	144.75
scalar IntersectionExampleScenario.node[34].veinsmobility 	minSpeed 	0
scalar IntersectionExampleScenario.node[34].veinsmobility 	maxSpeed 	15.375
scalar IntersectionExampleScenario.node[34].veinsmobility 	totalDistance 	517.42484392276
scalar IntersectionExampleScenario.node[34].veinsmobility 	totalCO2Emission 	141.02245366834
scalar IntersectionExampleScenario.node[46].appl 	VehicleRemoved 	0
scalar IntersectionExampleScenario.node[46].appl 	ArrivedAtDest 	1
scalar IntersectionExampleScenario.node[46].appl 	IntersectionEnterTime 	108.25
scalar IntersectionExampleScenario.node[46].appl 	IntersectionExitTime 	130.31716807795
scalar IntersectionExampleScenario.node[46].appl 	NumberOfCollisions 	0
scalar IntersectionExampleScenario.node[46].nic.phy80211p 	busyTime 	0
scalar IntersectionExampleScenario.node[46].nic.mac1609_4 	ReceivedUnicastPackets 	0
scalar IntersectionExampleScenario.node[46].nic.mac1609_4 	ReceivedBroadcasts 	0
scalar IntersectionExampleScenario.node[46].nic.mac1609_4 	SentPackets 	0
scalar IntersectionExampleScenario.node[46].nic.mac1609_4 	SNIRLostPackets 	0
scalar IntersectionExampleScenario.node[46].nic.mac1609_4 	RXTXLostPackets 	0
scalar IntersectionExampleScenario.node[46].nic.mac1609_4 	TotalLostPackets 	0
scalar IntersectionExampleScenario.node[46].nic.mac1609_4 	DroppedPacketsInMac 	0
scalar IntersectionExampleScenario.node[46].nic.mac1609_4 	TooLittleTime 	0
scalar IntersectionExampleScenario.node[46].nic.mac1609_4 	TimesIntoBackoff 	0
scalar IntersectionExampleScenario.node[46].nic.mac1609_4 	SlotsBackoff 	0
scalar IntersectionExampleScenario.node[46].nic.mac1609_4 	NumInternalContention 	0
scalar IntersectionExampleScenario.node[46].nic.mac1609_4 	totalBusyTime 	0
scalar IntersectionExampleScenario.node[46].veinsmobility 	startTime 	108.25
scalar IntersectionExampleScenario.node[46].veinsmobility 	totalTime 	37
scalar IntersectionExampleScenario.node[46].veinsmobility 	stopTime 	145.5
scalar IntersectionExampleScenario.node[46].veinsmobility 	minSpeed 	5.6500000953674
scalar IntersectionExampleScenario.node[46].veinsmobility 	maxSpeed 	16.75
scalar IntersectionExampleScenario.node[46].veinsmobility 	totalDistance 	552.55521392822
scalar IntersectionExampleScenario.node[46].veinsmobility 	totalCO2Emission 	124.62722998781
scalar IntersectionExampleScenario.node[30].appl 	VehicleRemoved 	0
scalar IntersectionExampleScenario.node[30].appl 	ArrivedAtDest 	1
scalar IntersectionExampleScenario.node[30].appl 	IntersectionEnterTime 	88.5
scalar IntersectionExampleScenario.node[30].appl 	IntersectionExitTime 	129.11663002096
scalar IntersectionExampleScenario.node[30].appl 	NumberOfCollisions 	0
scalar IntersectionExampleScenario.node[30].nic.phy80211p 	busyTime 	0
scalar IntersectionExampleScenario.node[30].nic.mac1609_4 	ReceivedUnicastPackets 	0
scalar IntersectionExampleScenario.node[30].nic.mac1609_4 	ReceivedBroadcasts 	0
scalar IntersectionExampleScenario.node[30].nic.mac1609_4 	SentPackets 	0
scalar IntersectionExampleScenario.node[30].nic.mac1609_4 	SNIRLostPackets 	0
scalar IntersectionExampleScenario.node[30].nic.mac1609_4 	RXTXLostPackets 	0
scalar IntersectionExampleScenario.node[30].nic.mac1609_4 	TotalLostPackets 	0
scalar IntersectionExampleScenario.node[30].nic.mac1609_4 	DroppedPacketsInMac 	0
scalar IntersectionExampleScenario.node[30].nic.mac1609_4 	TooLittleTime 	0
scalar IntersectionExampleScenario.node[30].nic.mac1609_4 	TimesIntoBackoff 	0
scalar IntersectionExampleScenario.node[30].nic.mac1609_4 	SlotsBackoff 	0
scalar IntersectionExampleScenario.node[30].nic.mac1609_4 	NumInternalContention 	0
scalar IntersectionExampleScenario.node[30].nic.mac1609_4 	totalBusyTime 	0
scalar IntersectionExampleScenario.node[30].veinsmobility 	startTime 	88.5
scalar IntersectionExampleScenario.node[30].veinsmobility 	totalTime 	57.5
scalar IntersectionExampleScenario.node[30].veinsmobility 	stopTime 	146.25
scalar IntersectionExampleScenario.node[30].veinsmobility 	minSpeed 	0
scalar IntersectionExampleScenario.node[30].veinsmobility 	maxSpeed 	15.25
scalar IntersectionExampleScenario.node[30].veinsmobility 	totalDistance 	544.16826473637
scalar IntersectionExampleScenario.node[30].veinsmobility 	totalCO2Emission 	151.51269200836
scalar IntersectionExampleScenario.node[32].appl 	VehicleRemoved 	0
scalar IntersectionExampleScenario.node[32].appl 	ArrivedAtDest 	1
scalar IntersectionExampleScenario.node[32].appl 	IntersectionEnterTime 	88.75
scalar IntersectionExampleScenario.node[32].appl 	IntersectionExitTime 	131.5855013692
scalar IntersectionExampleScenario.node[32].appl 	NumberOfCollisions 	0
scalar IntersectionExampleScenario.node[32].nic.phy80211p 	busyTime 	0
scalar IntersectionExampleScenario.node[32].nic.mac1609_4 	ReceivedUnicastPackets 	0
scalar IntersectionExampleScenario.node[32].nic.mac1609_4 	ReceivedBroadcasts 	0
scalar IntersectionExampleScenario.node[32].nic.mac1609_4 	SentPackets 	0
scalar IntersectionExampleScenario.node[32].nic.mac1609_4 	SNIRLostPackets 	0
scalar IntersectionExampleScenario.node[32].nic.mac1609_4 	RXTXLostPackets 	0
scalar IntersectionExampleScenario.node[32].nic.mac1609_4 	TotalLostPackets 	0
scalar IntersectionExampleScenario.node[32].nic.mac1609_4 	DroppedPacketsInMac 	0
scalar IntersectionExampleScenario.node[32].nic.mac1609_4 	TooLittleTime 	0
scalar IntersectionExampleScenario.node[32].nic.mac1609_4 	TimesIntoBackoff 	0
scalar IntersectionExampleScenario.node[32].nic.mac1609_4 	SlotsBackoff 	0
scalar IntersectionExampleScenario.node[32].nic.mac1609_4 	NumInternalContention 	0
scalar IntersectionExampleScenario.node[32].nic.mac1609_4 	totalBusyTime 	0
scalar IntersectionExampleScenario.node[32].veinsmobility 	startTime 	88.75
scalar IntersectionExampleScenario.node[32].veinsmobility 	totalTime 	59.5
scalar IntersectionExampleScenario.node[32].veinsmobility 	stopTime 	148.5
scalar IntersectionExampleScenario.node[32].veinsmobility 	minSpeed 	0
scalar IntersectionExampleScenario.node[32].veinsmobility 	maxSpeed 	15.388257980347
scalar IntersectionExampleScenario.node[32].veinsmobility 	totalDistance 	570.72490915714
scalar IntersectionExampleScenario.node[32].veinsmobility 	totalCO2Emission 	157.4297959352
scalar IntersectionExampleScenario.node[37].appl 	VehicleRemoved 	0
scalar IntersectionExampleScenario.node[37].appl 	ArrivedAtDest 	1
scalar IntersectionExampleScenario.node[37].appl 	IntersectionEnterTime 	95.5
scalar IntersectionExampleScenario.node[37].appl 	IntersectionExitTime 	134.0576380032
scalar IntersectionExampleScenario.node[37].appl 	NumberOfCollisions 	0
scalar IntersectionExampleScenario.node[37].nic.phy80211p 	busyTime 	0
scalar IntersectionExampleScenario.node[37].nic.mac1609_4 	ReceivedUnicastPackets 	0
scalar IntersectionExampleScenario.node[37].nic.mac1609_4 	ReceivedBroadcasts 	0
scalar IntersectionExampleScenario.node[37].nic.mac1609_4 	SentPackets 	0
scalar IntersectionExampleScenario.node[37].nic.mac1609_4 	SNIRLostPackets 	0
scalar IntersectionExampleScenario.node[37].nic.mac1609_4 	RXTXLostPackets 	0
scalar IntersectionExampleScenario.node[37].nic.mac1609_4 	TotalLostPackets 	0
scalar IntersectionExampleScenario.node[37].nic.mac1609_4 	DroppedPacketsInMac 	0
scalar IntersectionExampleScenario.node[37].nic.mac1609_4 	TooLittleTime 	0
scalar IntersectionExampleScenario.node[37].nic.mac1609_4 	TimesIntoBackoff 	0
scalar IntersectionExampleScenario.node[37].nic.mac1609_4 	SlotsBackoff 	0
scalar IntersectionExampleScenario.node[37].nic.mac1609_4 	NumInternalContention 	0
scalar IntersectionExampleScenario.node[37].nic.mac1609_4 	totalBusyTime 	0
scalar IntersectionExampleScenario.node[37].veinsmobility 	startTime 	95.5
scalar IntersectionExampleScenario.node[37].veinsmobility 	totalTime 	55.5
scalar IntersectionExampleScenario.node[37].veinsmobility 	stopTime 	151.25
scalar IntersectionExampleScenario.node[37].veinsmobility 	minSpeed 	0
scalar IntersectionExampleScenario.node[37].veinsmobility 	maxSpeed 	15.25
scalar IntersectionExampleScenario.node[37].veinsmobility 	totalDistance 	556.06389694163
scalar IntersectionExampleScenario.node[37].veinsmobility 	totalCO2Emission 	145.93867370714
scalar IntersectionExampleScenario.node[39].appl 	VehicleRemoved 	0
scalar IntersectionExampleScenario.node[39].appl 	ArrivedAtDest 	1
scalar IntersectionExampleScenario.node[39].appl 	IntersectionEnterTime 	98.5
scalar IntersectionExampleScenario.node[39].appl 	IntersectionExitTime 	135.61273506275
scalar IntersectionExampleScenario.node[39].appl 	NumberOfCollisions 	0
scalar IntersectionExampleScenario.node[39].nic.phy80211p 	busyTime 	0
scalar IntersectionExampleScenario.node[39].nic.mac1609_4 	ReceivedUnicastPackets 	0
scalar IntersectionExampleScenario.node[39].nic.mac1609_4 	ReceivedBroadcasts 	0
scalar IntersectionExampleScenario.node[39].nic.mac1609_4 	SentPackets 	0
scalar IntersectionExampleScenario.node[39].nic.mac1609_4 	SNIRLostPackets 	0
scalar IntersectionExampleScenario.node[39].nic.mac1609_4 	RXTXLostPackets 	0
scalar IntersectionExampleScenario.node[39].nic.mac1609_4 	TotalLostPackets 	0
scalar IntersectionExampleScenario.node[39].nic.mac1609_4 	DroppedPacketsInMac 	0
scalar IntersectionExampleScenario.node[39].nic.mac1609_4 	TooLittleTime 	0
scalar IntersectionExampleScenario.node[39].nic.mac1609_4 	TimesIntoBackoff 	0
scalar IntersectionExampleScenario.node[39].nic.mac1609_4 	SlotsBackoff 	0
scalar IntersectionExampleScenario.node[39].nic.mac1609_4 	NumInternalContention 	0
scalar IntersectionExampleScenario.node[39].nic.mac1609_4 	totalBusyTime 	0
scalar IntersectionExampleScenario.node[39].veinsmobility 	startTime 	98.5
scalar IntersectionExampleScenario.node[39].veinsmobility 	totalTime 	53
scalar IntersectionExampleScenario.node[39].veinsmobility 	stopTime 	151.75
scalar IntersectionExampleScenario.node[39].veinsmobility 	minSpeed 	1.8057389259338
scalar IntersectionExampleScenario.node[39].veinsmobility 	maxSpeed 	15.5
scalar IntersectionExampleScenario.node[39].veinsmobility 	totalDistance 	570.86961364862
scalar IntersectionExampleScenario.node[39].veinsmobility 	totalCO2Emission 	144.95226138922
scalar IntersectionExampleScenario.node[49].appl 	VehicleRemoved 	0
scalar IntersectionExampleScenario.node[49].appl 	ArrivedAtDest 	1
scalar IntersectionExampleScenario.node[49].appl 	IntersectionEnterTime 	111.75
scalar IntersectionExampleScenario.node[49].appl 	IntersectionExitTime 	136.78589249303
scalar IntersectionExampleScenario.node[49].appl 	NumberOfCollisions 	0
scalar IntersectionExampleScenario.node[49].nic.phy80211p 	busyTime 	0
scalar IntersectionExampleScenario.node[49].nic.mac1609_4 	ReceivedUnicastPackets 	0
scalar IntersectionExampleScenario.node[49].nic.mac1609_4 	ReceivedBroadcasts 	0
scalar IntersectionExampleScenario.node[49].nic.mac1609_4 	SentPackets 	0
scalar IntersectionExampleScenario.node[49].nic.mac1609_4 	SNIRLostPackets 	0
scalar IntersectionExampleScenario.node[49].nic.mac1609_4 	RXTXLostPackets 	0
scalar IntersectionExampleScenario.node[49].nic.mac1609_4 	TotalLostPackets 	0
scalar IntersectionExampleScenario.node[49].nic.mac1609_4 	DroppedPacketsInMac 	0
scalar IntersectionExampleScenario.node[49].nic.mac1609_4 	TooLittleTime 	0
scalar IntersectionExampleScenario.node[49].nic.mac1609_4 	TimesIntoBackoff 	0
scalar IntersectionExampleScenario.node[49].nic.mac1609_4 	SlotsBackoff 	0
scalar IntersectionExampleScenario.node[49].nic.mac1609_4 	NumInternalContention 	0
scalar IntersectionExampleScenario.node[49].nic.mac1609_4 	totalBusyTime 	0
scalar IntersectionExampleScenario.node[49].veinsmobility 	startTime 	111.75
scalar IntersectionExampleScenario.node[49].veinsmobility 	totalTime 	42.25
scalar IntersectionExampleScenario.node[49].veinsmobility 	stopTime 	154.25
scalar IntersectionExampleScenario.node[49].veinsmobility 	minSpeed 	5.6500000953674
scalar IntersectionExampleScenario.node[49].veinsmobility 	maxSpeed 	14.798854827881
scalar IntersectionExampleScenario.node[49].veinsmobility 	totalDistance 	560.62725076671
scalar IntersectionExampleScenario.node[49].veinsmobility 	totalCO2Emission 	119.78589294144
scalar IntersectionExampleScenario.node[28].appl 	VehicleRemoved 	0
scalar IntersectionExampleScenario.node[28].appl 	ArrivedAtDest 	1
scalar IntersectionExampleScenario.node[28].appl 	IntersectionEnterTime 	87.75
scalar IntersectionExampleScenario.node[28].appl 	IntersectionExitTime 	137.85838665414
scalar IntersectionExampleScenario.node[28].appl 	NumberOfCollisions 	0
scalar IntersectionExampleScenario.node[28].nic.phy80211p 	busyTime 	0
scalar IntersectionExampleScenario.node[28].nic.mac1609_4 	ReceivedUnicastPackets 	0
scalar IntersectionExampleScenario.node[28].nic.mac1609_4 	ReceivedBroadcasts 	0
scalar IntersectionExampleScenario.node[28].nic.mac1609_4 	SentPackets 	0
scalar IntersectionExampleScenario.node[28].nic.mac1609_4 	SNIRLostPackets 	0
scalar IntersectionExampleScenario.node[28].nic.mac1609_4 	RXTXLostPackets 	0
scalar IntersectionExampleScenario.node[28].nic.mac1609_4 	TotalLostPackets 	0
scalar IntersectionExampleScenario.node[28].nic.mac1609_4 	DroppedPacketsInMac 	0
scalar IntersectionExampleScenario.node[28].nic.mac1609_4 	TooLittleTime 	0
scalar IntersectionExampleScenario.node[28].nic.mac1609_4 	TimesIntoBackoff 	0
scalar IntersectionExampleScenario.node[28].nic.mac1609_4 	SlotsBackoff 	0
scalar IntersectionExampleScenario.node[28].nic.mac1609_4 	NumInternalContention 	0
scalar IntersectionExampleScenario.node[28].nic.mac1609_4 	totalBusyTime 	0
scalar IntersectionExampleScenario.node[28].veinsmobility 	startTime 	87.75
scalar IntersectionExampleScenario.node[28].veinsmobility 	totalTime 	66.75
scalar IntersectionExampleScenario.node[28].veinsmobility 	stopTime 	154.75
scalar IntersectionExampleScenario.node[28].veinsmobility 	minSpeed 	0
scalar IntersectionExampleScenario.node[28].veinsmobility 	maxSpeed 	15.25
scalar IntersectionExampleScenario.node[28].veinsmobility 	totalDistance 	543.89903165252
scalar IntersectionExampleScenario.node[28].veinsmobility 	totalCO2Emission 	166.85070194604
scalar IntersectionExampleScenario.node[31].appl 	VehicleRemoved 	0
scalar IntersectionExampleScenario.node[31].appl 	ArrivedAtDest 	1
scalar IntersectionExampleScenario.node[31].appl 	IntersectionEnterTime 	88.75
scalar IntersectionExampleScenario.node[31].appl 	IntersectionExitTime 	139.55260447625
scalar IntersectionExampleScenario.node[31].appl 	NumberOfCollisions 	0
scalar IntersectionExampleScenario.node[31].nic.phy80211p 	busyTime 	0
scalar IntersectionExampleScenario.node[31].nic.mac1609_4 	ReceivedUnicastPackets 	0
scalar IntersectionExampleScenario.node[31].nic.mac1609_4 	ReceivedBroadcasts 	0
scalar IntersectionExampleScenario.node[31].nic.mac1609_4 	SentPackets 	0
scalar IntersectionExampleScenario.node[31].nic.mac1609_4 	SNIRLostPackets 	0
scalar IntersectionExampleScenario.node[31].nic.mac1609_4 	RXTXLostPackets 	0
scalar IntersectionExampleScenario.node[31].nic.mac1609_4 	TotalLostPackets 	0
scalar IntersectionExampleScenario.node[31].nic.mac1609_4 	DroppedPacketsInMac 	0
scalar IntersectionExampleScenario.node[31].nic.mac1609_4 	TooLittleTime 	0
scalar IntersectionExampleScenario.node[31].nic.mac1609_4 	TimesIntoBackoff 	0
scalar IntersectionExampleScenario.node[31].nic.mac1609_4 	SlotsBackoff 	0
scalar IntersectionExampleScenario.node[31].nic.mac1609_4 	NumInternalContention 	0
scalar IntersectionExampleScenario.node[31].nic.mac1609_4 	totalBusyTime 	0
scalar IntersectionExampleScenario.node[31].veinsmobility 	startTime 	88.75
scalar IntersectionExampleScenario.node[31].veinsmobility 	totalTime 	66
scalar IntersectionExampleScenario.node[31].veinsmobility 	stopTime 	155
scalar IntersectionExampleScenario.node[31].veinsmobility 	minSpeed 	0
scalar IntersectionExampleScenario.node[31].veinsmobility 	maxSpeed 	16.125
scalar IntersectionExampleScenario.node[31].veinsmobility 	totalDistance 	572.78954315186
scalar IntersectionExampleScenario.node[31].veinsmobility 	totalCO2Emission 	171.36799281917
scalar IntersectionExampleScenario.node[35].appl 	VehicleRemoved 	0
scalar IntersectionExampleScenario.node[35].appl 	ArrivedAtDest 	1
scalar IntersectionExampleScenario.node[35].appl 	IntersectionEnterTime 	91.25
scalar IntersectionExampleScenario.node[35].appl 	IntersectionExitTime 	141.58814814067
scalar IntersectionExampleScenario.node[35].appl 	NumberOfCollisions 	0
scalar IntersectionExampleScenario.node[35].nic.phy80211p 	busyTime 	0
scalar IntersectionExampleScenario.node[35].nic.mac1609_4 	ReceivedUnicastPackets 	0
scalar IntersectionExampleScenario.node[35].nic.mac1609_4 	ReceivedBroadcasts 	0
scalar IntersectionExampleScenario.node[35].nic.mac1609_4 	SentPackets 	0
scalar IntersectionExampleScenario.node[35].nic.mac1609_4 	SNIRLostPackets 	0
scalar IntersectionExampleScenario.node[35].nic.mac1609_4 	RXTXLostPackets 	0
scalar IntersectionExampleScenario.node[35].nic.mac1609_4 	TotalLostPackets 	0
scalar IntersectionExampleScenario.node[35].nic.mac1609_4 	DroppedPacketsInMac 	0
scalar IntersectionExampleScenario.node[35].nic.mac1609_4 	TooLittleTime 	0
scalar IntersectionExampleScenario.node[35].nic.mac1609_4 	TimesIntoBackoff 	0
scalar IntersectionExampleScenario.node[35].nic.mac1609_4 	SlotsBackoff 	0
scalar IntersectionExampleScenario.node[35].nic.mac1609_4 	NumInternalContention 	0
[...]
scalar IntersectionExampleScenario.node[788].veinsmobility 	totalCO2Emission 	57.743906074669
scalar IntersectionExampleScenario.node[789].appl 	VehicleRemoved 	0
scalar IntersectionExampleScenario.node[789].appl 	ArrivedAtDest 	0
scalar IntersectionExampleScenario.node[789].appl 	IntersectionEnterTime 	1780.75
scalar IntersectionExampleScenario.node[789].appl 	IntersectionExitTime 	-1
scalar IntersectionExampleScenario.node[789].appl 	NumberOfCollisions 	0
scalar IntersectionExampleScenario.node[789].nic.phy80211p 	busyTime 	0
scalar IntersectionExampleScenario.node[789].nic.mac1609_4 	ReceivedUnicastPackets 	0
scalar IntersectionExampleScenario.node[789].nic.mac1609_4 	ReceivedBroadcasts 	0
scalar IntersectionExampleScenario.node[789].nic.mac1609_4 	SentPackets 	0
scalar IntersectionExampleScenario.node[789].nic.mac1609_4 	SNIRLostPackets 	0
scalar IntersectionExampleScenario.node[789].nic.mac1609_4 	RXTXLostPackets 	0
scalar IntersectionExampleScenario.node[789].nic.mac1609_4 	TotalLostPackets 	0
scalar IntersectionExampleScenario.node[789].nic.mac1609_4 	DroppedPacketsInMac 	0
scalar IntersectionExampleScenario.node[789].nic.mac1609_4 	TooLittleTime 	0
scalar IntersectionExampleScenario.node[789].nic.mac1609_4 	TimesIntoBackoff 	0
scalar IntersectionExampleScenario.node[789].nic.mac1609_4 	SlotsBackoff 	0
scalar IntersectionExampleScenario.node[789].nic.mac1609_4 	NumInternalContention 	0
scalar IntersectionExampleScenario.node[789].nic.mac1609_4 	totalBusyTime 	0
scalar IntersectionExampleScenario.node[789].veinsmobility 	startTime 	1780.75
scalar IntersectionExampleScenario.node[789].veinsmobility 	totalTime 	19.25
scalar IntersectionExampleScenario.node[789].veinsmobility 	stopTime 	1800
scalar IntersectionExampleScenario.node[789].veinsmobility 	minSpeed 	5.6500000953674
scalar IntersectionExampleScenario.node[789].veinsmobility 	maxSpeed 	15.920375823975
scalar IntersectionExampleScenario.node[789].veinsmobility 	totalDistance 	276.16599273682
scalar IntersectionExampleScenario.node[789].veinsmobility 	totalCO2Emission 	66.242294208545
scalar IntersectionExampleScenario.node[790].appl 	VehicleRemoved 	0
scalar IntersectionExampleScenario.node[790].appl 	ArrivedAtDest 	0
scalar IntersectionExampleScenario.node[790].appl 	IntersectionEnterTime 	1781.75
scalar IntersectionExampleScenario.node[790].appl 	IntersectionExitTime 	-1
scalar IntersectionExampleScenario.node[790].appl 	NumberOfCollisions 	0
scalar IntersectionExampleScenario.node[790].nic.phy80211p 	busyTime 	0
scalar IntersectionExampleScenario.node[790].nic.mac1609_4 	ReceivedUnicastPackets 	0
scalar IntersectionExampleScenario.node[790].nic.mac1609_4 	ReceivedBroadcasts 	0
scalar IntersectionExampleScenario.node[790].nic.mac1609_4 	SentPackets 	0
scalar IntersectionExampleScenario.node[790].nic.mac1609_4 	SNIRLostPackets 	0
scalar IntersectionExampleScenario.node[790].nic.mac1609_4 	RXTXLostPackets 	0
scalar IntersectionExampleScenario.node[790].nic.mac1609_4 	TotalLostPackets 	0
scalar IntersectionExampleScenario.node[790].nic.mac1609_4 	DroppedPacketsInMac 	0
scalar IntersectionExampleScenario.node[790].nic.mac1609_4 	TooLittleTime 	0
scalar IntersectionExampleScenario.node[790].nic.mac1609_4 	TimesIntoBackoff 	0
scalar IntersectionExampleScenario.node[790].nic.mac1609_4 	SlotsBackoff 	0
scalar IntersectionExampleScenario.node[790].nic.mac1609_4 	NumInternalContention 	0
scalar IntersectionExampleScenario.node[790].nic.mac1609_4 	totalBusyTime 	0
scalar IntersectionExampleScenario.node[790].veinsmobility 	startTime 	1781.75
scalar IntersectionExampleScenario.node[790].veinsmobility 	totalTime 	18.25
scalar IntersectionExampleScenario.node[790].veinsmobility 	stopTime 	1800
scalar IntersectionExampleScenario.node[790].veinsmobility 	minSpeed 	4.922947883606
scalar IntersectionExampleScenario.node[790].veinsmobility 	maxSpeed 	15.21160030365
scalar IntersectionExampleScenario.node[790].veinsmobility 	totalDistance 	201.4983215332
scalar IntersectionExampleScenario.node[790].veinsmobility 	totalCO2Emission 	49.631760183991
scalar IntersectionExampleScenario.node[791].appl 	VehicleRemoved 	0
scalar IntersectionExampleScenario.node[791].appl 	ArrivedAtDest 	0
scalar IntersectionExampleScenario.node[791].appl 	IntersectionEnterTime 	1784
scalar IntersectionExampleScenario.node[791].appl 	IntersectionExitTime 	-1
scalar IntersectionExampleScenario.node[791].appl 	NumberOfCollisions 	0
scalar IntersectionExampleScenario.node[791].nic.phy80211p 	busyTime 	0
scalar IntersectionExampleScenario.node[791].nic.mac1609_4 	ReceivedUnicastPackets 	0
scalar IntersectionExampleScenario.node[791].nic.mac1609_4 	ReceivedBroadcasts 	0
scalar IntersectionExampleScenario.node[791].nic.mac1609_4 	SentPackets 	0
scalar IntersectionExampleScenario.node[791].nic.mac1609_4 	SNIRLostPackets 	0
scalar IntersectionExampleScenario.node[791].nic.mac1609_4 	RXTXLostPackets 	0
scalar IntersectionExampleScenario.node[791].nic.mac1609_4 	TotalLostPackets 	0
scalar IntersectionExampleScenario.node[791].nic.mac1609_4 	DroppedPacketsInMac 	0
scalar IntersectionExampleScenario.node[791].nic.mac1609_4 	TooLittleTime 	0
scalar IntersectionExampleScenario.node[791].nic.mac1609_4 	TimesIntoBackoff 	0
scalar IntersectionExampleScenario.node[791].nic.mac1609_4 	SlotsBackoff 	0
scalar IntersectionExampleScenario.node[791].nic.mac1609_4 	NumInternalContention 	0
scalar IntersectionExampleScenario.node[791].nic.mac1609_4 	totalBusyTime 	0
scalar IntersectionExampleScenario.node[791].veinsmobility 	startTime 	1784
scalar IntersectionExampleScenario.node[791].veinsmobility 	totalTime 	16
scalar IntersectionExampleScenario.node[791].veinsmobility 	stopTime 	1800
scalar IntersectionExampleScenario.node[791].veinsmobility 	minSpeed 	5.6500000953674
scalar IntersectionExampleScenario.node[791].veinsmobility 	maxSpeed 	15.779216766357
scalar IntersectionExampleScenario.node[791].veinsmobility 	totalDistance 	212.67127227783
scalar IntersectionExampleScenario.node[791].veinsmobility 	totalCO2Emission 	59.161967536753
scalar IntersectionExampleScenario.node[792].appl 	VehicleRemoved 	0
scalar IntersectionExampleScenario.node[792].appl 	ArrivedAtDest 	0
scalar IntersectionExampleScenario.node[792].appl 	IntersectionEnterTime 	1785.25
scalar IntersectionExampleScenario.node[792].appl 	IntersectionExitTime 	-1
scalar IntersectionExampleScenario.node[792].appl 	NumberOfCollisions 	0
scalar IntersectionExampleScenario.node[792].nic.phy80211p 	busyTime 	0
scalar IntersectionExampleScenario.node[792].nic.mac1609_4 	ReceivedUnicastPackets 	0
scalar IntersectionExampleScenario.node[792].nic.mac1609_4 	ReceivedBroadcasts 	0
scalar IntersectionExampleScenario.node[792].nic.mac1609_4 	SentPackets 	0
scalar IntersectionExampleScenario.node[792].nic.mac1609_4 	SNIRLostPackets 	0
scalar IntersectionExampleScenario.node[792].nic.mac1609_4 	RXTXLostPackets 	0
scalar IntersectionExampleScenario.node[792].nic.mac1609_4 	TotalLostPackets 	0
scalar IntersectionExampleScenario.node[792].nic.mac1609_4 	DroppedPacketsInMac 	0
scalar IntersectionExampleScenario.node[792].nic.mac1609_4 	TooLittleTime 	0
scalar IntersectionExampleScenario.node[792].nic.mac1609_4 	TimesIntoBackoff 	0
scalar IntersectionExampleScenario.node[792].nic.mac1609_4 	SlotsBackoff 	0
scalar IntersectionExampleScenario.node[792].nic.mac1609_4 	NumInternalContention 	0
scalar IntersectionExampleScenario.node[792].nic.mac1609_4 	totalBusyTime 	0
scalar IntersectionExampleScenario.node[792].veinsmobility 	startTime 	1785.25
scalar IntersectionExampleScenario.node[792].veinsmobility 	totalTime 	14.75
scalar IntersectionExampleScenario.node[792].veinsmobility 	stopTime 	1800
scalar IntersectionExampleScenario.node[792].veinsmobility 	minSpeed 	5.6500000953674
scalar IntersectionExampleScenario.node[792].veinsmobility 	maxSpeed 	16.024484634399
scalar IntersectionExampleScenario.node[792].veinsmobility 	totalDistance 	211.94316864014
scalar IntersectionExampleScenario.node[792].veinsmobility 	totalCO2Emission 	58.72696856859
scalar IntersectionExampleScenario.node[793].appl 	VehicleRemoved 	0
scalar IntersectionExampleScenario.node[793].appl 	ArrivedAtDest 	0
scalar IntersectionExampleScenario.node[793].appl 	IntersectionEnterTime 	1786.25
scalar IntersectionExampleScenario.node[793].appl 	IntersectionExitTime 	-1
scalar IntersectionExampleScenario.node[793].appl 	NumberOfCollisions 	0
scalar IntersectionExampleScenario.node[793].nic.phy80211p 	busyTime 	0
scalar IntersectionExampleScenario.node[793].nic.mac1609_4 	ReceivedUnicastPackets 	0
scalar IntersectionExampleScenario.node[793].nic.mac1609_4 	ReceivedBroadcasts 	0
scalar IntersectionExampleScenario.node[793].nic.mac1609_4 	SentPackets 	0
scalar IntersectionExampleScenario.node[793].nic.mac1609_4 	SNIRLostPackets 	0
scalar IntersectionExampleScenario.node[793].nic.mac1609_4 	RXTXLostPackets 	0
scalar IntersectionExampleScenario.node[793].nic.mac1609_4 	TotalLostPackets 	0
scalar IntersectionExampleScenario.node[793].nic.mac1609_4 	DroppedPacketsInMac 	0
scalar IntersectionExampleScenario.node[793].nic.mac1609_4 	TooLittleTime 	0
scalar IntersectionExampleScenario.node[793].nic.mac1609_4 	TimesIntoBackoff 	0
scalar IntersectionExampleScenario.node[793].nic.mac1609_4 	SlotsBackoff 	0
scalar IntersectionExampleScenario.node[793].nic.mac1609_4 	NumInternalContention 	0
scalar IntersectionExampleScenario.node[793].nic.mac1609_4 	totalBusyTime 	0
scalar IntersectionExampleScenario.node[793].veinsmobility 	startTime 	1786.25
scalar IntersectionExampleScenario.node[793].veinsmobility 	totalTime 	13.75
scalar IntersectionExampleScenario.node[793].veinsmobility 	stopTime 	1800
scalar IntersectionExampleScenario.node[793].veinsmobility 	minSpeed 	5.6500000953674
scalar IntersectionExampleScenario.node[793].veinsmobility 	maxSpeed 	15.104681968689
scalar IntersectionExampleScenario.node[793].veinsmobility 	totalDistance 	174.94744873047
scalar IntersectionExampleScenario.node[793].veinsmobility 	totalCO2Emission 	45.892082814697
scalar IntersectionExampleScenario.node[794].appl 	VehicleRemoved 	0
scalar IntersectionExampleScenario.node[794].appl 	ArrivedAtDest 	0
scalar IntersectionExampleScenario.node[794].appl 	IntersectionEnterTime 	1788.5
scalar IntersectionExampleScenario.node[794].appl 	IntersectionExitTime 	-1
scalar IntersectionExampleScenario.node[794].appl 	NumberOfCollisions 	0
scalar IntersectionExampleScenario.node[794].nic.phy80211p 	busyTime 	0
scalar IntersectionExampleScenario.node[794].nic.mac1609_4 	ReceivedUnicastPackets 	0
scalar IntersectionExampleScenario.node[794].nic.mac1609_4 	ReceivedBroadcasts 	0
scalar IntersectionExampleScenario.node[794].nic.mac1609_4 	SentPackets 	0
scalar IntersectionExampleScenario.node[794].nic.mac1609_4 	SNIRLostPackets 	0
scalar IntersectionExampleScenario.node[794].nic.mac1609_4 	RXTXLostPackets 	0
scalar IntersectionExampleScenario.node[794].nic.mac1609_4 	TotalLostPackets 	0
scalar IntersectionExampleScenario.node[794].nic.mac1609_4 	DroppedPacketsInMac 	0
scalar IntersectionExampleScenario.node[794].nic.mac1609_4 	TooLittleTime 	0
scalar IntersectionExampleScenario.node[794].nic.mac1609_4 	TimesIntoBackoff 	0
scalar IntersectionExampleScenario.node[794].nic.mac1609_4 	SlotsBackoff 	0
scalar IntersectionExampleScenario.node[794].nic.mac1609_4 	NumInternalContention 	0
scalar IntersectionExampleScenario.node[794].nic.mac1609_4 	totalBusyTime 	0
scalar IntersectionExampleScenario.node[794].veinsmobility 	startTime 	1788.5
scalar IntersectionExampleScenario.node[794].veinsmobility 	totalTime 	11.5
scalar IntersectionExampleScenario.node[794].veinsmobility 	stopTime 	1800
scalar IntersectionExampleScenario.node[794].veinsmobility 	minSpeed 	5.6500000953674
scalar IntersectionExampleScenario.node[794].veinsmobility 	maxSpeed 	15.40957736969
scalar IntersectionExampleScenario.node[794].veinsmobility 	totalDistance 	146.31231689453
scalar IntersectionExampleScenario.node[794].veinsmobility 	totalCO2Emission 	43.762093692383
scalar IntersectionExampleScenario.node[795].appl 	VehicleRemoved 	0
scalar IntersectionExampleScenario.node[795].appl 	ArrivedAtDest 	0
scalar IntersectionExampleScenario.node[795].appl 	IntersectionEnterTime 	1792.5
scalar IntersectionExampleScenario.node[795].appl 	IntersectionExitTime 	-1
scalar IntersectionExampleScenario.node[795].appl 	NumberOfCollisions 	0
scalar IntersectionExampleScenario.node[795].nic.phy80211p 	busyTime 	0
scalar IntersectionExampleScenario.node[795].nic.mac1609_4 	ReceivedUnicastPackets 	0
scalar IntersectionExampleScenario.node[795].nic.mac1609_4 	ReceivedBroadcasts 	0
scalar IntersectionExampleScenario.node[795].nic.mac1609_4 	SentPackets 	0
scalar IntersectionExampleScenario.node[795].nic.mac1609_4 	SNIRLostPackets 	0
scalar IntersectionExampleScenario.node[795].nic.mac1609_4 	RXTXLostPackets 	0
scalar IntersectionExampleScenario.node[795].nic.mac1609_4 	TotalLostPackets 	0
scalar IntersectionExampleScenario.node[795].nic.mac1609_4 	DroppedPacketsInMac 	0
scalar IntersectionExampleScenario.node[795].nic.mac1609_4 	TooLittleTime 	0
scalar IntersectionExampleScenario.node[795].nic.mac1609_4 	TimesIntoBackoff 	0
scalar IntersectionExampleScenario.node[795].nic.mac1609_4 	SlotsBackoff 	0
scalar IntersectionExampleScenario.node[795].nic.mac1609_4 	NumInternalContention 	0
scalar IntersectionExampleScenario.node[795].nic.mac1609_4 	totalBusyTime 	0
scalar IntersectionExampleScenario.node[795].veinsmobility 	startTime 	1792.5
scalar IntersectionExampleScenario.node[795].veinsmobility 	totalTime 	7.5
scalar IntersectionExampleScenario.node[795].veinsmobility 	stopTime 	1800
scalar IntersectionExampleScenario.node[795].veinsmobility 	minSpeed 	5.6500000953674
scalar IntersectionExampleScenario.node[795].veinsmobility 	maxSpeed 	15.02499961853
scalar IntersectionExampleScenario.node[795].veinsmobility 	totalDistance 	92.453758239746
scalar IntersectionExampleScenario.node[795].veinsmobility 	totalCO2Emission 	37.835181521827
scalar IntersectionExampleScenario.node[796].appl 	VehicleRemoved 	0
scalar IntersectionExampleScenario.node[796].appl 	ArrivedAtDest 	0
scalar IntersectionExampleScenario.node[796].appl 	IntersectionEnterTime 	1795
scalar IntersectionExampleScenario.node[796].appl 	IntersectionExitTime 	-1
scalar IntersectionExampleScenario.node[796].appl 	NumberOfCollisions 	0
scalar IntersectionExampleScenario.node[796].nic.phy80211p 	busyTime 	0
scalar IntersectionExampleScenario.node[796].nic.mac1609_4 	ReceivedUnicastPackets 	0
scalar IntersectionExampleScenario.node[796].nic.mac1609_4 	ReceivedBroadcasts 	0
scalar IntersectionExampleScenario.node[796].nic.mac1609_4 	SentPackets 	0
scalar IntersectionExampleScenario.node[796].nic.mac1609_4 	SNIRLostPackets 	0
scalar IntersectionExampleScenario.node[796].nic.mac1609_4 	RXTXLostPackets 	0
scalar IntersectionExampleScenario.node[796].nic.mac1609_4 	TotalLostPackets 	0
scalar IntersectionExampleScenario.node[796].nic.mac1609_4 	DroppedPacketsInMac 	0
scalar IntersectionExampleScenario.node[796].nic.mac1609_4 	TooLittleTime 	0
scalar IntersectionExampleScenario.node[796].nic.mac1609_4 	TimesIntoBackoff 	0
scalar IntersectionExampleScenario.node[796].nic.mac1609_4 	SlotsBackoff 	0
scalar IntersectionExampleScenario.node[796].nic.mac1609_4 	NumInternalContention 	0
scalar IntersectionExampleScenario.node[796].nic.mac1609_4 	totalBusyTime 	0
scalar IntersectionExampleScenario.node[796].veinsmobility 	startTime 	1795
scalar IntersectionExampleScenario.node[796].veinsmobility 	totalTime 	5
scalar IntersectionExampleScenario.node[796].veinsmobility 	stopTime 	1800
scalar IntersectionExampleScenario.node[796].veinsmobility 	minSpeed 	5.6500000953674
scalar IntersectionExampleScenario.node[796].veinsmobility 	maxSpeed 	15.311780929565
scalar IntersectionExampleScenario.node[796].veinsmobility 	totalDistance 	55.268569946289
scalar IntersectionExampleScenario.node[796].veinsmobility 	totalCO2Emission 	33.86961157661
scalar IntersectionExampleScenario.node[797].appl 	VehicleRemoved 	0
scalar IntersectionExampleScenario.node[797].appl 	ArrivedAtDest 	0
scalar IntersectionExampleScenario.node[797].appl 	IntersectionEnterTime 	1797.75
scalar IntersectionExampleScenario.node[797].appl 	IntersectionExitTime 	-1
scalar IntersectionExampleScenario.node[797].appl 	NumberOfCollisions 	0
scalar IntersectionExampleScenario.node[797].nic.phy80211p 	busyTime 	0
scalar IntersectionExampleScenario.node[797].nic.mac1609_4 	ReceivedUnicastPackets 	0
scalar IntersectionExampleScenario.node[797].nic.mac1609_4 	ReceivedBroadcasts 	0
scalar IntersectionExampleScenario.node[797].nic.mac1609_4 	SentPackets 	0
scalar IntersectionExampleScenario.node[797].nic.mac1609_4 	SNIRLostPackets 	0
scalar IntersectionExampleScenario.node[797].nic.mac1609_4 	RXTXLostPackets 	0
scalar IntersectionExampleScenario.node[797].nic.mac1609_4 	TotalLostPackets 	0
scalar IntersectionExampleScenario.node[797].nic.mac1609_4 	DroppedPacketsInMac 	0
scalar IntersectionExampleScenario.node[797].nic.mac1609_4 	TooLittleTime 	0
scalar IntersectionExampleScenario.node[797].nic.mac1609_4 	TimesIntoBackoff 	0
scalar IntersectionExampleScenario.node[797].nic.mac1609_4 	SlotsBackoff 	0
scalar IntersectionExampleScenario.node[797].nic.mac1609_4 	NumInternalContention 	0
scalar IntersectionExampleScenario.node[797].nic.mac1609_4 	totalBusyTime 	0
scalar IntersectionExampleScenario.node[797].veinsmobility 	startTime 	1797.75
scalar IntersectionExampleScenario.node[797].veinsmobility 	totalTime 	2.25
scalar IntersectionExampleScenario.node[797].veinsmobility 	stopTime 	1800
scalar IntersectionExampleScenario.node[797].veinsmobility 	minSpeed 	5.6500000953674
scalar IntersectionExampleScenario.node[797].veinsmobility 	maxSpeed 	10.64999961853
scalar IntersectionExampleScenario.node[797].veinsmobility 	totalDistance 	17.634399414062
scalar IntersectionExampleScenario.node[797].veinsmobility 	totalCO2Emission 	13.355361796212
scalar IntersectionExampleScenario.node[798].appl 	VehicleRemoved 	0
scalar IntersectionExampleScenario.node[798].appl 	ArrivedAtDest 	0
scalar IntersectionExampleScenario.node[798].appl 	IntersectionEnterTime 	1799
scalar IntersectionExampleScenario.node[798].appl 	IntersectionExitTime 	-1
scalar IntersectionExampleScenario.node[798].appl 	NumberOfCollisions 	0
scalar IntersectionExampleScenario.node[798].nic.phy80211p 	busyTime 	0
scalar IntersectionExampleScenario.node[798].nic.mac1609_4 	ReceivedUnicastPackets 	0
scalar IntersectionExampleScenario.node[798].nic.mac1609_4 	ReceivedBroadcasts 	0
scalar IntersectionExampleScenario.node[798].nic.mac1609_4 	SentPackets 	0
scalar IntersectionExampleScenario.node[798].nic.mac1609_4 	SNIRLostPackets 	0
scalar IntersectionExampleScenario.node[798].nic.mac1609_4 	RXTXLostPackets 	0
scalar IntersectionExampleScenario.node[798].nic.mac1609_4 	TotalLostPackets 	0
scalar IntersectionExampleScenario.node[798].nic.mac1609_4 	DroppedPacketsInMac 	0
scalar IntersectionExampleScenario.node[798].nic.mac1609_4 	TooLittleTime 	0
scalar IntersectionExampleScenario.node[798].nic.mac1609_4 	TimesIntoBackoff 	0
scalar IntersectionExampleScenario.node[798].nic.mac1609_4 	SlotsBackoff 	0
scalar IntersectionExampleScenario.node[798].nic.mac1609_4 	NumInternalContention 	0
scalar IntersectionExampleScenario.node[798].nic.mac1609_4 	totalBusyTime 	0
scalar IntersectionExampleScenario.node[798].veinsmobility 	startTime 	1799
scalar IntersectionExampleScenario.node[798].veinsmobility 	totalTime 	1
scalar IntersectionExampleScenario.node[798].veinsmobility 	stopTime 	1800
scalar IntersectionExampleScenario.node[798].veinsmobility 	minSpeed 	5.6500000953674
scalar IntersectionExampleScenario.node[798].veinsmobility 	maxSpeed 	7.5250000953674
scalar IntersectionExampleScenario.node[798].veinsmobility 	totalDistance 	6.2749938964844
scalar IntersectionExampleScenario.node[798].veinsmobility 	totalCO2Emission 	4.2232135025359
