version 2
run nodebug-33-20200606-11:23:54-6208
attr configname nodebug
attr datetime 20200606-11:23:54
attr experiment nodebug
attr inifile omnetpp.ini
attr iterationvars ""
attr iterationvars2 $repetition=33
attr measurement ""
attr network "\"org.car2x.veins.modules.application.ExtTraCIScenarioManagerLaunchd.IntersectionExampleScenario\""
attr processid 6208
attr repetition 33
attr replication #33
attr resultdir results
attr runnumber 33
attr seedset 33
param **.coreDebug false
param **.debug false
param *.**.nic.mac1609_4.bitrate 18Mbps
param *.**.nic.mac1609_4.txPower 20mW
param *.**.nic.mac1609_4.useServiceChannel false
param *.**.nic.phy80211p.analogueModels "xmldoc(\"config.xml\")"
param *.**.nic.phy80211p.decider "xmldoc(\"config.xml\")"
param *.**.nic.phy80211p.sensitivity -89dBm
param *.**.nic.phy80211p.thermalNoise -110dBm
param *.**.nic.phy80211p.usePropagationDelay true
param *.**.nic.phy80211p.useThermalNoise true
param *.annotations.draw false
param *.connectionManager.alpha 2.0
param *.connectionManager.carrierFrequency "5.890e9 Hz"
param *.connectionManager.pMax 20mW
param *.connectionManager.sat -89dBm
param *.connectionManager.sendDirect true
param *.manager.autoShutdown true
param *.manager.host "\"localhost\""
param *.manager.launchConfig "xmldoc(\"paramics.launchd.xml\")"
param *.manager.margin 25
param *.manager.moduleDisplayString "\"\""
param *.manager.moduleName "\"node\""
param *.manager.moduleType "\"org.car2x.veins.nodes.Car\""
param *.manager.port 9999
param *.manager.updateInterval 250ms
param *.node[*0].veinsmobility.accidentCount 0
param *.node[*0].veinsmobility.accidentDuration 30s
param *.node[*0].veinsmobility.accidentStart 75s
param *.node[*].appl.LiderSelectZoneRadio 55.0
param *.node[*].appl.ShareDataZoneRadio 110.0
param *.node[*].appl.TiempoSemaforo 30.0
param *.node[*].appl.beaconInterval 1s
param *.node[*].appl.beaconPriority 3
param *.node[*].appl.dataOnSch false
param *.node[*].appl.dataPriority 2
param *.node[*].appl.debug false
param *.node[*].appl.headerLength "256 bit"
param *.node[*].appl.maxOffset 0.005s
param *.node[*].appl.sendBeacons false
param *.node[*].appl.sendData true
param *.node[*].applType "\"Dummy\""
param *.node[*].mobilityType "\"TraCIMobility\""
param *.node[*].mobilityType.debug true
param *.node[*].veinsmobility.x 0
param *.node[*].veinsmobility.y 0
param *.node[*].veinsmobility.z 1.895
param *.node[*].veinsmobilityType "\"org.car2x.veins.modules.mobility.traci.TraCIMobility\""
param *.node[*].veinsmobilityType.debug true
param *.playgroundSizeX 8500m
param *.playgroundSizeY 8500m
param *.playgroundSizeZ 50m
param *.world.use2D false
param *.world.useTorus false

scalar IntersectionExampleScenario.node[4].appl 	VehicleRemoved 	0
scalar IntersectionExampleScenario.node[4].appl 	ArrivedAtDest 	1
scalar IntersectionExampleScenario.node[4].appl 	IntersectionEnterTime 	7.25
scalar IntersectionExampleScenario.node[4].appl 	IntersectionExitTime 	30.306411432655
scalar IntersectionExampleScenario.node[4].appl 	NumberOfCollisions 	0
scalar IntersectionExampleScenario.node[4].nic.phy80211p 	busyTime 	0
scalar IntersectionExampleScenario.node[4].nic.mac1609_4 	ReceivedUnicastPackets 	0
scalar IntersectionExampleScenario.node[4].nic.mac1609_4 	ReceivedBroadcasts 	0
scalar IntersectionExampleScenario.node[4].nic.mac1609_4 	SentPackets 	0
scalar IntersectionExampleScenario.node[4].nic.mac1609_4 	SNIRLostPackets 	0
scalar IntersectionExampleScenario.node[4].nic.mac1609_4 	RXTXLostPackets 	0
scalar IntersectionExampleScenario.node[4].nic.mac1609_4 	TotalLostPackets 	0
scalar IntersectionExampleScenario.node[4].nic.mac1609_4 	DroppedPacketsInMac 	0
scalar IntersectionExampleScenario.node[4].nic.mac1609_4 	TooLittleTime 	0
scalar IntersectionExampleScenario.node[4].nic.mac1609_4 	TimesIntoBackoff 	0
scalar IntersectionExampleScenario.node[4].nic.mac1609_4 	SlotsBackoff 	0
scalar IntersectionExampleScenario.node[4].nic.mac1609_4 	NumInternalContention 	0
scalar IntersectionExampleScenario.node[4].nic.mac1609_4 	totalBusyTime 	0
scalar IntersectionExampleScenario.node[4].veinsmobility 	startTime 	7.25
scalar IntersectionExampleScenario.node[4].veinsmobility 	totalTime 	39.5
scalar IntersectionExampleScenario.node[4].veinsmobility 	stopTime 	47
scalar IntersectionExampleScenario.node[4].veinsmobility 	minSpeed 	5.6500000953674
scalar IntersectionExampleScenario.node[4].veinsmobility 	maxSpeed 	15.875
scalar IntersectionExampleScenario.node[4].veinsmobility 	totalDistance 	545.86126850731
scalar IntersectionExampleScenario.node[4].veinsmobility 	totalCO2Emission 	128.85763965315
scalar IntersectionExampleScenario.node[0].appl 	VehicleRemoved 	0
scalar IntersectionExampleScenario.node[0].appl 	ArrivedAtDest 	1
scalar IntersectionExampleScenario.node[0].appl 	IntersectionEnterTime 	1.75
scalar IntersectionExampleScenario.node[0].appl 	IntersectionExitTime 	35.282537461986
scalar IntersectionExampleScenario.node[0].appl 	NumberOfCollisions 	0
scalar IntersectionExampleScenario.node[0].nic.phy80211p 	busyTime 	0
scalar IntersectionExampleScenario.node[0].nic.mac1609_4 	ReceivedUnicastPackets 	0
scalar IntersectionExampleScenario.node[0].nic.mac1609_4 	ReceivedBroadcasts 	0
scalar IntersectionExampleScenario.node[0].nic.mac1609_4 	SentPackets 	0
scalar IntersectionExampleScenario.node[0].nic.mac1609_4 	SNIRLostPackets 	0
scalar IntersectionExampleScenario.node[0].nic.mac1609_4 	RXTXLostPackets 	0
scalar IntersectionExampleScenario.node[0].nic.mac1609_4 	TotalLostPackets 	0
scalar IntersectionExampleScenario.node[0].nic.mac1609_4 	DroppedPacketsInMac 	0
scalar IntersectionExampleScenario.node[0].nic.mac1609_4 	TooLittleTime 	0
scalar IntersectionExampleScenario.node[0].nic.mac1609_4 	TimesIntoBackoff 	0
scalar IntersectionExampleScenario.node[0].nic.mac1609_4 	SlotsBackoff 	0
scalar IntersectionExampleScenario.node[0].nic.mac1609_4 	NumInternalContention 	0
scalar IntersectionExampleScenario.node[0].nic.mac1609_4 	totalBusyTime 	0
scalar IntersectionExampleScenario.node[0].veinsmobility 	startTime 	1.75
scalar IntersectionExampleScenario.node[0].veinsmobility 	totalTime 	48.75
scalar IntersectionExampleScenario.node[0].veinsmobility 	stopTime 	50.75
scalar IntersectionExampleScenario.node[0].veinsmobility 	minSpeed 	0
scalar IntersectionExampleScenario.node[0].veinsmobility 	maxSpeed 	16.625
scalar IntersectionExampleScenario.node[0].veinsmobility 	totalDistance 	553.88192749023
scalar IntersectionExampleScenario.node[0].veinsmobility 	totalCO2Emission 	149.25412685658
scalar IntersectionExampleScenario.node[5].appl 	VehicleRemoved 	0
scalar IntersectionExampleScenario.node[5].appl 	ArrivedAtDest 	1
scalar IntersectionExampleScenario.node[5].appl 	IntersectionEnterTime 	14.25
scalar IntersectionExampleScenario.node[5].appl 	IntersectionExitTime 	36.767806101678
scalar IntersectionExampleScenario.node[5].appl 	NumberOfCollisions 	0
scalar IntersectionExampleScenario.node[5].nic.phy80211p 	busyTime 	0
scalar IntersectionExampleScenario.node[5].nic.mac1609_4 	ReceivedUnicastPackets 	0
scalar IntersectionExampleScenario.node[5].nic.mac1609_4 	ReceivedBroadcasts 	0
scalar IntersectionExampleScenario.node[5].nic.mac1609_4 	SentPackets 	0
scalar IntersectionExampleScenario.node[5].nic.mac1609_4 	SNIRLostPackets 	0
scalar IntersectionExampleScenario.node[5].nic.mac1609_4 	RXTXLostPackets 	0
scalar IntersectionExampleScenario.node[5].nic.mac1609_4 	TotalLostPackets 	0
scalar IntersectionExampleScenario.node[5].nic.mac1609_4 	DroppedPacketsInMac 	0
scalar IntersectionExampleScenario.node[5].nic.mac1609_4 	TooLittleTime 	0
scalar IntersectionExampleScenario.node[5].nic.mac1609_4 	TimesIntoBackoff 	0
scalar IntersectionExampleScenario.node[5].nic.mac1609_4 	SlotsBackoff 	0
scalar IntersectionExampleScenario.node[5].nic.mac1609_4 	NumInternalContention 	0
scalar IntersectionExampleScenario.node[5].nic.mac1609_4 	totalBusyTime 	0
scalar IntersectionExampleScenario.node[5].veinsmobility 	startTime 	14.25
scalar IntersectionExampleScenario.node[5].veinsmobility 	totalTime 	38
scalar IntersectionExampleScenario.node[5].veinsmobility 	stopTime 	52.5
scalar IntersectionExampleScenario.node[5].veinsmobility 	minSpeed 	5.6500000953674
scalar IntersectionExampleScenario.node[5].veinsmobility 	maxSpeed 	16.125
scalar IntersectionExampleScenario.node[5].veinsmobility 	totalDistance 	551.81308746338
scalar IntersectionExampleScenario.node[5].veinsmobility 	totalCO2Emission 	120.00663339302
scalar IntersectionExampleScenario.node[2].appl 	VehicleRemoved 	0
scalar IntersectionExampleScenario.node[2].appl 	ArrivedAtDest 	1
scalar IntersectionExampleScenario.node[2].appl 	IntersectionEnterTime 	6
scalar IntersectionExampleScenario.node[2].appl 	IntersectionExitTime 	37.299174841843
scalar IntersectionExampleScenario.node[2].appl 	NumberOfCollisions 	0
scalar IntersectionExampleScenario.node[2].nic.phy80211p 	busyTime 	0
scalar IntersectionExampleScenario.node[2].nic.mac1609_4 	ReceivedUnicastPackets 	0
scalar IntersectionExampleScenario.node[2].nic.mac1609_4 	ReceivedBroadcasts 	0
scalar IntersectionExampleScenario.node[2].nic.mac1609_4 	SentPackets 	0
scalar IntersectionExampleScenario.node[2].nic.mac1609_4 	SNIRLostPackets 	0
scalar IntersectionExampleScenario.node[2].nic.mac1609_4 	RXTXLostPackets 	0
scalar IntersectionExampleScenario.node[2].nic.mac1609_4 	TotalLostPackets 	0
scalar IntersectionExampleScenario.node[2].nic.mac1609_4 	DroppedPacketsInMac 	0
scalar IntersectionExampleScenario.node[2].nic.mac1609_4 	TooLittleTime 	0
scalar IntersectionExampleScenario.node[2].nic.mac1609_4 	TimesIntoBackoff 	0
scalar IntersectionExampleScenario.node[2].nic.mac1609_4 	SlotsBackoff 	0
scalar IntersectionExampleScenario.node[2].nic.mac1609_4 	NumInternalContention 	0
scalar IntersectionExampleScenario.node[2].nic.mac1609_4 	totalBusyTime 	0
scalar IntersectionExampleScenario.node[2].veinsmobility 	startTime 	6
scalar IntersectionExampleScenario.node[2].veinsmobility 	totalTime 	47.5
scalar IntersectionExampleScenario.node[2].veinsmobility 	stopTime 	53.75
scalar IntersectionExampleScenario.node[2].veinsmobility 	minSpeed 	1.7071359157562
scalar IntersectionExampleScenario.node[2].veinsmobility 	maxSpeed 	15.499543190002
scalar IntersectionExampleScenario.node[2].veinsmobility 	totalDistance 	558.7604675293
scalar IntersectionExampleScenario.node[2].veinsmobility 	totalCO2Emission 	135.34434956001
scalar IntersectionExampleScenario.node[6].appl 	VehicleRemoved 	0
scalar IntersectionExampleScenario.node[6].appl 	ArrivedAtDest 	1
scalar IntersectionExampleScenario.node[6].appl 	IntersectionEnterTime 	15.5
scalar IntersectionExampleScenario.node[6].appl 	IntersectionExitTime 	40.006967283203
scalar IntersectionExampleScenario.node[6].appl 	NumberOfCollisions 	0
scalar IntersectionExampleScenario.node[6].nic.phy80211p 	busyTime 	0
scalar IntersectionExampleScenario.node[6].nic.mac1609_4 	ReceivedUnicastPackets 	0
scalar IntersectionExampleScenario.node[6].nic.mac1609_4 	ReceivedBroadcasts 	0
scalar IntersectionExampleScenario.node[6].nic.mac1609_4 	SentPackets 	0
scalar IntersectionExampleScenario.node[6].nic.mac1609_4 	SNIRLostPackets 	0
scalar IntersectionExampleScenario.node[6].nic.mac1609_4 	RXTXLostPackets 	0
scalar IntersectionExampleScenario.node[6].nic.mac1609_4 	TotalLostPackets 	0
scalar IntersectionExampleScenario.node[6].nic.mac1609_4 	DroppedPacketsInMac 	0
scalar IntersectionExampleScenario.node[6].nic.mac1609_4 	TooLittleTime 	0
scalar IntersectionExampleScenario.node[6].nic.mac1609_4 	TimesIntoBackoff 	0
scalar IntersectionExampleScenario.node[6].nic.mac1609_4 	SlotsBackoff 	0
scalar IntersectionExampleScenario.node[6].nic.mac1609_4 	NumInternalContention 	0
scalar IntersectionExampleScenario.node[6].nic.mac1609_4 	totalBusyTime 	0
scalar IntersectionExampleScenario.node[6].veinsmobility 	startTime 	15.5
scalar IntersectionExampleScenario.node[6].veinsmobility 	totalTime 	40
scalar IntersectionExampleScenario.node[6].veinsmobility 	stopTime 	55.75
scalar IntersectionExampleScenario.node[6].veinsmobility 	minSpeed 	5.6500000953674
scalar IntersectionExampleScenario.node[6].veinsmobility 	maxSpeed 	16.27499961853
scalar IntersectionExampleScenario.node[6].veinsmobility 	totalDistance 	553.99377441406
scalar IntersectionExampleScenario.node[6].veinsmobility 	totalCO2Emission 	131.46760829129
scalar IntersectionExampleScenario.node[8].appl 	VehicleRemoved 	0
scalar IntersectionExampleScenario.node[8].appl 	ArrivedAtDest 	1
scalar IntersectionExampleScenario.node[8].appl 	IntersectionEnterTime 	18.25
scalar IntersectionExampleScenario.node[8].appl 	IntersectionExitTime 	41.759878787241
scalar IntersectionExampleScenario.node[8].appl 	NumberOfCollisions 	0
scalar IntersectionExampleScenario.node[8].nic.phy80211p 	busyTime 	0
scalar IntersectionExampleScenario.node[8].nic.mac1609_4 	ReceivedUnicastPackets 	0
scalar IntersectionExampleScenario.node[8].nic.mac1609_4 	ReceivedBroadcasts 	0
scalar IntersectionExampleScenario.node[8].nic.mac1609_4 	SentPackets 	0
scalar IntersectionExampleScenario.node[8].nic.mac1609_4 	SNIRLostPackets 	0
scalar IntersectionExampleScenario.node[8].nic.mac1609_4 	RXTXLostPackets 	0
scalar IntersectionExampleScenario.node[8].nic.mac1609_4 	TotalLostPackets 	0
scalar IntersectionExampleScenario.node[8].nic.mac1609_4 	DroppedPacketsInMac 	0
scalar IntersectionExampleScenario.node[8].nic.mac1609_4 	TooLittleTime 	0
scalar IntersectionExampleScenario.node[8].nic.mac1609_4 	TimesIntoBackoff 	0
scalar IntersectionExampleScenario.node[8].nic.mac1609_4 	SlotsBackoff 	0
scalar IntersectionExampleScenario.node[8].nic.mac1609_4 	NumInternalContention 	0
scalar IntersectionExampleScenario.node[8].nic.mac1609_4 	totalBusyTime 	0
scalar IntersectionExampleScenario.node[8].veinsmobility 	startTime 	18.25
scalar IntersectionExampleScenario.node[8].veinsmobility 	totalTime 	39.75
scalar IntersectionExampleScenario.node[8].veinsmobility 	stopTime 	58.25
scalar IntersectionExampleScenario.node[8].veinsmobility 	minSpeed 	5.6500000953674
scalar IntersectionExampleScenario.node[8].veinsmobility 	maxSpeed 	15.875
scalar IntersectionExampleScenario.node[8].veinsmobility 	totalDistance 	549.30952150523
scalar IntersectionExampleScenario.node[8].veinsmobility 	totalCO2Emission 	129.67778359551
scalar IntersectionExampleScenario.node[1].appl 	VehicleRemoved 	0
scalar IntersectionExampleScenario.node[1].appl 	ArrivedAtDest 	1
scalar IntersectionExampleScenario.node[1].appl 	IntersectionEnterTime 	4.5
scalar IntersectionExampleScenario.node[1].appl 	IntersectionExitTime 	45.369156503497
scalar IntersectionExampleScenario.node[1].appl 	NumberOfCollisions 	0
scalar IntersectionExampleScenario.node[1].nic.phy80211p 	busyTime 	0
scalar IntersectionExampleScenario.node[1].nic.mac1609_4 	ReceivedUnicastPackets 	0
scalar IntersectionExampleScenario.node[1].nic.mac1609_4 	ReceivedBroadcasts 	0
scalar IntersectionExampleScenario.node[1].nic.mac1609_4 	SentPackets 	0
scalar IntersectionExampleScenario.node[1].nic.mac1609_4 	SNIRLostPackets 	0
scalar IntersectionExampleScenario.node[1].nic.mac1609_4 	RXTXLostPackets 	0
scalar IntersectionExampleScenario.node[1].nic.mac1609_4 	TotalLostPackets 	0
scalar IntersectionExampleScenario.node[1].nic.mac1609_4 	DroppedPacketsInMac 	0
scalar IntersectionExampleScenario.node[1].nic.mac1609_4 	TooLittleTime 	0
scalar IntersectionExampleScenario.node[1].nic.mac1609_4 	TimesIntoBackoff 	0
scalar IntersectionExampleScenario.node[1].nic.mac1609_4 	SlotsBackoff 	0
scalar IntersectionExampleScenario.node[1].nic.mac1609_4 	NumInternalContention 	0
scalar IntersectionExampleScenario.node[1].nic.mac1609_4 	totalBusyTime 	0
scalar IntersectionExampleScenario.node[1].veinsmobility 	startTime 	4.5
scalar IntersectionExampleScenario.node[1].veinsmobility 	totalTime 	56.75
scalar IntersectionExampleScenario.node[1].veinsmobility 	stopTime 	61.5
scalar IntersectionExampleScenario.node[1].veinsmobility 	minSpeed 	0
scalar IntersectionExampleScenario.node[1].veinsmobility 	maxSpeed 	15.64999961853
scalar IntersectionExampleScenario.node[1].veinsmobility 	totalDistance 	553.04892730713
scalar IntersectionExampleScenario.node[1].veinsmobility 	totalCO2Emission 	149.41822809001
scalar IntersectionExampleScenario.node[3].appl 	VehicleRemoved 	0
scalar IntersectionExampleScenario.node[3].appl 	ArrivedAtDest 	1
scalar IntersectionExampleScenario.node[3].appl 	IntersectionEnterTime 	7.25
scalar IntersectionExampleScenario.node[3].appl 	IntersectionExitTime 	47.372895852197
scalar IntersectionExampleScenario.node[3].appl 	NumberOfCollisions 	0
scalar IntersectionExampleScenario.node[3].nic.phy80211p 	busyTime 	0
scalar IntersectionExampleScenario.node[3].nic.mac1609_4 	ReceivedUnicastPackets 	0
scalar IntersectionExampleScenario.node[3].nic.mac1609_4 	ReceivedBroadcasts 	0
scalar IntersectionExampleScenario.node[3].nic.mac1609_4 	SentPackets 	0
scalar IntersectionExampleScenario.node[3].nic.mac1609_4 	SNIRLostPackets 	0
scalar IntersectionExampleScenario.node[3].nic.mac1609_4 	RXTXLostPackets 	0
scalar IntersectionExampleScenario.node[3].nic.mac1609_4 	TotalLostPackets 	0
scalar IntersectionExampleScenario.node[3].nic.mac1609_4 	DroppedPacketsInMac 	0
scalar IntersectionExampleScenario.node[3].nic.mac1609_4 	TooLittleTime 	0
scalar IntersectionExampleScenario.node[3].nic.mac1609_4 	TimesIntoBackoff 	0
scalar IntersectionExampleScenario.node[3].nic.mac1609_4 	SlotsBackoff 	0
scalar IntersectionExampleScenario.node[3].nic.mac1609_4 	NumInternalContention 	0
scalar IntersectionExampleScenario.node[3].nic.mac1609_4 	totalBusyTime 	0
scalar IntersectionExampleScenario.node[3].veinsmobility 	startTime 	7.25
scalar IntersectionExampleScenario.node[3].veinsmobility 	totalTime 	56.25
scalar IntersectionExampleScenario.node[3].veinsmobility 	stopTime 	63.75
scalar IntersectionExampleScenario.node[3].veinsmobility 	minSpeed 	0
scalar IntersectionExampleScenario.node[3].veinsmobility 	maxSpeed 	15.102987289429
scalar IntersectionExampleScenario.node[3].veinsmobility 	totalDistance 	568.66061401367
scalar IntersectionExampleScenario.node[3].veinsmobility 	totalCO2Emission 	147.28493449576
scalar IntersectionExampleScenario.node[9].appl 	VehicleRemoved 	0
scalar IntersectionExampleScenario.node[9].appl 	ArrivedAtDest 	1
scalar IntersectionExampleScenario.node[9].appl 	IntersectionEnterTime 	19.25
scalar IntersectionExampleScenario.node[9].appl 	IntersectionExitTime 	49.105076060863
scalar IntersectionExampleScenario.node[9].appl 	NumberOfCollisions 	0
scalar IntersectionExampleScenario.node[9].nic.phy80211p 	busyTime 	0
scalar IntersectionExampleScenario.node[9].nic.mac1609_4 	ReceivedUnicastPackets 	0
scalar IntersectionExampleScenario.node[9].nic.mac1609_4 	ReceivedBroadcasts 	0
scalar IntersectionExampleScenario.node[9].nic.mac1609_4 	SentPackets 	0
scalar IntersectionExampleScenario.node[9].nic.mac1609_4 	SNIRLostPackets 	0
scalar IntersectionExampleScenario.node[9].nic.mac1609_4 	RXTXLostPackets 	0
scalar IntersectionExampleScenario.node[9].nic.mac1609_4 	TotalLostPackets 	0
scalar IntersectionExampleScenario.node[9].nic.mac1609_4 	DroppedPacketsInMac 	0
scalar IntersectionExampleScenario.node[9].nic.mac1609_4 	TooLittleTime 	0
scalar IntersectionExampleScenario.node[9].nic.mac1609_4 	TimesIntoBackoff 	0
scalar IntersectionExampleScenario.node[9].nic.mac1609_4 	SlotsBackoff 	0
scalar IntersectionExampleScenario.node[9].nic.mac1609_4 	NumInternalContention 	0
scalar IntersectionExampleScenario.node[9].nic.mac1609_4 	totalBusyTime 	0
scalar IntersectionExampleScenario.node[9].veinsmobility 	startTime 	19.25
scalar IntersectionExampleScenario.node[9].veinsmobility 	totalTime 	45.25
scalar IntersectionExampleScenario.node[9].veinsmobility 	stopTime 	64.75
scalar IntersectionExampleScenario.node[9].veinsmobility 	minSpeed 	3.5247957706451
scalar IntersectionExampleScenario.node[9].veinsmobility 	maxSpeed 	16.27499961853
scalar IntersectionExampleScenario.node[9].veinsmobility 	totalDistance 	551.01975250244
scalar IntersectionExampleScenario.node[9].veinsmobility 	totalCO2Emission 	140.94799654579
scalar IntersectionExampleScenario.node[12].appl 	VehicleRemoved 	0
scalar IntersectionExampleScenario.node[12].appl 	ArrivedAtDest 	1
scalar IntersectionExampleScenario.node[12].appl 	IntersectionEnterTime 	24.5
scalar IntersectionExampleScenario.node[12].appl 	IntersectionExitTime 	50.848772499274
scalar IntersectionExampleScenario.node[12].appl 	NumberOfCollisions 	0
scalar IntersectionExampleScenario.node[12].nic.phy80211p 	busyTime 	0
scalar IntersectionExampleScenario.node[12].nic.mac1609_4 	ReceivedUnicastPackets 	0
scalar IntersectionExampleScenario.node[12].nic.mac1609_4 	ReceivedBroadcasts 	0
scalar IntersectionExampleScenario.node[12].nic.mac1609_4 	SentPackets 	0
scalar IntersectionExampleScenario.node[12].nic.mac1609_4 	SNIRLostPackets 	0
scalar IntersectionExampleScenario.node[12].nic.mac1609_4 	RXTXLostPackets 	0
scalar IntersectionExampleScenario.node[12].nic.mac1609_4 	TotalLostPackets 	0
scalar IntersectionExampleScenario.node[12].nic.mac1609_4 	DroppedPacketsInMac 	0
scalar IntersectionExampleScenario.node[12].nic.mac1609_4 	TooLittleTime 	0
scalar IntersectionExampleScenario.node[12].nic.mac1609_4 	TimesIntoBackoff 	0
scalar IntersectionExampleScenario.node[12].nic.mac1609_4 	SlotsBackoff 	0
scalar IntersectionExampleScenario.node[12].nic.mac1609_4 	NumInternalContention 	0
scalar IntersectionExampleScenario.node[12].nic.mac1609_4 	totalBusyTime 	0
scalar IntersectionExampleScenario.node[12].veinsmobility 	startTime 	24.5
scalar IntersectionExampleScenario.node[12].veinsmobility 	totalTime 	42.5
scalar IntersectionExampleScenario.node[12].veinsmobility 	stopTime 	67.25
scalar IntersectionExampleScenario.node[12].veinsmobility 	minSpeed 	5.6500000953674
scalar IntersectionExampleScenario.node[12].veinsmobility 	maxSpeed 	16.5
scalar IntersectionExampleScenario.node[12].veinsmobility 	totalDistance 	546.38081705545
scalar IntersectionExampleScenario.node[12].veinsmobility 	totalCO2Emission 	137.98679137304
scalar IntersectionExampleScenario.node[7].appl 	VehicleRemoved 	0
scalar IntersectionExampleScenario.node[7].appl 	ArrivedAtDest 	1
scalar IntersectionExampleScenario.node[7].appl 	IntersectionEnterTime 	17.25
scalar IntersectionExampleScenario.node[7].appl 	IntersectionExitTime 	55.852696181944
scalar IntersectionExampleScenario.node[7].appl 	NumberOfCollisions 	0
scalar IntersectionExampleScenario.node[7].nic.phy80211p 	busyTime 	0
scalar IntersectionExampleScenario.node[7].nic.mac1609_4 	ReceivedUnicastPackets 	0
scalar IntersectionExampleScenario.node[7].nic.mac1609_4 	ReceivedBroadcasts 	0
scalar IntersectionExampleScenario.node[7].nic.mac1609_4 	SentPackets 	0
scalar IntersectionExampleScenario.node[7].nic.mac1609_4 	SNIRLostPackets 	0
scalar IntersectionExampleScenario.node[7].nic.mac1609_4 	RXTXLostPackets 	0
scalar IntersectionExampleScenario.node[7].nic.mac1609_4 	TotalLostPackets 	0
scalar IntersectionExampleScenario.node[7].nic.mac1609_4 	DroppedPacketsInMac 	0
scalar IntersectionExampleScenario.node[7].nic.mac1609_4 	TooLittleTime 	0
scalar IntersectionExampleScenario.node[7].nic.mac1609_4 	TimesIntoBackoff 	0
scalar IntersectionExampleScenario.node[7].nic.mac1609_4 	SlotsBackoff 	0
scalar IntersectionExampleScenario.node[7].nic.mac1609_4 	NumInternalContention 	0
scalar IntersectionExampleScenario.node[7].nic.mac1609_4 	totalBusyTime 	0
scalar IntersectionExampleScenario.node[7].veinsmobility 	startTime 	17.25
scalar IntersectionExampleScenario.node[7].veinsmobility 	totalTime 	54.75
scalar IntersectionExampleScenario.node[7].veinsmobility 	stopTime 	72.25
scalar IntersectionExampleScenario.node[7].veinsmobility 	minSpeed 	0
scalar IntersectionExampleScenario.node[7].veinsmobility 	maxSpeed 	15.64999961853
scalar IntersectionExampleScenario.node[7].veinsmobility 	totalDistance 	550.89402132463
scalar IntersectionExampleScenario.node[7].veinsmobility 	totalCO2Emission 	146.96113245
scalar IntersectionExampleScenario.node[13].appl 	VehicleRemoved 	0
scalar IntersectionExampleScenario.node[13].appl 	ArrivedAtDest 	1
scalar IntersectionExampleScenario.node[13].appl 	IntersectionEnterTime 	26.5
scalar IntersectionExampleScenario.node[13].appl 	IntersectionExitTime 	58.270752886165
scalar IntersectionExampleScenario.node[13].appl 	NumberOfCollisions 	0
scalar IntersectionExampleScenario.node[13].nic.phy80211p 	busyTime 	0
scalar IntersectionExampleScenario.node[13].nic.mac1609_4 	ReceivedUnicastPackets 	0
scalar IntersectionExampleScenario.node[13].nic.mac1609_4 	ReceivedBroadcasts 	0
scalar IntersectionExampleScenario.node[13].nic.mac1609_4 	SentPackets 	0
scalar IntersectionExampleScenario.node[13].nic.mac1609_4 	SNIRLostPackets 	0
scalar IntersectionExampleScenario.node[13].nic.mac1609_4 	RXTXLostPackets 	0
scalar IntersectionExampleScenario.node[13].nic.mac1609_4 	TotalLostPackets 	0
scalar IntersectionExampleScenario.node[13].nic.mac1609_4 	DroppedPacketsInMac 	0
scalar IntersectionExampleScenario.node[13].nic.mac1609_4 	TooLittleTime 	0
scalar IntersectionExampleScenario.node[13].nic.mac1609_4 	TimesIntoBackoff 	0
scalar IntersectionExampleScenario.node[13].nic.mac1609_4 	SlotsBackoff 	0
scalar IntersectionExampleScenario.node[13].nic.mac1609_4 	NumInternalContention 	0
scalar IntersectionExampleScenario.node[13].nic.mac1609_4 	totalBusyTime 	0
scalar IntersectionExampleScenario.node[13].veinsmobility 	startTime 	26.5
scalar IntersectionExampleScenario.node[13].veinsmobility 	totalTime 	48
scalar IntersectionExampleScenario.node[13].veinsmobility 	stopTime 	74.75
scalar IntersectionExampleScenario.node[13].veinsmobility 	minSpeed 	2.0961019992828
scalar IntersectionExampleScenario.node[13].veinsmobility 	maxSpeed 	15.64999961853
scalar IntersectionExampleScenario.node[13].veinsmobility 	totalDistance 	550.03845399355
scalar IntersectionExampleScenario.node[13].veinsmobility 	totalCO2Emission 	136.67713549246
scalar IntersectionExampleScenario.node[18].appl 	VehicleRemoved 	0
scalar IntersectionExampleScenario.node[18].appl 	ArrivedAtDest 	1
scalar IntersectionExampleScenario.node[18].appl 	IntersectionEnterTime 	33.75
scalar IntersectionExampleScenario.node[18].appl 	IntersectionExitTime 	60.799572657532
scalar IntersectionExampleScenario.node[18].appl 	NumberOfCollisions 	0
scalar IntersectionExampleScenario.node[18].nic.phy80211p 	busyTime 	0
scalar IntersectionExampleScenario.node[18].nic.mac1609_4 	ReceivedUnicastPackets 	0
scalar IntersectionExampleScenario.node[18].nic.mac1609_4 	ReceivedBroadcasts 	0
scalar IntersectionExampleScenario.node[18].nic.mac1609_4 	SentPackets 	0
scalar IntersectionExampleScenario.node[18].nic.mac1609_4 	SNIRLostPackets 	0
scalar IntersectionExampleScenario.node[18].nic.mac1609_4 	RXTXLostPackets 	0
scalar IntersectionExampleScenario.node[18].nic.mac1609_4 	TotalLostPackets 	0
scalar IntersectionExampleScenario.node[18].nic.mac1609_4 	DroppedPacketsInMac 	0
scalar IntersectionExampleScenario.node[18].nic.mac1609_4 	TooLittleTime 	0
scalar IntersectionExampleScenario.node[18].nic.mac1609_4 	TimesIntoBackoff 	0
scalar IntersectionExampleScenario.node[18].nic.mac1609_4 	SlotsBackoff 	0
scalar IntersectionExampleScenario.node[18].nic.mac1609_4 	NumInternalContention 	0
scalar IntersectionExampleScenario.node[18].nic.mac1609_4 	totalBusyTime 	0
scalar IntersectionExampleScenario.node[18].veinsmobility 	startTime 	33.75
scalar IntersectionExampleScenario.node[18].veinsmobility 	totalTime 	43.25
scalar IntersectionExampleScenario.node[18].veinsmobility 	stopTime 	77.25
scalar IntersectionExampleScenario.node[18].veinsmobility 	minSpeed 	5.6500000953674
scalar IntersectionExampleScenario.node[18].veinsmobility 	maxSpeed 	15.875
scalar IntersectionExampleScenario.node[18].veinsmobility 	totalDistance 	544.0324451516
scalar IntersectionExampleScenario.node[18].veinsmobility 	totalCO2Emission 	143.49137122149
scalar IntersectionExampleScenario.node[11].appl 	VehicleRemoved 	0
scalar IntersectionExampleScenario.node[11].appl 	ArrivedAtDest 	1
scalar IntersectionExampleScenario.node[11].appl 	IntersectionEnterTime 	24
scalar IntersectionExampleScenario.node[11].appl 	IntersectionExitTime 	65.559429088433
scalar IntersectionExampleScenario.node[11].appl 	NumberOfCollisions 	0
scalar IntersectionExampleScenario.node[11].nic.phy80211p 	busyTime 	0
scalar IntersectionExampleScenario.node[11].nic.mac1609_4 	ReceivedUnicastPackets 	0
scalar IntersectionExampleScenario.node[11].nic.mac1609_4 	ReceivedBroadcasts 	0
scalar IntersectionExampleScenario.node[11].nic.mac1609_4 	SentPackets 	0
scalar IntersectionExampleScenario.node[11].nic.mac1609_4 	SNIRLostPackets 	0
scalar IntersectionExampleScenario.node[11].nic.mac1609_4 	RXTXLostPackets 	0
scalar IntersectionExampleScenario.node[11].nic.mac1609_4 	TotalLostPackets 	0
scalar IntersectionExampleScenario.node[11].nic.mac1609_4 	DroppedPacketsInMac 	0
scalar IntersectionExampleScenario.node[11].nic.mac1609_4 	TooLittleTime 	0
scalar IntersectionExampleScenario.node[11].nic.mac1609_4 	TimesIntoBackoff 	0
scalar IntersectionExampleScenario.node[11].nic.mac1609_4 	SlotsBackoff 	0
scalar IntersectionExampleScenario.node[11].nic.mac1609_4 	NumInternalContention 	0
scalar IntersectionExampleScenario.node[11].nic.mac1609_4 	totalBusyTime 	0
scalar IntersectionExampleScenario.node[11].veinsmobility 	startTime 	24
scalar IntersectionExampleScenario.node[11].veinsmobility 	totalTime 	57.75
scalar IntersectionExampleScenario.node[11].veinsmobility 	stopTime 	82
scalar IntersectionExampleScenario.node[11].veinsmobility 	minSpeed 	0
scalar IntersectionExampleScenario.node[11].veinsmobility 	maxSpeed 	16.5
scalar IntersectionExampleScenario.node[11].veinsmobility 	totalDistance 	546.1083135739
scalar IntersectionExampleScenario.node[11].veinsmobility 	totalCO2Emission 	155.69923286406
scalar IntersectionExampleScenario.node[10].appl 	VehicleRemoved 	0
scalar IntersectionExampleScenario.node[10].appl 	ArrivedAtDest 	1
scalar IntersectionExampleScenario.node[10].appl 	IntersectionEnterTime 	22.75
scalar IntersectionExampleScenario.node[10].appl 	IntersectionExitTime 	65.509497504536
scalar IntersectionExampleScenario.node[10].appl 	NumberOfCollisions 	0
scalar IntersectionExampleScenario.node[10].nic.phy80211p 	busyTime 	0
scalar IntersectionExampleScenario.node[10].nic.mac1609_4 	ReceivedUnicastPackets 	0
scalar IntersectionExampleScenario.node[10].nic.mac1609_4 	ReceivedBroadcasts 	0
scalar IntersectionExampleScenario.node[10].nic.mac1609_4 	SentPackets 	0
scalar IntersectionExampleScenario.node[10].nic.mac1609_4 	SNIRLostPackets 	0
scalar IntersectionExampleScenario.node[10].nic.mac1609_4 	RXTXLostPackets 	0
scalar IntersectionExampleScenario.node[10].nic.mac1609_4 	TotalLostPackets 	0
scalar IntersectionExampleScenario.node[10].nic.mac1609_4 	DroppedPacketsInMac 	0
scalar IntersectionExampleScenario.node[10].nic.mac1609_4 	TooLittleTime 	0
scalar IntersectionExampleScenario.node[10].nic.mac1609_4 	TimesIntoBackoff 	0
scalar IntersectionExampleScenario.node[10].nic.mac1609_4 	SlotsBackoff 	0
scalar IntersectionExampleScenario.node[10].nic.mac1609_4 	NumInternalContention 	0
scalar IntersectionExampleScenario.node[10].nic.mac1609_4 	totalBusyTime 	0
scalar IntersectionExampleScenario.node[10].veinsmobility 	startTime 	22.75
scalar IntersectionExampleScenario.node[10].veinsmobility 	totalTime 	59
scalar IntersectionExampleScenario.node[10].veinsmobility 	stopTime 	82
scalar IntersectionExampleScenario.node[10].veinsmobility 	minSpeed 	0
scalar IntersectionExampleScenario.node[10].veinsmobility 	maxSpeed 	16.27499961853
scalar IntersectionExampleScenario.node[10].veinsmobility 	totalDistance 	547.98232175261
scalar IntersectionExampleScenario.node[10].veinsmobility 	totalCO2Emission 	156.83565881508
scalar IntersectionExampleScenario.node[17].appl 	VehicleRemoved 	0
scalar IntersectionExampleScenario.node[17].appl 	ArrivedAtDest 	1
scalar IntersectionExampleScenario.node[17].appl 	IntersectionEnterTime 	32.5
scalar IntersectionExampleScenario.node[17].appl 	IntersectionExitTime 	67.840731412027
scalar IntersectionExampleScenario.node[17].appl 	NumberOfCollisions 	0
scalar IntersectionExampleScenario.node[17].nic.phy80211p 	busyTime 	0
scalar IntersectionExampleScenario.node[17].nic.mac1609_4 	ReceivedUnicastPackets 	0
scalar IntersectionExampleScenario.node[17].nic.mac1609_4 	ReceivedBroadcasts 	0
scalar IntersectionExampleScenario.node[17].nic.mac1609_4 	SentPackets 	0
scalar IntersectionExampleScenario.node[17].nic.mac1609_4 	SNIRLostPackets 	0
scalar IntersectionExampleScenario.node[17].nic.mac1609_4 	RXTXLostPackets 	0
scalar IntersectionExampleScenario.node[17].nic.mac1609_4 	TotalLostPackets 	0
scalar IntersectionExampleScenario.node[17].nic.mac1609_4 	DroppedPacketsInMac 	0
scalar IntersectionExampleScenario.node[17].nic.mac1609_4 	TooLittleTime 	0
scalar IntersectionExampleScenario.node[17].nic.mac1609_4 	TimesIntoBackoff 	0
scalar IntersectionExampleScenario.node[17].nic.mac1609_4 	SlotsBackoff 	0
scalar IntersectionExampleScenario.node[17].nic.mac1609_4 	NumInternalContention 	0
scalar IntersectionExampleScenario.node[17].nic.mac1609_4 	totalBusyTime 	0
scalar IntersectionExampleScenario.node[17].veinsmobility 	startTime 	32.5
scalar IntersectionExampleScenario.node[17].veinsmobility 	totalTime 	51.5
scalar IntersectionExampleScenario.node[17].veinsmobility 	stopTime 	84.25
scalar IntersectionExampleScenario.node[17].veinsmobility 	minSpeed 	0
scalar IntersectionExampleScenario.node[17].veinsmobility 	maxSpeed 	15.663961410522
scalar IntersectionExampleScenario.node[17].veinsmobility 	totalDistance 	551.38100672692
scalar IntersectionExampleScenario.node[17].veinsmobility 	totalCO2Emission 	141.368292567
scalar IntersectionExampleScenario.node[20].appl 	VehicleRemoved 	0
scalar IntersectionExampleScenario.node[20].appl 	ArrivedAtDest 	1
scalar IntersectionExampleScenario.node[20].appl 	IntersectionEnterTime 	40
scalar IntersectionExampleScenario.node[20].appl 	IntersectionExitTime 	69.056555692165
scalar IntersectionExampleScenario.node[20].appl 	NumberOfCollisions 	0
scalar IntersectionExampleScenario.node[20].nic.phy80211p 	busyTime 	0
scalar IntersectionExampleScenario.node[20].nic.mac1609_4 	ReceivedUnicastPackets 	0
scalar IntersectionExampleScenario.node[20].nic.mac1609_4 	ReceivedBroadcasts 	0
scalar IntersectionExampleScenario.node[20].nic.mac1609_4 	SentPackets 	0
scalar IntersectionExampleScenario.node[20].nic.mac1609_4 	SNIRLostPackets 	0
scalar IntersectionExampleScenario.node[20].nic.mac1609_4 	RXTXLostPackets 	0
scalar IntersectionExampleScenario.node[20].nic.mac1609_4 	TotalLostPackets 	0
scalar IntersectionExampleScenario.node[20].nic.mac1609_4 	DroppedPacketsInMac 	0
scalar IntersectionExampleScenario.node[20].nic.mac1609_4 	TooLittleTime 	0
scalar IntersectionExampleScenario.node[20].nic.mac1609_4 	TimesIntoBackoff 	0
scalar IntersectionExampleScenario.node[20].nic.mac1609_4 	SlotsBackoff 	0
scalar IntersectionExampleScenario.node[20].nic.mac1609_4 	NumInternalContention 	0
scalar IntersectionExampleScenario.node[20].nic.mac1609_4 	totalBusyTime 	0
scalar IntersectionExampleScenario.node[20].veinsmobility 	startTime 	40
scalar IntersectionExampleScenario.node[20].veinsmobility 	totalTime 	45.75
scalar IntersectionExampleScenario.node[20].veinsmobility 	stopTime 	86
scalar IntersectionExampleScenario.node[20].veinsmobility 	minSpeed 	4.8509283065796
scalar IntersectionExampleScenario.node[20].veinsmobility 	maxSpeed 	15.02499961853
scalar IntersectionExampleScenario.node[20].veinsmobility 	totalDistance 	553.95389556885
scalar IntersectionExampleScenario.node[20].veinsmobility 	totalCO2Emission 	130.93722863676
scalar IntersectionExampleScenario.node[15].appl 	VehicleRemoved 	0
scalar IntersectionExampleScenario.node[15].appl 	ArrivedAtDest 	1
scalar IntersectionExampleScenario.node[15].appl 	IntersectionEnterTime 	27.5
scalar IntersectionExampleScenario.node[15].appl 	IntersectionExitTime 	70.363726435462
scalar IntersectionExampleScenario.node[15].appl 	NumberOfCollisions 	0
scalar IntersectionExampleScenario.node[15].nic.phy80211p 	busyTime 	0
scalar IntersectionExampleScenario.node[15].nic.mac1609_4 	ReceivedUnicastPackets 	0
scalar IntersectionExampleScenario.node[15].nic.mac1609_4 	ReceivedBroadcasts 	0
scalar IntersectionExampleScenario.node[15].nic.mac1609_4 	SentPackets 	0
scalar IntersectionExampleScenario.node[15].nic.mac1609_4 	SNIRLostPackets 	0
scalar IntersectionExampleScenario.node[15].nic.mac1609_4 	RXTXLostPackets 	0
scalar IntersectionExampleScenario.node[15].nic.mac1609_4 	TotalLostPackets 	0
scalar IntersectionExampleScenario.node[15].nic.mac1609_4 	DroppedPacketsInMac 	0
scalar IntersectionExampleScenario.node[15].nic.mac1609_4 	TooLittleTime 	0
scalar IntersectionExampleScenario.node[15].nic.mac1609_4 	TimesIntoBackoff 	0
scalar IntersectionExampleScenario.node[15].nic.mac1609_4 	SlotsBackoff 	0
scalar IntersectionExampleScenario.node[15].nic.mac1609_4 	NumInternalContention 	0
scalar IntersectionExampleScenario.node[15].nic.mac1609_4 	totalBusyTime 	0
scalar IntersectionExampleScenario.node[15].veinsmobility 	startTime 	27.5
scalar IntersectionExampleScenario.node[15].veinsmobility 	totalTime 	58.5
scalar IntersectionExampleScenario.node[15].veinsmobility 	stopTime 	86.25
scalar IntersectionExampleScenario.node[15].veinsmobility 	minSpeed 	0
scalar IntersectionExampleScenario.node[15].veinsmobility 	maxSpeed 	16.27499961853
scalar IntersectionExampleScenario.node[15].veinsmobility 	totalDistance 	533.27114193332
scalar IntersectionExampleScenario.node[15].veinsmobility 	totalCO2Emission 	162.3735397299
scalar IntersectionExampleScenario.node[14].appl 	VehicleRemoved 	0
scalar IntersectionExampleScenario.node[14].appl 	ArrivedAtDest 	1
scalar IntersectionExampleScenario.node[14].appl 	IntersectionEnterTime 	27.25
scalar IntersectionExampleScenario.node[14].appl 	IntersectionExitTime 	70.871016714053
scalar IntersectionExampleScenario.node[14].appl 	NumberOfCollisions 	0
scalar IntersectionExampleScenario.node[14].nic.phy80211p 	busyTime 	0
scalar IntersectionExampleScenario.node[14].nic.mac1609_4 	ReceivedUnicastPackets 	0
scalar IntersectionExampleScenario.node[14].nic.mac1609_4 	ReceivedBroadcasts 	0
scalar IntersectionExampleScenario.node[14].nic.mac1609_4 	SentPackets 	0
scalar IntersectionExampleScenario.node[14].nic.mac1609_4 	SNIRLostPackets 	0
scalar IntersectionExampleScenario.node[14].nic.mac1609_4 	RXTXLostPackets 	0
scalar IntersectionExampleScenario.node[14].nic.mac1609_4 	TotalLostPackets 	0
scalar IntersectionExampleScenario.node[14].nic.mac1609_4 	DroppedPacketsInMac 	0
scalar IntersectionExampleScenario.node[14].nic.mac1609_4 	TooLittleTime 	0
scalar IntersectionExampleScenario.node[14].nic.mac1609_4 	TimesIntoBackoff 	0
scalar IntersectionExampleScenario.node[14].nic.mac1609_4 	SlotsBackoff 	0
scalar IntersectionExampleScenario.node[14].nic.mac1609_4 	NumInternalContention 	0
scalar IntersectionExampleScenario.node[14].nic.mac1609_4 	totalBusyTime 	0
scalar IntersectionExampleScenario.node[14].veinsmobility 	startTime 	27.25
scalar IntersectionExampleScenario.node[14].veinsmobility 	totalTime 	59.5
scalar IntersectionExampleScenario.node[14].veinsmobility 	stopTime 	87
scalar IntersectionExampleScenario.node[14].veinsmobility 	minSpeed 	0
scalar IntersectionExampleScenario.node[14].veinsmobility 	maxSpeed 	15.5
scalar IntersectionExampleScenario.node[14].veinsmobility 	totalDistance 	564.02310180664
scalar IntersectionExampleScenario.node[14].veinsmobility 	totalCO2Emission 	153.19107332031
scalar IntersectionExampleScenario.node[27].appl 	VehicleRemoved 	0
scalar IntersectionExampleScenario.node[27].appl 	ArrivedAtDest 	1
scalar IntersectionExampleScenario.node[27].appl 	IntersectionEnterTime 	47.75
scalar IntersectionExampleScenario.node[27].appl 	IntersectionExitTime 	71.600766259478
scalar IntersectionExampleScenario.node[27].appl 	NumberOfCollisions 	0
scalar IntersectionExampleScenario.node[27].nic.phy80211p 	busyTime 	0
scalar IntersectionExampleScenario.node[27].nic.mac1609_4 	ReceivedUnicastPackets 	0
scalar IntersectionExampleScenario.node[27].nic.mac1609_4 	ReceivedBroadcasts 	0
scalar IntersectionExampleScenario.node[27].nic.mac1609_4 	SentPackets 	0
scalar IntersectionExampleScenario.node[27].nic.mac1609_4 	SNIRLostPackets 	0
scalar IntersectionExampleScenario.node[27].nic.mac1609_4 	RXTXLostPackets 	0
scalar IntersectionExampleScenario.node[27].nic.mac1609_4 	TotalLostPackets 	0
scalar IntersectionExampleScenario.node[27].nic.mac1609_4 	DroppedPacketsInMac 	0
scalar IntersectionExampleScenario.node[27].nic.mac1609_4 	TooLittleTime 	0
scalar IntersectionExampleScenario.node[27].nic.mac1609_4 	TimesIntoBackoff 	0
scalar IntersectionExampleScenario.node[27].nic.mac1609_4 	SlotsBackoff 	0
scalar IntersectionExampleScenario.node[27].nic.mac1609_4 	NumInternalContention 	0
scalar IntersectionExampleScenario.node[27].nic.mac1609_4 	totalBusyTime 	0
scalar IntersectionExampleScenario.node[27].veinsmobility 	startTime 	47.75
scalar IntersectionExampleScenario.node[27].veinsmobility 	totalTime 	40
scalar IntersectionExampleScenario.node[27].veinsmobility 	stopTime 	88
scalar IntersectionExampleScenario.node[27].veinsmobility 	minSpeed 	5.6500000953674
scalar IntersectionExampleScenario.node[27].veinsmobility 	maxSpeed 	15.875
scalar IntersectionExampleScenario.node[27].veinsmobility 	totalDistance 	516.26984678807
scalar IntersectionExampleScenario.node[27].veinsmobility 	totalCO2Emission 	131.45302086543
scalar IntersectionExampleScenario.node[25].appl 	VehicleRemoved 	0
scalar IntersectionExampleScenario.node[25].appl 	ArrivedAtDest 	1
scalar IntersectionExampleScenario.node[25].appl 	IntersectionEnterTime 	46.5
scalar IntersectionExampleScenario.node[25].appl 	IntersectionExitTime 	73.055445060309
scalar IntersectionExampleScenario.node[25].appl 	NumberOfCollisions 	0
scalar IntersectionExampleScenario.node[25].nic.phy80211p 	busyTime 	0
scalar IntersectionExampleScenario.node[25].nic.mac1609_4 	ReceivedUnicastPackets 	0
scalar IntersectionExampleScenario.node[25].nic.mac1609_4 	ReceivedBroadcasts 	0
scalar IntersectionExampleScenario.node[25].nic.mac1609_4 	SentPackets 	0
scalar IntersectionExampleScenario.node[25].nic.mac1609_4 	SNIRLostPackets 	0
scalar IntersectionExampleScenario.node[25].nic.mac1609_4 	RXTXLostPackets 	0
scalar IntersectionExampleScenario.node[25].nic.mac1609_4 	TotalLostPackets 	0
scalar IntersectionExampleScenario.node[25].nic.mac1609_4 	DroppedPacketsInMac 	0
scalar IntersectionExampleScenario.node[25].nic.mac1609_4 	TooLittleTime 	0
scalar IntersectionExampleScenario.node[25].nic.mac1609_4 	TimesIntoBackoff 	0
scalar IntersectionExampleScenario.node[25].nic.mac1609_4 	SlotsBackoff 	0
scalar IntersectionExampleScenario.node[25].nic.mac1609_4 	NumInternalContention 	0
scalar IntersectionExampleScenario.node[25].nic.mac1609_4 	totalBusyTime 	0
scalar IntersectionExampleScenario.node[25].veinsmobility 	startTime 	46.5
scalar IntersectionExampleScenario.node[25].veinsmobility 	totalTime 	42.5
scalar IntersectionExampleScenario.node[25].veinsmobility 	stopTime 	89.25
scalar IntersectionExampleScenario.node[25].veinsmobility 	minSpeed 	5.6500000953674
scalar IntersectionExampleScenario.node[25].veinsmobility 	maxSpeed 	15.474988937378
scalar IntersectionExampleScenario.node[25].veinsmobility 	totalDistance 	553.125831604
scalar IntersectionExampleScenario.node[25].veinsmobility 	totalCO2Emission 	135.90658118087
scalar IntersectionExampleScenario.node[16].appl 	VehicleRemoved 	0
scalar IntersectionExampleScenario.node[16].appl 	ArrivedAtDest 	1
scalar IntersectionExampleScenario.node[16].appl 	IntersectionEnterTime 	30.25
scalar IntersectionExampleScenario.node[16].appl 	IntersectionExitTime 	73.619108926097
scalar IntersectionExampleScenario.node[16].appl 	NumberOfCollisions 	0
scalar IntersectionExampleScenario.node[16].nic.phy80211p 	busyTime 	0
scalar IntersectionExampleScenario.node[16].nic.mac1609_4 	ReceivedUnicastPackets 	0
scalar IntersectionExampleScenario.node[16].nic.mac1609_4 	ReceivedBroadcasts 	0
scalar IntersectionExampleScenario.node[16].nic.mac1609_4 	SentPackets 	0
scalar IntersectionExampleScenario.node[16].nic.mac1609_4 	SNIRLostPackets 	0
scalar IntersectionExampleScenario.node[16].nic.mac1609_4 	RXTXLostPackets 	0
scalar IntersectionExampleScenario.node[16].nic.mac1609_4 	TotalLostPackets 	0
scalar IntersectionExampleScenario.node[16].nic.mac1609_4 	DroppedPacketsInMac 	0
scalar IntersectionExampleScenario.node[16].nic.mac1609_4 	TooLittleTime 	0
scalar IntersectionExampleScenario.node[16].nic.mac1609_4 	TimesIntoBackoff 	0
scalar IntersectionExampleScenario.node[16].nic.mac1609_4 	SlotsBackoff 	0
scalar IntersectionExampleScenario.node[16].nic.mac1609_4 	NumInternalContention 	0
scalar IntersectionExampleScenario.node[16].nic.mac1609_4 	totalBusyTime 	0
scalar IntersectionExampleScenario.node[16].veinsmobility 	startTime 	30.25
scalar IntersectionExampleScenario.node[16].veinsmobility 	totalTime 	60
scalar IntersectionExampleScenario.node[16].veinsmobility 	stopTime 	90.5
scalar IntersectionExampleScenario.node[16].veinsmobility 	minSpeed 	0
scalar IntersectionExampleScenario.node[16].veinsmobility 	maxSpeed 	15.101203918457
scalar IntersectionExampleScenario.node[16].veinsmobility 	totalDistance 	572.59242220157
scalar IntersectionExampleScenario.node[16].veinsmobility 	totalCO2Emission 	153.01992128787
scalar IntersectionExampleScenario.node[19].appl 	VehicleRemoved 	0
scalar IntersectionExampleScenario.node[19].appl 	ArrivedAtDest 	1
scalar IntersectionExampleScenario.node[19].appl 	IntersectionEnterTime 	35.75
scalar IntersectionExampleScenario.node[19].appl 	IntersectionExitTime 	76.373062062456
scalar IntersectionExampleScenario.node[19].appl 	NumberOfCollisions 	0
scalar IntersectionExampleScenario.node[19].nic.phy80211p 	busyTime 	0
scalar IntersectionExampleScenario.node[19].nic.mac1609_4 	ReceivedUnicastPackets 	0
scalar IntersectionExampleScenario.node[19].nic.mac1609_4 	ReceivedBroadcasts 	0
scalar IntersectionExampleScenario.node[19].nic.mac1609_4 	SentPackets 	0
scalar IntersectionExampleScenario.node[19].nic.mac1609_4 	SNIRLostPackets 	0
scalar IntersectionExampleScenario.node[19].nic.mac1609_4 	RXTXLostPackets 	0
scalar IntersectionExampleScenario.node[19].nic.mac1609_4 	TotalLostPackets 	0
scalar IntersectionExampleScenario.node[19].nic.mac1609_4 	DroppedPacketsInMac 	0
scalar IntersectionExampleScenario.node[19].nic.mac1609_4 	TooLittleTime 	0
scalar IntersectionExampleScenario.node[19].nic.mac1609_4 	TimesIntoBackoff 	0
scalar IntersectionExampleScenario.node[19].nic.mac1609_4 	SlotsBackoff 	0
scalar IntersectionExampleScenario.node[19].nic.mac1609_4 	NumInternalContention 	0
scalar IntersectionExampleScenario.node[19].nic.mac1609_4 	totalBusyTime 	0
scalar IntersectionExampleScenario.node[19].veinsmobility 	startTime 	35.75
scalar IntersectionExampleScenario.node[19].veinsmobility 	totalTime 	57.5
scalar IntersectionExampleScenario.node[19].veinsmobility 	stopTime 	93.5
scalar IntersectionExampleScenario.node[19].veinsmobility 	minSpeed 	0
scalar IntersectionExampleScenario.node[19].veinsmobility 	maxSpeed 	14.75
scalar IntersectionExampleScenario.node[19].veinsmobility 	totalDistance 	550.34266771426
scalar IntersectionExampleScenario.node[19].veinsmobility 	totalCO2Emission 	142.36230610606
scalar IntersectionExampleScenario.node[23].appl 	VehicleRemoved 	0
scalar IntersectionExampleScenario.node[23].appl 	ArrivedAtDest 	1
scalar IntersectionExampleScenario.node[23].appl 	IntersectionEnterTime 	44
scalar IntersectionExampleScenario.node[23].appl 	IntersectionExitTime 	86.831664367608
scalar IntersectionExampleScenario.node[23].appl 	NumberOfCollisions 	0
scalar IntersectionExampleScenario.node[23].nic.phy80211p 	busyTime 	0
scalar IntersectionExampleScenario.node[23].nic.mac1609_4 	ReceivedUnicastPackets 	0
scalar IntersectionExampleScenario.node[23].nic.mac1609_4 	ReceivedBroadcasts 	0
scalar IntersectionExampleScenario.node[23].nic.mac1609_4 	SentPackets 	0
scalar IntersectionExampleScenario.node[23].nic.mac1609_4 	SNIRLostPackets 	0
scalar IntersectionExampleScenario.node[23].nic.mac1609_4 	RXTXLostPackets 	0
scalar IntersectionExampleScenario.node[23].nic.mac1609_4 	TotalLostPackets 	0
scalar IntersectionExampleScenario.node[23].nic.mac1609_4 	DroppedPacketsInMac 	0
scalar IntersectionExampleScenario.node[23].nic.mac1609_4 	TooLittleTime 	0
scalar IntersectionExampleScenario.node[23].nic.mac1609_4 	TimesIntoBackoff 	0
scalar IntersectionExampleScenario.node[23].nic.mac1609_4 	SlotsBackoff 	0
scalar IntersectionExampleScenario.node[23].nic.mac1609_4 	NumInternalContention 	0
scalar IntersectionExampleScenario.node[23].nic.mac1609_4 	totalBusyTime 	0
scalar IntersectionExampleScenario.node[23].veinsmobility 	startTime 	44
scalar IntersectionExampleScenario.node[23].veinsmobility 	totalTime 	58.5
scalar IntersectionExampleScenario.node[23].veinsmobility 	stopTime 	102.75
scalar IntersectionExampleScenario.node[23].veinsmobility 	minSpeed 	0
scalar IntersectionExampleScenario.node[23].veinsmobility 	maxSpeed 	16.215906143188
scalar IntersectionExampleScenario.node[23].veinsmobility 	totalDistance 	518.24430208635
scalar IntersectionExampleScenario.node[23].veinsmobility 	totalCO2Emission 	153.85090613539
scalar IntersectionExampleScenario.node[21].appl 	VehicleRemoved 	0
scalar IntersectionExampleScenario.node[21].appl 	ArrivedAtDest 	1
scalar IntersectionExampleScenario.node[21].appl 	IntersectionEnterTime 	42.25
scalar IntersectionExampleScenario.node[21].appl 	IntersectionExitTime 	88.302607936319
scalar IntersectionExampleScenario.node[21].appl 	NumberOfCollisions 	0
scalar IntersectionExampleScenario.node[21].nic.phy80211p 	busyTime 	0
scalar IntersectionExampleScenario.node[21].nic.mac1609_4 	ReceivedUnicastPackets 	0
scalar IntersectionExampleScenario.node[21].nic.mac1609_4 	ReceivedBroadcasts 	0
scalar IntersectionExampleScenario.node[21].nic.mac1609_4 	SentPackets 	0
scalar IntersectionExampleScenario.node[21].nic.mac1609_4 	SNIRLostPackets 	0
scalar IntersectionExampleScenario.node[21].nic.mac1609_4 	RXTXLostPackets 	0
scalar IntersectionExampleScenario.node[21].nic.mac1609_4 	TotalLostPackets 	0
scalar IntersectionExampleScenario.node[21].nic.mac1609_4 	DroppedPacketsInMac 	0
scalar IntersectionExampleScenario.node[21].nic.mac1609_4 	TooLittleTime 	0
scalar IntersectionExampleScenario.node[21].nic.mac1609_4 	TimesIntoBackoff 	0
scalar IntersectionExampleScenario.node[21].nic.mac1609_4 	SlotsBackoff 	0
scalar IntersectionExampleScenario.node[21].nic.mac1609_4 	NumInternalContention 	0
scalar IntersectionExampleScenario.node[21].nic.mac1609_4 	totalBusyTime 	0
scalar IntersectionExampleScenario.node[21].veinsmobility 	startTime 	42.25
scalar IntersectionExampleScenario.node[21].veinsmobility 	totalTime 	62.25
scalar IntersectionExampleScenario.node[21].veinsmobility 	stopTime 	104.75
scalar IntersectionExampleScenario.node[21].veinsmobility 	minSpeed 	0
scalar IntersectionExampleScenario.node[21].veinsmobility 	maxSpeed 	15.5
scalar IntersectionExampleScenario.node[21].veinsmobility 	totalDistance 	551.92015075684
scalar IntersectionExampleScenario.node[21].veinsmobility 	totalCO2Emission 	159.80645122969
scalar IntersectionExampleScenario.node[22].appl 	VehicleRemoved 	0
scalar IntersectionExampleScenario.node[22].appl 	ArrivedAtDest 	1
scalar IntersectionExampleScenario.node[22].appl 	IntersectionEnterTime 	42.5
scalar IntersectionExampleScenario.node[22].appl 	IntersectionExitTime 	90.621608026675
scalar IntersectionExampleScenario.node[22].appl 	NumberOfCollisions 	0
scalar IntersectionExampleScenario.node[22].nic.phy80211p 	busyTime 	0
scalar IntersectionExampleScenario.node[22].nic.mac1609_4 	ReceivedUnicastPackets 	0
scalar IntersectionExampleScenario.node[22].nic.mac1609_4 	ReceivedBroadcasts 	0
scalar IntersectionExampleScenario.node[22].nic.mac1609_4 	SentPackets 	0
scalar IntersectionExampleScenario.node[22].nic.mac1609_4 	SNIRLostPackets 	0
scalar IntersectionExampleScenario.node[22].nic.mac1609_4 	RXTXLostPackets 	0
scalar IntersectionExampleScenario.node[22].nic.mac1609_4 	TotalLostPackets 	0
scalar IntersectionExampleScenario.node[22].nic.mac1609_4 	DroppedPacketsInMac 	0
scalar IntersectionExampleScenario.node[22].nic.mac1609_4 	TooLittleTime 	0
scalar IntersectionExampleScenario.node[22].nic.mac1609_4 	TimesIntoBackoff 	0
scalar IntersectionExampleScenario.node[22].nic.mac1609_4 	SlotsBackoff 	0
scalar IntersectionExampleScenario.node[22].nic.mac1609_4 	NumInternalContention 	0
scalar IntersectionExampleScenario.node[22].nic.mac1609_4 	totalBusyTime 	0
scalar IntersectionExampleScenario.node[22].veinsmobility 	startTime 	42.5
scalar IntersectionExampleScenario.node[22].veinsmobility 	totalTime 	65.25
scalar IntersectionExampleScenario.node[22].veinsmobility 	stopTime 	108
scalar IntersectionExampleScenario.node[22].veinsmobility 	minSpeed 	0
scalar IntersectionExampleScenario.node[22].veinsmobility 	maxSpeed 	14.277831077576
scalar IntersectionExampleScenario.node[22].veinsmobility 	totalDistance 	576.47894287109
scalar IntersectionExampleScenario.node[22].veinsmobility 	totalCO2Emission 	148.35911679784
scalar IntersectionExampleScenario.node[31].appl 	VehicleRemoved 	0
scalar IntersectionExampleScenario.node[31].appl 	ArrivedAtDest 	1
scalar IntersectionExampleScenario.node[31].appl 	IntersectionEnterTime 	54.75
scalar IntersectionExampleScenario.node[31].appl 	IntersectionExitTime 	92.874188308633
scalar IntersectionExampleScenario.node[31].appl 	NumberOfCollisions 	0
scalar IntersectionExampleScenario.node[31].nic.phy80211p 	busyTime 	0
scalar IntersectionExampleScenario.node[31].nic.mac1609_4 	ReceivedUnicastPackets 	0
scalar IntersectionExampleScenario.node[31].nic.mac1609_4 	ReceivedBroadcasts 	0
scalar IntersectionExampleScenario.node[31].nic.mac1609_4 	SentPackets 	0
scalar IntersectionExampleScenario.node[31].nic.mac1609_4 	SNIRLostPackets 	0
scalar IntersectionExampleScenario.node[31].nic.mac1609_4 	RXTXLostPackets 	0
scalar IntersectionExampleScenario.node[31].nic.mac1609_4 	TotalLostPackets 	0
scalar IntersectionExampleScenario.node[31].nic.mac1609_4 	DroppedPacketsInMac 	0
scalar IntersectionExampleScenario.node[31].nic.mac1609_4 	TooLittleTime 	0
scalar IntersectionExampleScenario.node[31].nic.mac1609_4 	TimesIntoBackoff 	0
scalar IntersectionExampleScenario.node[31].nic.mac1609_4 	SlotsBackoff 	0
scalar IntersectionExampleScenario.node[31].nic.mac1609_4 	NumInternalContention 	0
scalar IntersectionExampleScenario.node[31].nic.mac1609_4 	totalBusyTime 	0
scalar IntersectionExampleScenario.node[31].veinsmobility 	startTime 	54.75
scalar IntersectionExampleScenario.node[31].veinsmobility 	totalTime 	54.5
scalar IntersectionExampleScenario.node[31].veinsmobility 	stopTime 	109.5
scalar IntersectionExampleScenario.node[31].veinsmobility 	minSpeed 	0
scalar IntersectionExampleScenario.node[31].veinsmobility 	maxSpeed 	15.64999961853
scalar IntersectionExampleScenario.node[31].veinsmobility 	totalDistance 	554.10148620605
scalar IntersectionExampleScenario.node[31].veinsmobility 	totalCO2Emission 	143.59271002158
scalar IntersectionExampleScenario.node[29].appl 	VehicleRemoved 	0
scalar IntersectionExampleScenario.node[29].appl 	ArrivedAtDest 	1
scalar IntersectionExampleScenario.node[29].appl 	IntersectionEnterTime 	49
scalar IntersectionExampleScenario.node[29].appl 	IntersectionExitTime 	96.564639827324
scalar IntersectionExampleScenario.node[29].appl 	NumberOfCollisions 	0
scalar IntersectionExampleScenario.node[29].nic.phy80211p 	busyTime 	0
scalar IntersectionExampleScenario.node[29].nic.mac1609_4 	ReceivedUnicastPackets 	0
scalar IntersectionExampleScenario.node[29].nic.mac1609_4 	ReceivedBroadcasts 	0
scalar IntersectionExampleScenario.node[29].nic.mac1609_4 	SentPackets 	0
scalar IntersectionExampleScenario.node[29].nic.mac1609_4 	SNIRLostPackets 	0
scalar IntersectionExampleScenario.node[29].nic.mac1609_4 	RXTXLostPackets 	0
scalar IntersectionExampleScenario.node[29].nic.mac1609_4 	TotalLostPackets 	0
scalar IntersectionExampleScenario.node[29].nic.mac1609_4 	DroppedPacketsInMac 	0
scalar IntersectionExampleScenario.node[29].nic.mac1609_4 	TooLittleTime 	0
scalar IntersectionExampleScenario.node[29].nic.mac1609_4 	TimesIntoBackoff 	0
scalar IntersectionExampleScenario.node[29].nic.mac1609_4 	SlotsBackoff 	0
scalar IntersectionExampleScenario.node[29].nic.mac1609_4 	NumInternalContention 	0
scalar IntersectionExampleScenario.node[29].nic.mac1609_4 	totalBusyTime 	0
scalar IntersectionExampleScenario.node[29].veinsmobility 	startTime 	49
scalar IntersectionExampleScenario.node[29].veinsmobility 	totalTime 	63.75
scalar IntersectionExampleScenario.node[29].veinsmobility 	stopTime 	113
scalar IntersectionExampleScenario.node[29].veinsmobility 	minSpeed 	0
scalar IntersectionExampleScenario.node[29].veinsmobility 	maxSpeed 	15.875
scalar IntersectionExampleScenario.node[29].veinsmobility 	totalDistance 	541.16889859587
scalar IntersectionExampleScenario.node[29].veinsmobility 	totalCO2Emission 	160.62693428216
scalar IntersectionExampleScenario.node[24].appl 	VehicleRemoved 	0
scalar IntersectionExampleScenario.node[24].appl 	ArrivedAtDest 	1
scalar IntersectionExampleScenario.node[24].appl 	IntersectionEnterTime 	46.25
scalar IntersectionExampleScenario.node[24].appl 	IntersectionExitTime 	96.542728605447
scalar IntersectionExampleScenario.node[24].appl 	NumberOfCollisions 	0
scalar IntersectionExampleScenario.node[24].nic.phy80211p 	busyTime 	0
scalar IntersectionExampleScenario.node[24].nic.mac1609_4 	ReceivedUnicastPackets 	0
scalar IntersectionExampleScenario.node[24].nic.mac1609_4 	ReceivedBroadcasts 	0
scalar IntersectionExampleScenario.node[24].nic.mac1609_4 	SentPackets 	0
scalar IntersectionExampleScenario.node[24].nic.mac1609_4 	SNIRLostPackets 	0
scalar IntersectionExampleScenario.node[24].nic.mac1609_4 	RXTXLostPackets 	0
scalar IntersectionExampleScenario.node[24].nic.mac1609_4 	TotalLostPackets 	0
scalar IntersectionExampleScenario.node[24].nic.mac1609_4 	DroppedPacketsInMac 	0
scalar IntersectionExampleScenario.node[24].nic.mac1609_4 	TooLittleTime 	0
scalar IntersectionExampleScenario.node[24].nic.mac1609_4 	TimesIntoBackoff 	0
scalar IntersectionExampleScenario.node[24].nic.mac1609_4 	SlotsBackoff 	0
scalar IntersectionExampleScenario.node[24].nic.mac1609_4 	NumInternalContention 	0
scalar IntersectionExampleScenario.node[24].nic.mac1609_4 	totalBusyTime 	0
scalar IntersectionExampleScenario.node[24].veinsmobility 	startTime 	46.25
scalar IntersectionExampleScenario.node[24].veinsmobility 	totalTime 	67.5
scalar IntersectionExampleScenario.node[24].veinsmobility 	stopTime 	114
scalar IntersectionExampleScenario.node[24].veinsmobility 	minSpeed 	0
scalar IntersectionExampleScenario.node[24].veinsmobility 	maxSpeed 	15.25
scalar IntersectionExampleScenario.node[24].veinsmobility 	totalDistance 	544.38074399382
scalar IntersectionExampleScenario.node[24].veinsmobility 	totalCO2Emission 	164.17622641567
scalar IntersectionExampleScenario.node[26].appl 	VehicleRemoved 	0
scalar IntersectionExampleScenario.node[26].appl 	ArrivedAtDest 	1
scalar IntersectionExampleScenario.node[26].appl 	IntersectionEnterTime 	47.5
scalar IntersectionExampleScenario.node[26].appl 	IntersectionExitTime 	98.296658504056
scalar IntersectionExampleScenario.node[26].appl 	NumberOfCollisions 	0
scalar IntersectionExampleScenario.node[26].nic.phy80211p 	busyTime 	0
scalar IntersectionExampleScenario.node[26].nic.mac1609_4 	ReceivedUnicastPackets 	0
scalar IntersectionExampleScenario.node[26].nic.mac1609_4 	ReceivedBroadcasts 	0
scalar IntersectionExampleScenario.node[26].nic.mac1609_4 	SentPackets 	0
scalar IntersectionExampleScenario.node[26].nic.mac1609_4 	SNIRLostPackets 	0
scalar IntersectionExampleScenario.node[26].nic.mac1609_4 	RXTXLostPackets 	0
scalar IntersectionExampleScenario.node[26].nic.mac1609_4 	TotalLostPackets 	0
scalar IntersectionExampleScenario.node[26].nic.mac1609_4 	DroppedPacketsInMac 	0
scalar IntersectionExampleScenario.node[26].nic.mac1609_4 	TooLittleTime 	0
scalar IntersectionExampleScenario.node[26].nic.mac1609_4 	TimesIntoBackoff 	0
scalar IntersectionExampleScenario.node[26].nic.mac1609_4 	SlotsBackoff 	0
scalar IntersectionExampleScenario.node[26].nic.mac1609_4 	NumInternalContention 	0
scalar IntersectionExampleScenario.node[26].nic.mac1609_4 	totalBusyTime 	0
scalar IntersectionExampleScenario.node[26].veinsmobility 	startTime 	47.5
scalar IntersectionExampleScenario.node[26].veinsmobility 	totalTime 	66.25
scalar IntersectionExampleScenario.node[26].veinsmobility 	stopTime 	114
scalar IntersectionExampleScenario.node[26].veinsmobility 	minSpeed 	0
scalar IntersectionExampleScenario.node[26].veinsmobility 	maxSpeed 	16.125
scalar IntersectionExampleScenario.node[26].veinsmobility 	totalDistance 	573.15312957764
scalar IntersectionExampleScenario.node[26].veinsmobility 	totalCO2Emission 	166.64153924119
scalar IntersectionExampleScenario.node[30].appl 	VehicleRemoved 	0
scalar IntersectionExampleScenario.node[30].appl 	ArrivedAtDest 	1
scalar IntersectionExampleScenario.node[30].appl 	IntersectionEnterTime 	49
scalar IntersectionExampleScenario.node[30].appl 	IntersectionExitTime 	98.78300261579
scalar IntersectionExampleScenario.node[30].appl 	NumberOfCollisions 	0
scalar IntersectionExampleScenario.node[30].nic.phy80211p 	busyTime 	0
scalar IntersectionExampleScenario.node[30].nic.mac1609_4 	ReceivedUnicastPackets 	0
scalar IntersectionExampleScenario.node[30].nic.mac1609_4 	ReceivedBroadcasts 	0
scalar IntersectionExampleScenario.node[30].nic.mac1609_4 	SentPackets 	0
scalar IntersectionExampleScenario.node[30].nic.mac1609_4 	SNIRLostPackets 	0
scalar IntersectionExampleScenario.node[30].nic.mac1609_4 	RXTXLostPackets 	0
scalar IntersectionExampleScenario.node[30].nic.mac1609_4 	TotalLostPackets 	0
scalar IntersectionExampleScenario.node[30].nic.mac1609_4 	DroppedPacketsInMac 	0
scalar IntersectionExampleScenario.node[30].nic.mac1609_4 	TooLittleTime 	0
scalar IntersectionExampleScenario.node[30].nic.mac1609_4 	TimesIntoBackoff 	0
scalar IntersectionExampleScenario.node[30].nic.mac1609_4 	SlotsBackoff 	0
scalar IntersectionExampleScenario.node[30].nic.mac1609_4 	NumInternalContention 	0
scalar IntersectionExampleScenario.node[30].nic.mac1609_4 	totalBusyTime 	0
scalar IntersectionExampleScenario.node[30].veinsmobility 	startTime 	49
scalar IntersectionExampleScenario.node[30].veinsmobility 	totalTime 	65.5
scalar IntersectionExampleScenario.node[30].veinsmobility 	stopTime 	114.75
scalar IntersectionExampleScenario.node[30].veinsmobility 	minSpeed 	0
scalar IntersectionExampleScenario.node[30].veinsmobility 	maxSpeed 	15.892596244812
scalar IntersectionExampleScenario.node[30].veinsmobility 	totalDistance 	563.22819802601
scalar IntersectionExampleScenario.node[30].veinsmobility 	totalCO2Emission 	162.70753515749
scalar IntersectionExampleScenario.node[28].appl 	VehicleRemoved 	0
scalar IntersectionExampleScenario.node[28].appl 	ArrivedAtDest 	1
scalar IntersectionExampleScenario.node[28].appl 	IntersectionEnterTime 	48.75
scalar IntersectionExampleScenario.node[28].appl 	IntersectionExitTime 	100.35200931446
scalar IntersectionExampleScenario.node[28].appl 	NumberOfCollisions 	0
scalar IntersectionExampleScenario.node[28].nic.phy80211p 	busyTime 	0
scalar IntersectionExampleScenario.node[28].nic.mac1609_4 	ReceivedUnicastPackets 	0
scalar IntersectionExampleScenario.node[28].nic.mac1609_4 	ReceivedBroadcasts 	0
scalar IntersectionExampleScenario.node[28].nic.mac1609_4 	SentPackets 	0
scalar IntersectionExampleScenario.node[28].nic.mac1609_4 	SNIRLostPackets 	0
scalar IntersectionExampleScenario.node[28].nic.mac1609_4 	RXTXLostPackets 	0
scalar IntersectionExampleScenario.node[28].nic.mac1609_4 	TotalLostPackets 	0
scalar IntersectionExampleScenario.node[28].nic.mac1609_4 	DroppedPacketsInMac 	0
scalar IntersectionExampleScenario.node[28].nic.mac1609_4 	TooLittleTime 	0
scalar IntersectionExampleScenario.node[28].nic.mac1609_4 	TimesIntoBackoff 	0
scalar IntersectionExampleScenario.node[28].nic.mac1609_4 	SlotsBackoff 	0
scalar IntersectionExampleScenario.node[28].nic.mac1609_4 	NumInternalContention 	0
scalar IntersectionExampleScenario.node[28].nic.mac1609_4 	totalBusyTime 	0
scalar IntersectionExampleScenario.node[28].veinsmobility 	startTime 	48.75
scalar IntersectionExampleScenario.node[28].veinsmobility 	totalTime 	67.25
scalar IntersectionExampleScenario.node[28].veinsmobility 	stopTime 	116.25
scalar IntersectionExampleScenario.node[28].veinsmobility 	minSpeed 	0
scalar IntersectionExampleScenario.node[28].veinsmobility 	maxSpeed 	15.817429542542
scalar IntersectionExampleScenario.node[28].veinsmobility 	totalDistance 	586.1481552124
scalar IntersectionExampleScenario.node[28].veinsmobility 	totalCO2Emission 	167.2028241544
scalar IntersectionExampleScenario.node[32].appl 	VehicleRemoved 	0
scalar IntersectionExampleScenario.node[32].appl 	ArrivedAtDest 	1
scalar IntersectionExampleScenario.node[32].appl 	IntersectionEnterTime 	55
scalar IntersectionExampleScenario.node[32].appl 	IntersectionExitTime 	100.81178182969
scalar IntersectionExampleScenario.node[32].appl 	NumberOfCollisions 	0
scalar IntersectionExampleScenario.node[32].nic.phy80211p 	busyTime 	0
scalar IntersectionExampleScenario.node[32].nic.mac1609_4 	ReceivedUnicastPackets 	0
scalar IntersectionExampleScenario.node[32].nic.mac1609_4 	ReceivedBroadcasts 	0
scalar IntersectionExampleScenario.node[32].nic.mac1609_4 	SentPackets 	0
scalar IntersectionExampleScenario.node[32].nic.mac1609_4 	SNIRLostPackets 	0
scalar IntersectionExampleScenario.node[32].nic.mac1609_4 	RXTXLostPackets 	0
scalar IntersectionExampleScenario.node[32].nic.mac1609_4 	TotalLostPackets 	0
scalar IntersectionExampleScenario.node[32].nic.mac1609_4 	DroppedPacketsInMac 	0
scalar IntersectionExampleScenario.node[32].nic.mac1609_4 	TooLittleTime 	0
scalar IntersectionExampleScenario.node[32].nic.mac1609_4 	TimesIntoBackoff 	0
scalar IntersectionExampleScenario.node[32].nic.mac1609_4 	SlotsBackoff 	0
scalar IntersectionExampleScenario.node[32].nic.mac1609_4 	NumInternalContention 	0
scalar IntersectionExampleScenario.node[32].nic.mac1609_4 	totalBusyTime 	0
scalar IntersectionExampleScenario.node[32].veinsmobility 	startTime 	55
scalar IntersectionExampleScenario.node[32].veinsmobility 	totalTime 	62.75
scalar IntersectionExampleScenario.node[32].veinsmobility 	stopTime 	118
scalar IntersectionExampleScenario.node[32].veinsmobility 	minSpeed 	0
scalar IntersectionExampleScenario.node[32].veinsmobility 	maxSpeed 	14.39999961853
scalar IntersectionExampleScenario.node[32].veinsmobility 	totalDistance 	552.73208618164
scalar IntersectionExampleScenario.node[32].veinsmobility 	totalCO2Emission 	145.26491211386
scalar IntersectionExampleScenario.node[34].appl 	VehicleRemoved 	0
scalar IntersectionExampleScenario.node[34].appl 	ArrivedAtDest 	1
scalar IntersectionExampleScenario.node[34].appl 	IntersectionEnterTime 	62.75
scalar IntersectionExampleScenario.node[34].appl 	IntersectionExitTime 	103.08463092794
scalar IntersectionExampleScenario.node[34].appl 	NumberOfCollisions 	0
scalar IntersectionExampleScenario.node[34].nic.phy80211p 	busyTime 	0
scalar IntersectionExampleScenario.node[34].nic.mac1609_4 	ReceivedUnicastPackets 	0
scalar IntersectionExampleScenario.node[34].nic.mac1609_4 	ReceivedBroadcasts 	0
scalar IntersectionExampleScenario.node[34].nic.mac1609_4 	SentPackets 	0
scalar IntersectionExampleScenario.node[34].nic.mac1609_4 	SNIRLostPackets 	0
scalar IntersectionExampleScenario.node[34].nic.mac1609_4 	RXTXLostPackets 	0
scalar IntersectionExampleScenario.node[34].nic.mac1609_4 	TotalLostPackets 	0
scalar IntersectionExampleScenario.node[34].nic.mac1609_4 	DroppedPacketsInMac 	0
scalar IntersectionExampleScenario.node[34].nic.mac1609_4 	TooLittleTime 	0
scalar IntersectionExampleScenario.node[34].nic.mac1609_4 	TimesIntoBackoff 	0
scalar IntersectionExampleScenario.node[34].nic.mac1609_4 	SlotsBackoff 	0
scalar IntersectionExampleScenario.node[34].nic.mac1609_4 	NumInternalContention 	0
scalar IntersectionExampleScenario.node[34].nic.mac1609_4 	totalBusyTime 	0
scalar IntersectionExampleScenario.node[34].veinsmobility 	startTime 	62.75
scalar IntersectionExampleScenario.node[34].veinsmobility 	totalTime 	56.25
scalar IntersectionExampleScenario.node[34].veinsmobility 	stopTime 	119.25
scalar IntersectionExampleScenario.node[34].veinsmobility 	minSpeed 	0
scalar IntersectionExampleScenario.node[34].veinsmobility 	maxSpeed 	15.64999961853
scalar IntersectionExampleScenario.node[34].veinsmobility 	totalDistance 	552.57843017578
scalar IntersectionExampleScenario.node[34].veinsmobility 	totalCO2Emission 	149.6055959767
scalar IntersectionExampleScenario.node[38].appl 	VehicleRemoved 	0
scalar IntersectionExampleScenario.node[38].appl 	ArrivedAtDest 	1
scalar IntersectionExampleScenario.node[38].appl 	IntersectionEnterTime 	81
scalar IntersectionExampleScenario.node[38].appl 	IntersectionExitTime 	103.84467956235
scalar IntersectionExampleScenario.node[38].appl 	NumberOfCollisions 	0
scalar IntersectionExampleScenario.node[38].nic.phy80211p 	busyTime 	0
scalar IntersectionExampleScenario.node[38].nic.mac1609_4 	ReceivedUnicastPackets 	0
scalar IntersectionExampleScenario.node[38].nic.mac1609_4 	ReceivedBroadcasts 	0
scalar IntersectionExampleScenario.node[38].nic.mac1609_4 	SentPackets 	0
scalar IntersectionExampleScenario.node[38].nic.mac1609_4 	SNIRLostPackets 	0
scalar IntersectionExampleScenario.node[38].nic.mac1609_4 	RXTXLostPackets 	0
scalar IntersectionExampleScenario.node[38].nic.mac1609_4 	TotalLostPackets 	0
scalar IntersectionExampleScenario.node[38].nic.mac1609_4 	DroppedPacketsInMac 	0
scalar IntersectionExampleScenario.node[38].nic.mac1609_4 	TooLittleTime 	0
scalar IntersectionExampleScenario.node[38].nic.mac1609_4 	TimesIntoBackoff 	0
scalar IntersectionExampleScenario.node[38].nic.mac1609_4 	SlotsBackoff 	0
scalar IntersectionExampleScenario.node[38].nic.mac1609_4 	NumInternalContention 	0
scalar IntersectionExampleScenario.node[38].nic.mac1609_4 	totalBusyTime 	0
scalar IntersectionExampleScenario.node[38].veinsmobility 	startTime 	81
scalar IntersectionExampleScenario.node[38].veinsmobility 	totalTime 	38.75
scalar IntersectionExampleScenario.node[38].veinsmobility 	stopTime 	120
scalar IntersectionExampleScenario.node[38].veinsmobility 	minSpeed 	5.6500000953674
scalar IntersectionExampleScenario.node[38].veinsmobility 	maxSpeed 	15.64999961853
scalar IntersectionExampleScenario.node[38].veinsmobility 	totalDistance 	553.22208404541
scalar IntersectionExampleScenario.node[38].veinsmobility 	totalCO2Emission 	120.04700371658
scalar IntersectionExampleScenario.node[33].appl 	VehicleRemoved 	0
scalar IntersectionExampleScenario.node[33].appl 	ArrivedAtDest 	1
scalar IntersectionExampleScenario.node[33].appl 	IntersectionEnterTime 	62.5
scalar IntersectionExampleScenario.node[33].appl 	IntersectionExitTime 	106.57663024793
scalar IntersectionExampleScenario.node[33].appl 	NumberOfCollisions 	0
scalar IntersectionExampleScenario.node[33].nic.phy80211p 	busyTime 	0
scalar IntersectionExampleScenario.node[33].nic.mac1609_4 	ReceivedUnicastPackets 	0
scalar IntersectionExampleScenario.node[33].nic.mac1609_4 	ReceivedBroadcasts 	0
scalar IntersectionExampleScenario.node[33].nic.mac1609_4 	SentPackets 	0
scalar IntersectionExampleScenario.node[33].nic.mac1609_4 	SNIRLostPackets 	0
scalar IntersectionExampleScenario.node[33].nic.mac1609_4 	RXTXLostPackets 	0
scalar IntersectionExampleScenario.node[33].nic.mac1609_4 	TotalLostPackets 	0
scalar IntersectionExampleScenario.node[33].nic.mac1609_4 	DroppedPacketsInMac 	0
scalar IntersectionExampleScenario.node[33].nic.mac1609_4 	TooLittleTime 	0
scalar IntersectionExampleScenario.node[33].nic.mac1609_4 	TimesIntoBackoff 	0
scalar IntersectionExampleScenario.node[33].nic.mac1609_4 	SlotsBackoff 	0
scalar IntersectionExampleScenario.node[33].nic.mac1609_4 	NumInternalContention 	0
scalar IntersectionExampleScenario.node[33].nic.mac1609_4 	totalBusyTime 	0
scalar IntersectionExampleScenario.node[33].veinsmobility 	startTime 	62.5
scalar IntersectionExampleScenario.node[33].veinsmobility 	totalTime 	61
scalar IntersectionExampleScenario.node[33].veinsmobility 	stopTime 	123.75
scalar IntersectionExampleScenario.node[33].veinsmobility 	minSpeed 	0
scalar IntersectionExampleScenario.node[33].veinsmobility 	maxSpeed 	15.25
scalar IntersectionExampleScenario.node[33].veinsmobility 	totalDistance 	544.46383572966
scalar IntersectionExampleScenario.node[33].veinsmobility 	totalCO2Emission 	150.74452961421
scalar IntersectionExampleScenario.node[35].appl 	VehicleRemoved 	0
scalar IntersectionExampleScenario.node[35].appl 	ArrivedAtDest 	1
scalar IntersectionExampleScenario.node[35].appl 	IntersectionEnterTime 	66.75
scalar IntersectionExampleScenario.node[35].appl 	IntersectionExitTime 	108.30974250127
scalar IntersectionExampleScenario.node[35].appl 	NumberOfCollisions 	0
scalar IntersectionExampleScenario.node[35].nic.phy80211p 	busyTime 	0
scalar IntersectionExampleScenario.node[35].nic.mac1609_4 	ReceivedUnicastPackets 	0
scalar IntersectionExampleScenario.node[35].nic.mac1609_4 	ReceivedBroadcasts 	0
scalar IntersectionExampleScenario.node[35].nic.mac1609_4 	SentPackets 	0
scalar IntersectionExampleScenario.node[35].nic.mac1609_4 	SNIRLostPackets 	0
scalar IntersectionExampleScenario.node[35].nic.mac1609_4 	RXTXLostPackets 	0
scalar IntersectionExampleScenario.node[35].nic.mac1609_4 	TotalLostPackets 	0
scalar IntersectionExampleScenario.node[35].nic.mac1609_4 	DroppedPacketsInMac 	0
scalar IntersectionExampleScenario.node[35].nic.mac1609_4 	TooLittleTime 	0
scalar IntersectionExampleScenario.node[35].nic.mac1609_4 	TimesIntoBackoff 	0
scalar IntersectionExampleScenario.node[35].nic.mac1609_4 	SlotsBackoff 	0
scalar IntersectionExampleScenario.node[35].nic.mac1609_4 	NumInternalContention 	0
scalar IntersectionExampleScenario.node[35].nic.mac1609_4 	totalBusyTime 	0
scalar IntersectionExampleScenario.node[35].veinsmobility 	startTime 	66.75
scalar IntersectionExampleScenario.node[35].veinsmobility 	totalTime 	57.75
scalar IntersectionExampleScenario.node[35].veinsmobility 	stopTime 	124.75
scalar IntersectionExampleScenario.node[35].veinsmobility 	minSpeed 	0
scalar IntersectionExampleScenario.node[35].veinsmobility 	maxSpeed 	15.5
scalar IntersectionExampleScenario.node[35].veinsmobility 	totalDistance 	556.96369934082
scalar IntersectionExampleScenario.node[35].veinsmobility 	totalCO2Emission 	148.35349532732
scalar IntersectionExampleScenario.node[36].appl 	VehicleRemoved 	0
scalar IntersectionExampleScenario.node[36].appl 	ArrivedAtDest 	1
scalar IntersectionExampleScenario.node[36].appl 	IntersectionEnterTime 	78.25
scalar IntersectionExampleScenario.node[36].appl 	IntersectionExitTime 	110.55272422827
scalar IntersectionExampleScenario.node[36].appl 	NumberOfCollisions 	0
scalar IntersectionExampleScenario.node[36].nic.phy80211p 	busyTime 	0
scalar IntersectionExampleScenario.node[36].nic.mac1609_4 	ReceivedUnicastPackets 	0
scalar IntersectionExampleScenario.node[36].nic.mac1609_4 	ReceivedBroadcasts 	0
scalar IntersectionExampleScenario.node[36].nic.mac1609_4 	SentPackets 	0
scalar IntersectionExampleScenario.node[36].nic.mac1609_4 	SNIRLostPackets 	0
scalar IntersectionExampleScenario.node[36].nic.mac1609_4 	RXTXLostPackets 	0
scalar IntersectionExampleScenario.node[36].nic.mac1609_4 	TotalLostPackets 	0
scalar IntersectionExampleScenario.node[36].nic.mac1609_4 	DroppedPacketsInMac 	0
scalar IntersectionExampleScenario.node[36].nic.mac1609_4 	TooLittleTime 	0
scalar IntersectionExampleScenario.node[36].nic.mac1609_4 	TimesIntoBackoff 	0
scalar IntersectionExampleScenario.node[36].nic.mac1609_4 	SlotsBackoff 	0
scalar IntersectionExampleScenario.node[36].nic.mac1609_4 	NumInternalContention 	0
scalar IntersectionExampleScenario.node[36].nic.mac1609_4 	totalBusyTime 	0
scalar IntersectionExampleScenario.node[36].veinsmobility 	startTime 	78.25
scalar IntersectionExampleScenario.node[36].veinsmobility 	totalTime 	49.25
scalar IntersectionExampleScenario.node[36].veinsmobility 	stopTime 	127.75
scalar IntersectionExampleScenario.node[36].veinsmobility 	minSpeed 	2.4468765258789
scalar IntersectionExampleScenario.node[36].veinsmobility 	maxSpeed 	14.619823455811
scalar IntersectionExampleScenario.node[36].veinsmobility 	totalDistance 	554.26779937744
scalar IntersectionExampleScenario.node[36].veinsmobility 	totalCO2Emission 	131.1880201833
scalar IntersectionExampleScenario.node[37].appl 	VehicleRemoved 	0
scalar IntersectionExampleScenario.node[37].appl 	ArrivedAtDest 	1
scalar IntersectionExampleScenario.node[37].appl 	IntersectionEnterTime 	79.5
scalar IntersectionExampleScenario.node[37].appl 	IntersectionExitTime 	112.5181334255
scalar IntersectionExampleScenario.node[37].appl 	NumberOfCollisions 	0
scalar IntersectionExampleScenario.node[37].nic.phy80211p 	busyTime 	0
scalar IntersectionExampleScenario.node[37].nic.mac1609_4 	ReceivedUnicastPackets 	0
scalar IntersectionExampleScenario.node[37].nic.mac1609_4 	ReceivedBroadcasts 	0
scalar IntersectionExampleScenario.node[37].nic.mac1609_4 	SentPackets 	0
scalar IntersectionExampleScenario.node[37].nic.mac1609_4 	SNIRLostPackets 	0
scalar IntersectionExampleScenario.node[37].nic.mac1609_4 	RXTXLostPackets 	0
scalar IntersectionExampleScenario.node[37].nic.mac1609_4 	TotalLostPackets 	0
scalar IntersectionExampleScenario.node[37].nic.mac1609_4 	DroppedPacketsInMac 	0
scalar IntersectionExampleScenario.node[37].nic.mac1609_4 	TooLittleTime 	0
scalar IntersectionExampleScenario.node[37].nic.mac1609_4 	TimesIntoBackoff 	0
scalar IntersectionExampleScenario.node[37].nic.mac1609_4 	SlotsBackoff 	0
scalar IntersectionExampleScenario.node[37].nic.mac1609_4 	NumInternalContention 	0
scalar IntersectionExampleScenario.node[37].nic.mac1609_4 	totalBusyTime 	0
scalar IntersectionExampleScenario.node[37].veinsmobility 	startTime 	79.5
scalar IntersectionExampleScenario.node[37].veinsmobility 	totalTime 	49.25
scalar IntersectionExampleScenario.node[37].veinsmobility 	stopTime 	129
scalar IntersectionExampleScenario.node[37].veinsmobility 	minSpeed 	2.934424161911
scalar IntersectionExampleScenario.node[37].veinsmobility 	maxSpeed 	15.070950508118
scalar IntersectionExampleScenario.node[37].veinsmobility 	totalDistance 	572.3826675415
scalar IntersectionExampleScenario.node[37].veinsmobility 	totalCO2Emission 	139.93844042957
scalar IntersectionExampleScenario.node[41].appl 	VehicleRemoved 	0
scalar IntersectionExampleScenario.node[41].appl 	ArrivedAtDest 	1
scalar IntersectionExampleScenario.node[41].appl 	IntersectionEnterTime 	89.5
scalar IntersectionExampleScenario.node[41].appl 	IntersectionExitTime 	115.35038701931
scalar IntersectionExampleScenario.node[41].appl 	NumberOfCollisions 	0
scalar IntersectionExampleScenario.node[41].nic.phy80211p 	busyTime 	0
scalar IntersectionExampleScenario.node[41].nic.mac1609_4 	ReceivedUnicastPackets 	0
scalar IntersectionExampleScenario.node[41].nic.mac1609_4 	ReceivedBroadcasts 	0
scalar IntersectionExampleScenario.node[41].nic.mac1609_4 	SentPackets 	0
scalar IntersectionExampleScenario.node[41].nic.mac1609_4 	SNIRLostPackets 	0
scalar IntersectionExampleScenario.node[41].nic.mac1609_4 	RXTXLostPackets 	0
scalar IntersectionExampleScenario.node[41].nic.mac1609_4 	TotalLostPackets 	0
scalar IntersectionExampleScenario.node[41].nic.mac1609_4 	DroppedPacketsInMac 	0
scalar IntersectionExampleScenario.node[41].nic.mac1609_4 	TooLittleTime 	0
scalar IntersectionExampleScenario.node[41].nic.mac1609_4 	TimesIntoBackoff 	0
scalar IntersectionExampleScenario.node[41].nic.mac1609_4 	SlotsBackoff 	0
scalar IntersectionExampleScenario.node[41].nic.mac1609_4 	NumInternalContention 	0
[...]
scalar IntersectionExampleScenario.node[802].veinsmobility 	totalCO2Emission 	108.53183943098
scalar IntersectionExampleScenario.node[803].appl 	VehicleRemoved 	0
scalar IntersectionExampleScenario.node[803].appl 	ArrivedAtDest 	0
scalar IntersectionExampleScenario.node[803].appl 	IntersectionEnterTime 	1769.25
scalar IntersectionExampleScenario.node[803].appl 	IntersectionExitTime 	-1
scalar IntersectionExampleScenario.node[803].appl 	NumberOfCollisions 	0
scalar IntersectionExampleScenario.node[803].nic.phy80211p 	busyTime 	0
scalar IntersectionExampleScenario.node[803].nic.mac1609_4 	ReceivedUnicastPackets 	0
scalar IntersectionExampleScenario.node[803].nic.mac1609_4 	ReceivedBroadcasts 	0
scalar IntersectionExampleScenario.node[803].nic.mac1609_4 	SentPackets 	0
scalar IntersectionExampleScenario.node[803].nic.mac1609_4 	SNIRLostPackets 	0
scalar IntersectionExampleScenario.node[803].nic.mac1609_4 	RXTXLostPackets 	0
scalar IntersectionExampleScenario.node[803].nic.mac1609_4 	TotalLostPackets 	0
scalar IntersectionExampleScenario.node[803].nic.mac1609_4 	DroppedPacketsInMac 	0
scalar IntersectionExampleScenario.node[803].nic.mac1609_4 	TooLittleTime 	0
scalar IntersectionExampleScenario.node[803].nic.mac1609_4 	TimesIntoBackoff 	0
scalar IntersectionExampleScenario.node[803].nic.mac1609_4 	SlotsBackoff 	0
scalar IntersectionExampleScenario.node[803].nic.mac1609_4 	NumInternalContention 	0
scalar IntersectionExampleScenario.node[803].nic.mac1609_4 	totalBusyTime 	0
scalar IntersectionExampleScenario.node[803].veinsmobility 	startTime 	1769.25
scalar IntersectionExampleScenario.node[803].veinsmobility 	totalTime 	30.75
scalar IntersectionExampleScenario.node[803].veinsmobility 	stopTime 	1800
scalar IntersectionExampleScenario.node[803].veinsmobility 	minSpeed 	0
scalar IntersectionExampleScenario.node[803].veinsmobility 	maxSpeed 	15.980197906494
scalar IntersectionExampleScenario.node[803].veinsmobility 	totalDistance 	309.59688568115
scalar IntersectionExampleScenario.node[803].veinsmobility 	totalCO2Emission 	79.472800141913
scalar IntersectionExampleScenario.node[804].appl 	VehicleRemoved 	0
scalar IntersectionExampleScenario.node[804].appl 	ArrivedAtDest 	0
scalar IntersectionExampleScenario.node[804].appl 	IntersectionEnterTime 	1770.75
scalar IntersectionExampleScenario.node[804].appl 	IntersectionExitTime 	1794.5882156545
scalar IntersectionExampleScenario.node[804].appl 	NumberOfCollisions 	0
scalar IntersectionExampleScenario.node[804].nic.phy80211p 	busyTime 	0
scalar IntersectionExampleScenario.node[804].nic.mac1609_4 	ReceivedUnicastPackets 	0
scalar IntersectionExampleScenario.node[804].nic.mac1609_4 	ReceivedBroadcasts 	0
scalar IntersectionExampleScenario.node[804].nic.mac1609_4 	SentPackets 	0
scalar IntersectionExampleScenario.node[804].nic.mac1609_4 	SNIRLostPackets 	0
scalar IntersectionExampleScenario.node[804].nic.mac1609_4 	RXTXLostPackets 	0
scalar IntersectionExampleScenario.node[804].nic.mac1609_4 	TotalLostPackets 	0
scalar IntersectionExampleScenario.node[804].nic.mac1609_4 	DroppedPacketsInMac 	0
scalar IntersectionExampleScenario.node[804].nic.mac1609_4 	TooLittleTime 	0
scalar IntersectionExampleScenario.node[804].nic.mac1609_4 	TimesIntoBackoff 	0
scalar IntersectionExampleScenario.node[804].nic.mac1609_4 	SlotsBackoff 	0
scalar IntersectionExampleScenario.node[804].nic.mac1609_4 	NumInternalContention 	0
scalar IntersectionExampleScenario.node[804].nic.mac1609_4 	totalBusyTime 	0
scalar IntersectionExampleScenario.node[804].veinsmobility 	startTime 	1770.75
scalar IntersectionExampleScenario.node[804].veinsmobility 	totalTime 	29.25
scalar IntersectionExampleScenario.node[804].veinsmobility 	stopTime 	1800
scalar IntersectionExampleScenario.node[804].veinsmobility 	minSpeed 	5.6500000953674
scalar IntersectionExampleScenario.node[804].veinsmobility 	maxSpeed 	15.677819252014
scalar IntersectionExampleScenario.node[804].veinsmobility 	totalDistance 	374.27836078718
scalar IntersectionExampleScenario.node[804].veinsmobility 	totalCO2Emission 	103.39210023992
scalar IntersectionExampleScenario.node[805].appl 	VehicleRemoved 	0
scalar IntersectionExampleScenario.node[805].appl 	ArrivedAtDest 	0
scalar IntersectionExampleScenario.node[805].appl 	IntersectionEnterTime 	1771.25
scalar IntersectionExampleScenario.node[805].appl 	IntersectionExitTime 	-1
scalar IntersectionExampleScenario.node[805].appl 	NumberOfCollisions 	0
scalar IntersectionExampleScenario.node[805].nic.phy80211p 	busyTime 	0
scalar IntersectionExampleScenario.node[805].nic.mac1609_4 	ReceivedUnicastPackets 	0
scalar IntersectionExampleScenario.node[805].nic.mac1609_4 	ReceivedBroadcasts 	0
scalar IntersectionExampleScenario.node[805].nic.mac1609_4 	SentPackets 	0
scalar IntersectionExampleScenario.node[805].nic.mac1609_4 	SNIRLostPackets 	0
scalar IntersectionExampleScenario.node[805].nic.mac1609_4 	RXTXLostPackets 	0
scalar IntersectionExampleScenario.node[805].nic.mac1609_4 	TotalLostPackets 	0
scalar IntersectionExampleScenario.node[805].nic.mac1609_4 	DroppedPacketsInMac 	0
scalar IntersectionExampleScenario.node[805].nic.mac1609_4 	TooLittleTime 	0
scalar IntersectionExampleScenario.node[805].nic.mac1609_4 	TimesIntoBackoff 	0
scalar IntersectionExampleScenario.node[805].nic.mac1609_4 	SlotsBackoff 	0
scalar IntersectionExampleScenario.node[805].nic.mac1609_4 	NumInternalContention 	0
scalar IntersectionExampleScenario.node[805].nic.mac1609_4 	totalBusyTime 	0
scalar IntersectionExampleScenario.node[805].veinsmobility 	startTime 	1771.25
scalar IntersectionExampleScenario.node[805].veinsmobility 	totalTime 	28.75
scalar IntersectionExampleScenario.node[805].veinsmobility 	stopTime 	1800
scalar IntersectionExampleScenario.node[805].veinsmobility 	minSpeed 	0
scalar IntersectionExampleScenario.node[805].veinsmobility 	maxSpeed 	14.442604064941
scalar IntersectionExampleScenario.node[805].veinsmobility 	totalDistance 	293.62503051758
scalar IntersectionExampleScenario.node[805].veinsmobility 	totalCO2Emission 	72.974559536699
scalar IntersectionExampleScenario.node[806].appl 	VehicleRemoved 	0
scalar IntersectionExampleScenario.node[806].appl 	ArrivedAtDest 	0
scalar IntersectionExampleScenario.node[806].appl 	IntersectionEnterTime 	1772.25
scalar IntersectionExampleScenario.node[806].appl 	IntersectionExitTime 	-1
scalar IntersectionExampleScenario.node[806].appl 	NumberOfCollisions 	0
scalar IntersectionExampleScenario.node[806].nic.phy80211p 	busyTime 	0
scalar IntersectionExampleScenario.node[806].nic.mac1609_4 	ReceivedUnicastPackets 	0
scalar IntersectionExampleScenario.node[806].nic.mac1609_4 	ReceivedBroadcasts 	0
scalar IntersectionExampleScenario.node[806].nic.mac1609_4 	SentPackets 	0
scalar IntersectionExampleScenario.node[806].nic.mac1609_4 	SNIRLostPackets 	0
scalar IntersectionExampleScenario.node[806].nic.mac1609_4 	RXTXLostPackets 	0
scalar IntersectionExampleScenario.node[806].nic.mac1609_4 	TotalLostPackets 	0
scalar IntersectionExampleScenario.node[806].nic.mac1609_4 	DroppedPacketsInMac 	0
scalar IntersectionExampleScenario.node[806].nic.mac1609_4 	TooLittleTime 	0
scalar IntersectionExampleScenario.node[806].nic.mac1609_4 	TimesIntoBackoff 	0
scalar IntersectionExampleScenario.node[806].nic.mac1609_4 	SlotsBackoff 	0
scalar IntersectionExampleScenario.node[806].nic.mac1609_4 	NumInternalContention 	0
scalar IntersectionExampleScenario.node[806].nic.mac1609_4 	totalBusyTime 	0
scalar IntersectionExampleScenario.node[806].veinsmobility 	startTime 	1772.25
scalar IntersectionExampleScenario.node[806].veinsmobility 	totalTime 	27.75
scalar IntersectionExampleScenario.node[806].veinsmobility 	stopTime 	1800
scalar IntersectionExampleScenario.node[806].veinsmobility 	minSpeed 	0
scalar IntersectionExampleScenario.node[806].veinsmobility 	maxSpeed 	15.64999961853
scalar IntersectionExampleScenario.node[806].veinsmobility 	totalDistance 	304.54327392578
scalar IntersectionExampleScenario.node[806].veinsmobility 	totalCO2Emission 	73.296043446661
scalar IntersectionExampleScenario.node[807].appl 	VehicleRemoved 	0
scalar IntersectionExampleScenario.node[807].appl 	ArrivedAtDest 	0
scalar IntersectionExampleScenario.node[807].appl 	IntersectionEnterTime 	1783.25
scalar IntersectionExampleScenario.node[807].appl 	IntersectionExitTime 	-1
scalar IntersectionExampleScenario.node[807].appl 	NumberOfCollisions 	0
scalar IntersectionExampleScenario.node[807].nic.phy80211p 	busyTime 	0
scalar IntersectionExampleScenario.node[807].nic.mac1609_4 	ReceivedUnicastPackets 	0
scalar IntersectionExampleScenario.node[807].nic.mac1609_4 	ReceivedBroadcasts 	0
scalar IntersectionExampleScenario.node[807].nic.mac1609_4 	SentPackets 	0
scalar IntersectionExampleScenario.node[807].nic.mac1609_4 	SNIRLostPackets 	0
scalar IntersectionExampleScenario.node[807].nic.mac1609_4 	RXTXLostPackets 	0
scalar IntersectionExampleScenario.node[807].nic.mac1609_4 	TotalLostPackets 	0
scalar IntersectionExampleScenario.node[807].nic.mac1609_4 	DroppedPacketsInMac 	0
scalar IntersectionExampleScenario.node[807].nic.mac1609_4 	TooLittleTime 	0
scalar IntersectionExampleScenario.node[807].nic.mac1609_4 	TimesIntoBackoff 	0
scalar IntersectionExampleScenario.node[807].nic.mac1609_4 	SlotsBackoff 	0
scalar IntersectionExampleScenario.node[807].nic.mac1609_4 	NumInternalContention 	0
scalar IntersectionExampleScenario.node[807].nic.mac1609_4 	totalBusyTime 	0
scalar IntersectionExampleScenario.node[807].veinsmobility 	startTime 	1783.25
scalar IntersectionExampleScenario.node[807].veinsmobility 	totalTime 	16.75
scalar IntersectionExampleScenario.node[807].veinsmobility 	stopTime 	1800
scalar IntersectionExampleScenario.node[807].veinsmobility 	minSpeed 	5.6500000953674
scalar IntersectionExampleScenario.node[807].veinsmobility 	maxSpeed 	15.02499961853
scalar IntersectionExampleScenario.node[807].veinsmobility 	totalDistance 	219.79486846924
scalar IntersectionExampleScenario.node[807].veinsmobility 	totalCO2Emission 	53.154349575486
scalar IntersectionExampleScenario.node[808].appl 	VehicleRemoved 	0
scalar IntersectionExampleScenario.node[808].appl 	ArrivedAtDest 	0
scalar IntersectionExampleScenario.node[808].appl 	IntersectionEnterTime 	1784
scalar IntersectionExampleScenario.node[808].appl 	IntersectionExitTime 	-1
scalar IntersectionExampleScenario.node[808].appl 	NumberOfCollisions 	0
scalar IntersectionExampleScenario.node[808].nic.phy80211p 	busyTime 	0
scalar IntersectionExampleScenario.node[808].nic.mac1609_4 	ReceivedUnicastPackets 	0
scalar IntersectionExampleScenario.node[808].nic.mac1609_4 	ReceivedBroadcasts 	0
scalar IntersectionExampleScenario.node[808].nic.mac1609_4 	SentPackets 	0
scalar IntersectionExampleScenario.node[808].nic.mac1609_4 	SNIRLostPackets 	0
scalar IntersectionExampleScenario.node[808].nic.mac1609_4 	RXTXLostPackets 	0
scalar IntersectionExampleScenario.node[808].nic.mac1609_4 	TotalLostPackets 	0
scalar IntersectionExampleScenario.node[808].nic.mac1609_4 	DroppedPacketsInMac 	0
scalar IntersectionExampleScenario.node[808].nic.mac1609_4 	TooLittleTime 	0
scalar IntersectionExampleScenario.node[808].nic.mac1609_4 	TimesIntoBackoff 	0
scalar IntersectionExampleScenario.node[808].nic.mac1609_4 	SlotsBackoff 	0
scalar IntersectionExampleScenario.node[808].nic.mac1609_4 	NumInternalContention 	0
scalar IntersectionExampleScenario.node[808].nic.mac1609_4 	totalBusyTime 	0
scalar IntersectionExampleScenario.node[808].veinsmobility 	startTime 	1784
scalar IntersectionExampleScenario.node[808].veinsmobility 	totalTime 	16
scalar IntersectionExampleScenario.node[808].veinsmobility 	stopTime 	1800
scalar IntersectionExampleScenario.node[808].veinsmobility 	minSpeed 	5.6500000953674
scalar IntersectionExampleScenario.node[808].veinsmobility 	maxSpeed 	16.27499961853
scalar IntersectionExampleScenario.node[808].veinsmobility 	totalDistance 	225.59320068359
scalar IntersectionExampleScenario.node[808].veinsmobility 	totalCO2Emission 	68.034403740323
scalar IntersectionExampleScenario.node[809].appl 	VehicleRemoved 	0
scalar IntersectionExampleScenario.node[809].appl 	ArrivedAtDest 	0
scalar IntersectionExampleScenario.node[809].appl 	IntersectionEnterTime 	1789.5
scalar IntersectionExampleScenario.node[809].appl 	IntersectionExitTime 	-1
scalar IntersectionExampleScenario.node[809].appl 	NumberOfCollisions 	0
scalar IntersectionExampleScenario.node[809].nic.phy80211p 	busyTime 	0
scalar IntersectionExampleScenario.node[809].nic.mac1609_4 	ReceivedUnicastPackets 	0
scalar IntersectionExampleScenario.node[809].nic.mac1609_4 	ReceivedBroadcasts 	0
scalar IntersectionExampleScenario.node[809].nic.mac1609_4 	SentPackets 	0
scalar IntersectionExampleScenario.node[809].nic.mac1609_4 	SNIRLostPackets 	0
scalar IntersectionExampleScenario.node[809].nic.mac1609_4 	RXTXLostPackets 	0
scalar IntersectionExampleScenario.node[809].nic.mac1609_4 	TotalLostPackets 	0
scalar IntersectionExampleScenario.node[809].nic.mac1609_4 	DroppedPacketsInMac 	0
scalar IntersectionExampleScenario.node[809].nic.mac1609_4 	TooLittleTime 	0
scalar IntersectionExampleScenario.node[809].nic.mac1609_4 	TimesIntoBackoff 	0
scalar IntersectionExampleScenario.node[809].nic.mac1609_4 	SlotsBackoff 	0
scalar IntersectionExampleScenario.node[809].nic.mac1609_4 	NumInternalContention 	0
scalar IntersectionExampleScenario.node[809].nic.mac1609_4 	totalBusyTime 	0
scalar IntersectionExampleScenario.node[809].veinsmobility 	startTime 	1789.5
scalar IntersectionExampleScenario.node[809].veinsmobility 	totalTime 	10.5
scalar IntersectionExampleScenario.node[809].veinsmobility 	stopTime 	1800
scalar IntersectionExampleScenario.node[809].veinsmobility 	minSpeed 	5.6500000953674
scalar IntersectionExampleScenario.node[809].veinsmobility 	maxSpeed 	15.02499961853
scalar IntersectionExampleScenario.node[809].veinsmobility 	totalDistance 	137.0288772583
scalar IntersectionExampleScenario.node[809].veinsmobility 	totalCO2Emission 	44.066455516981
scalar IntersectionExampleScenario.node[810].appl 	VehicleRemoved 	0
scalar IntersectionExampleScenario.node[810].appl 	ArrivedAtDest 	0
scalar IntersectionExampleScenario.node[810].appl 	IntersectionEnterTime 	1790.5
scalar IntersectionExampleScenario.node[810].appl 	IntersectionExitTime 	-1
scalar IntersectionExampleScenario.node[810].appl 	NumberOfCollisions 	0
scalar IntersectionExampleScenario.node[810].nic.phy80211p 	busyTime 	0
scalar IntersectionExampleScenario.node[810].nic.mac1609_4 	ReceivedUnicastPackets 	0
scalar IntersectionExampleScenario.node[810].nic.mac1609_4 	ReceivedBroadcasts 	0
scalar IntersectionExampleScenario.node[810].nic.mac1609_4 	SentPackets 	0
scalar IntersectionExampleScenario.node[810].nic.mac1609_4 	SNIRLostPackets 	0
scalar IntersectionExampleScenario.node[810].nic.mac1609_4 	RXTXLostPackets 	0
scalar IntersectionExampleScenario.node[810].nic.mac1609_4 	TotalLostPackets 	0
scalar IntersectionExampleScenario.node[810].nic.mac1609_4 	DroppedPacketsInMac 	0
scalar IntersectionExampleScenario.node[810].nic.mac1609_4 	TooLittleTime 	0
scalar IntersectionExampleScenario.node[810].nic.mac1609_4 	TimesIntoBackoff 	0
scalar IntersectionExampleScenario.node[810].nic.mac1609_4 	SlotsBackoff 	0
scalar IntersectionExampleScenario.node[810].nic.mac1609_4 	NumInternalContention 	0
scalar IntersectionExampleScenario.node[810].nic.mac1609_4 	totalBusyTime 	0
scalar IntersectionExampleScenario.node[810].veinsmobility 	startTime 	1790.5
scalar IntersectionExampleScenario.node[810].veinsmobility 	totalTime 	9.5
scalar IntersectionExampleScenario.node[810].veinsmobility 	stopTime 	1800
scalar IntersectionExampleScenario.node[810].veinsmobility 	minSpeed 	5.6500000953674
scalar IntersectionExampleScenario.node[810].veinsmobility 	maxSpeed 	15.64999961853
scalar IntersectionExampleScenario.node[810].veinsmobility 	totalDistance 	124.81836700439
scalar IntersectionExampleScenario.node[810].veinsmobility 	totalCO2Emission 	43.994022306694
scalar IntersectionExampleScenario.node[811].appl 	VehicleRemoved 	0
scalar IntersectionExampleScenario.node[811].appl 	ArrivedAtDest 	0
scalar IntersectionExampleScenario.node[811].appl 	IntersectionEnterTime 	1796.75
scalar IntersectionExampleScenario.node[811].appl 	IntersectionExitTime 	-1
scalar IntersectionExampleScenario.node[811].appl 	NumberOfCollisions 	0
scalar IntersectionExampleScenario.node[811].nic.phy80211p 	busyTime 	0
scalar IntersectionExampleScenario.node[811].nic.mac1609_4 	ReceivedUnicastPackets 	0
scalar IntersectionExampleScenario.node[811].nic.mac1609_4 	ReceivedBroadcasts 	0
scalar IntersectionExampleScenario.node[811].nic.mac1609_4 	SentPackets 	0
scalar IntersectionExampleScenario.node[811].nic.mac1609_4 	SNIRLostPackets 	0
scalar IntersectionExampleScenario.node[811].nic.mac1609_4 	RXTXLostPackets 	0
scalar IntersectionExampleScenario.node[811].nic.mac1609_4 	TotalLostPackets 	0
scalar IntersectionExampleScenario.node[811].nic.mac1609_4 	DroppedPacketsInMac 	0
scalar IntersectionExampleScenario.node[811].nic.mac1609_4 	TooLittleTime 	0
scalar IntersectionExampleScenario.node[811].nic.mac1609_4 	TimesIntoBackoff 	0
scalar IntersectionExampleScenario.node[811].nic.mac1609_4 	SlotsBackoff 	0
scalar IntersectionExampleScenario.node[811].nic.mac1609_4 	NumInternalContention 	0
scalar IntersectionExampleScenario.node[811].nic.mac1609_4 	totalBusyTime 	0
scalar IntersectionExampleScenario.node[811].veinsmobility 	startTime 	1796.75
scalar IntersectionExampleScenario.node[811].veinsmobility 	totalTime 	3.25
scalar IntersectionExampleScenario.node[811].veinsmobility 	stopTime 	1800
scalar IntersectionExampleScenario.node[811].veinsmobility 	minSpeed 	5.6500000953674
scalar IntersectionExampleScenario.node[811].veinsmobility 	maxSpeed 	13.14999961853
scalar IntersectionExampleScenario.node[811].veinsmobility 	totalDistance 	29.534362792969
scalar IntersectionExampleScenario.node[811].veinsmobility 	totalCO2Emission 	22.582438530969
scalar IntersectionExampleScenario.node[812].appl 	VehicleRemoved 	0
scalar IntersectionExampleScenario.node[812].appl 	ArrivedAtDest 	0
scalar IntersectionExampleScenario.node[812].appl 	IntersectionEnterTime 	1797.75
scalar IntersectionExampleScenario.node[812].appl 	IntersectionExitTime 	-1
scalar IntersectionExampleScenario.node[812].appl 	NumberOfCollisions 	0
scalar IntersectionExampleScenario.node[812].nic.phy80211p 	busyTime 	0
scalar IntersectionExampleScenario.node[812].nic.mac1609_4 	ReceivedUnicastPackets 	0
scalar IntersectionExampleScenario.node[812].nic.mac1609_4 	ReceivedBroadcasts 	0
scalar IntersectionExampleScenario.node[812].nic.mac1609_4 	SentPackets 	0
scalar IntersectionExampleScenario.node[812].nic.mac1609_4 	SNIRLostPackets 	0
scalar IntersectionExampleScenario.node[812].nic.mac1609_4 	RXTXLostPackets 	0
scalar IntersectionExampleScenario.node[812].nic.mac1609_4 	TotalLostPackets 	0
scalar IntersectionExampleScenario.node[812].nic.mac1609_4 	DroppedPacketsInMac 	0
scalar IntersectionExampleScenario.node[812].nic.mac1609_4 	TooLittleTime 	0
scalar IntersectionExampleScenario.node[812].nic.mac1609_4 	TimesIntoBackoff 	0
scalar IntersectionExampleScenario.node[812].nic.mac1609_4 	SlotsBackoff 	0
scalar IntersectionExampleScenario.node[812].nic.mac1609_4 	NumInternalContention 	0
scalar IntersectionExampleScenario.node[812].nic.mac1609_4 	totalBusyTime 	0
scalar IntersectionExampleScenario.node[812].veinsmobility 	startTime 	1797.75
scalar IntersectionExampleScenario.node[812].veinsmobility 	totalTime 	2.25
scalar IntersectionExampleScenario.node[812].veinsmobility 	stopTime 	1800
scalar IntersectionExampleScenario.node[812].veinsmobility 	minSpeed 	5.6500000953674
scalar IntersectionExampleScenario.node[812].veinsmobility 	maxSpeed 	10.64999961853
scalar IntersectionExampleScenario.node[812].veinsmobility 	totalDistance 	17.634338378906
scalar IntersectionExampleScenario.node[812].veinsmobility 	totalCO2Emission 	13.355361796212
