version 2
run nodebug-24-20200606-21:42:50-21964
attr configname nodebug
attr datetime 20200606-21:42:50
attr experiment nodebug
attr inifile omnetpp.ini
attr iterationvars ""
attr iterationvars2 $repetition=24
attr measurement ""
attr network "\"org.car2x.veins.modules.application.ExtTraCIScenarioManagerLaunchd.IntersectionExampleScenario\""
attr processid 21964
attr repetition 24
attr replication #24
attr resultdir results
attr runnumber 24
attr seedset 24
param **.coreDebug false
param **.debug false
param *.**.nic.mac1609_4.bitrate 18Mbps
param *.**.nic.mac1609_4.txPower 20mW
param *.**.nic.mac1609_4.useServiceChannel false
param *.**.nic.phy80211p.analogueModels "xmldoc(\"config.xml\")"
param *.**.nic.phy80211p.decider "xmldoc(\"config.xml\")"
param *.**.nic.phy80211p.sensitivity -89dBm
param *.**.nic.phy80211p.thermalNoise -110dBm
param *.**.nic.phy80211p.usePropagationDelay true
param *.**.nic.phy80211p.useThermalNoise true
param *.annotations.draw false
param *.connectionManager.alpha 2.0
param *.connectionManager.carrierFrequency "5.890e9 Hz"
param *.connectionManager.pMax 20mW
param *.connectionManager.sat -89dBm
param *.connectionManager.sendDirect true
param *.manager.autoShutdown true
param *.manager.host "\"localhost\""
param *.manager.launchConfig "xmldoc(\"paramics.launchd.xml\")"
param *.manager.margin 25
param *.manager.moduleDisplayString "\"\""
param *.manager.moduleName "\"node\""
param *.manager.moduleType "\"org.car2x.veins.nodes.Car\""
param *.manager.port 9999
param *.manager.updateInterval 250ms
param *.node[*0].veinsmobility.accidentCount 0
param *.node[*0].veinsmobility.accidentDuration 30s
param *.node[*0].veinsmobility.accidentStart 75s
param *.node[*].appl.LiderSelectZoneRadio 55.0
param *.node[*].appl.ShareDataZoneRadio 110.0
param *.node[*].appl.TiempoSemaforo 30.0
param *.node[*].appl.beaconInterval 1s
param *.node[*].appl.beaconPriority 3
param *.node[*].appl.dataOnSch false
param *.node[*].appl.dataPriority 2
param *.node[*].appl.debug false
param *.node[*].appl.headerLength "256 bit"
param *.node[*].appl.maxOffset 0.005s
param *.node[*].appl.sendBeacons false
param *.node[*].appl.sendData true
param *.node[*].applType "\"Dummy\""
param *.node[*].mobilityType "\"TraCIMobility\""
param *.node[*].mobilityType.debug true
param *.node[*].veinsmobility.x 0
param *.node[*].veinsmobility.y 0
param *.node[*].veinsmobility.z 1.895
param *.node[*].veinsmobilityType "\"org.car2x.veins.modules.mobility.traci.TraCIMobility\""
param *.node[*].veinsmobilityType.debug true
param *.playgroundSizeX 8500m
param *.playgroundSizeY 8500m
param *.playgroundSizeZ 50m
param *.world.use2D false
param *.world.useTorus false

scalar IntersectionExampleScenario.node[1].appl 	VehicleRemoved 	0
scalar IntersectionExampleScenario.node[1].appl 	ArrivedAtDest 	1
scalar IntersectionExampleScenario.node[1].appl 	IntersectionEnterTime 	6.25
scalar IntersectionExampleScenario.node[1].appl 	IntersectionExitTime 	29.539543371968
scalar IntersectionExampleScenario.node[1].appl 	NumberOfCollisions 	0
scalar IntersectionExampleScenario.node[1].nic.phy80211p 	busyTime 	0
scalar IntersectionExampleScenario.node[1].nic.mac1609_4 	ReceivedUnicastPackets 	0
scalar IntersectionExampleScenario.node[1].nic.mac1609_4 	ReceivedBroadcasts 	0
scalar IntersectionExampleScenario.node[1].nic.mac1609_4 	SentPackets 	0
scalar IntersectionExampleScenario.node[1].nic.mac1609_4 	SNIRLostPackets 	0
scalar IntersectionExampleScenario.node[1].nic.mac1609_4 	RXTXLostPackets 	0
scalar IntersectionExampleScenario.node[1].nic.mac1609_4 	TotalLostPackets 	0
scalar IntersectionExampleScenario.node[1].nic.mac1609_4 	DroppedPacketsInMac 	0
scalar IntersectionExampleScenario.node[1].nic.mac1609_4 	TooLittleTime 	0
scalar IntersectionExampleScenario.node[1].nic.mac1609_4 	TimesIntoBackoff 	0
scalar IntersectionExampleScenario.node[1].nic.mac1609_4 	SlotsBackoff 	0
scalar IntersectionExampleScenario.node[1].nic.mac1609_4 	NumInternalContention 	0
scalar IntersectionExampleScenario.node[1].nic.mac1609_4 	totalBusyTime 	0
scalar IntersectionExampleScenario.node[1].veinsmobility 	startTime 	6.25
scalar IntersectionExampleScenario.node[1].veinsmobility 	totalTime 	40
scalar IntersectionExampleScenario.node[1].veinsmobility 	stopTime 	46.5
scalar IntersectionExampleScenario.node[1].veinsmobility 	minSpeed 	5.6500000953674
scalar IntersectionExampleScenario.node[1].veinsmobility 	maxSpeed 	15.875
scalar IntersectionExampleScenario.node[1].veinsmobility 	totalDistance 	545.62878780216
scalar IntersectionExampleScenario.node[1].veinsmobility 	totalCO2Emission 	127.12384671915
scalar IntersectionExampleScenario.node[5].appl 	VehicleRemoved 	0
scalar IntersectionExampleScenario.node[5].appl 	ArrivedAtDest 	1
scalar IntersectionExampleScenario.node[5].appl 	IntersectionEnterTime 	10
scalar IntersectionExampleScenario.node[5].appl 	IntersectionExitTime 	33.585029857524
scalar IntersectionExampleScenario.node[5].appl 	NumberOfCollisions 	0
scalar IntersectionExampleScenario.node[5].nic.phy80211p 	busyTime 	0
scalar IntersectionExampleScenario.node[5].nic.mac1609_4 	ReceivedUnicastPackets 	0
scalar IntersectionExampleScenario.node[5].nic.mac1609_4 	ReceivedBroadcasts 	0
scalar IntersectionExampleScenario.node[5].nic.mac1609_4 	SentPackets 	0
scalar IntersectionExampleScenario.node[5].nic.mac1609_4 	SNIRLostPackets 	0
scalar IntersectionExampleScenario.node[5].nic.mac1609_4 	RXTXLostPackets 	0
scalar IntersectionExampleScenario.node[5].nic.mac1609_4 	TotalLostPackets 	0
scalar IntersectionExampleScenario.node[5].nic.mac1609_4 	DroppedPacketsInMac 	0
scalar IntersectionExampleScenario.node[5].nic.mac1609_4 	TooLittleTime 	0
scalar IntersectionExampleScenario.node[5].nic.mac1609_4 	TimesIntoBackoff 	0
scalar IntersectionExampleScenario.node[5].nic.mac1609_4 	SlotsBackoff 	0
scalar IntersectionExampleScenario.node[5].nic.mac1609_4 	NumInternalContention 	0
scalar IntersectionExampleScenario.node[5].nic.mac1609_4 	totalBusyTime 	0
scalar IntersectionExampleScenario.node[5].veinsmobility 	startTime 	10
scalar IntersectionExampleScenario.node[5].veinsmobility 	totalTime 	39.75
scalar IntersectionExampleScenario.node[5].veinsmobility 	stopTime 	50
scalar IntersectionExampleScenario.node[5].veinsmobility 	minSpeed 	5.6500000953674
scalar IntersectionExampleScenario.node[5].veinsmobility 	maxSpeed 	16
scalar IntersectionExampleScenario.node[5].veinsmobility 	totalDistance 	560.17509158182
scalar IntersectionExampleScenario.node[5].veinsmobility 	totalCO2Emission 	125.9913872123
scalar IntersectionExampleScenario.node[8].appl 	VehicleRemoved 	0
scalar IntersectionExampleScenario.node[8].appl 	ArrivedAtDest 	1
scalar IntersectionExampleScenario.node[8].appl 	IntersectionEnterTime 	15.75
scalar IntersectionExampleScenario.node[8].appl 	IntersectionExitTime 	38.312459611188
scalar IntersectionExampleScenario.node[8].appl 	NumberOfCollisions 	0
scalar IntersectionExampleScenario.node[8].nic.phy80211p 	busyTime 	0
scalar IntersectionExampleScenario.node[8].nic.mac1609_4 	ReceivedUnicastPackets 	0
scalar IntersectionExampleScenario.node[8].nic.mac1609_4 	ReceivedBroadcasts 	0
scalar IntersectionExampleScenario.node[8].nic.mac1609_4 	SentPackets 	0
scalar IntersectionExampleScenario.node[8].nic.mac1609_4 	SNIRLostPackets 	0
scalar IntersectionExampleScenario.node[8].nic.mac1609_4 	RXTXLostPackets 	0
scalar IntersectionExampleScenario.node[8].nic.mac1609_4 	TotalLostPackets 	0
scalar IntersectionExampleScenario.node[8].nic.mac1609_4 	DroppedPacketsInMac 	0
scalar IntersectionExampleScenario.node[8].nic.mac1609_4 	TooLittleTime 	0
scalar IntersectionExampleScenario.node[8].nic.mac1609_4 	TimesIntoBackoff 	0
scalar IntersectionExampleScenario.node[8].nic.mac1609_4 	SlotsBackoff 	0
scalar IntersectionExampleScenario.node[8].nic.mac1609_4 	NumInternalContention 	0
scalar IntersectionExampleScenario.node[8].nic.mac1609_4 	totalBusyTime 	0
scalar IntersectionExampleScenario.node[8].veinsmobility 	startTime 	15.75
scalar IntersectionExampleScenario.node[8].veinsmobility 	totalTime 	38.25
scalar IntersectionExampleScenario.node[8].veinsmobility 	stopTime 	54.25
scalar IntersectionExampleScenario.node[8].veinsmobility 	minSpeed 	5.6500000953674
scalar IntersectionExampleScenario.node[8].veinsmobility 	maxSpeed 	16.125
scalar IntersectionExampleScenario.node[8].veinsmobility 	totalDistance 	554.53253173828
scalar IntersectionExampleScenario.node[8].veinsmobility 	totalCO2Emission 	120.14146876042
scalar IntersectionExampleScenario.node[0].appl 	VehicleRemoved 	0
scalar IntersectionExampleScenario.node[0].appl 	ArrivedAtDest 	1
scalar IntersectionExampleScenario.node[0].appl 	IntersectionEnterTime 	3.75
scalar IntersectionExampleScenario.node[0].appl 	IntersectionExitTime 	43.277508411586
scalar IntersectionExampleScenario.node[0].appl 	NumberOfCollisions 	0
scalar IntersectionExampleScenario.node[0].nic.phy80211p 	busyTime 	0
scalar IntersectionExampleScenario.node[0].nic.mac1609_4 	ReceivedUnicastPackets 	0
scalar IntersectionExampleScenario.node[0].nic.mac1609_4 	ReceivedBroadcasts 	0
scalar IntersectionExampleScenario.node[0].nic.mac1609_4 	SentPackets 	0
scalar IntersectionExampleScenario.node[0].nic.mac1609_4 	SNIRLostPackets 	0
scalar IntersectionExampleScenario.node[0].nic.mac1609_4 	RXTXLostPackets 	0
scalar IntersectionExampleScenario.node[0].nic.mac1609_4 	TotalLostPackets 	0
scalar IntersectionExampleScenario.node[0].nic.mac1609_4 	DroppedPacketsInMac 	0
scalar IntersectionExampleScenario.node[0].nic.mac1609_4 	TooLittleTime 	0
scalar IntersectionExampleScenario.node[0].nic.mac1609_4 	TimesIntoBackoff 	0
scalar IntersectionExampleScenario.node[0].nic.mac1609_4 	SlotsBackoff 	0
scalar IntersectionExampleScenario.node[0].nic.mac1609_4 	NumInternalContention 	0
scalar IntersectionExampleScenario.node[0].nic.mac1609_4 	totalBusyTime 	0
scalar IntersectionExampleScenario.node[0].veinsmobility 	startTime 	3.75
scalar IntersectionExampleScenario.node[0].veinsmobility 	totalTime 	55.25
scalar IntersectionExampleScenario.node[0].veinsmobility 	stopTime 	59.25
scalar IntersectionExampleScenario.node[0].veinsmobility 	minSpeed 	0
scalar IntersectionExampleScenario.node[0].veinsmobility 	maxSpeed 	16
scalar IntersectionExampleScenario.node[0].veinsmobility 	totalDistance 	554.25540924072
scalar IntersectionExampleScenario.node[0].veinsmobility 	totalCO2Emission 	150.69035248082
scalar IntersectionExampleScenario.node[2].appl 	VehicleRemoved 	0
scalar IntersectionExampleScenario.node[2].appl 	ArrivedAtDest 	1
scalar IntersectionExampleScenario.node[2].appl 	IntersectionEnterTime 	6.75
scalar IntersectionExampleScenario.node[2].appl 	IntersectionExitTime 	43.295801844186
scalar IntersectionExampleScenario.node[2].appl 	NumberOfCollisions 	0
scalar IntersectionExampleScenario.node[2].nic.phy80211p 	busyTime 	0
scalar IntersectionExampleScenario.node[2].nic.mac1609_4 	ReceivedUnicastPackets 	0
scalar IntersectionExampleScenario.node[2].nic.mac1609_4 	ReceivedBroadcasts 	0
scalar IntersectionExampleScenario.node[2].nic.mac1609_4 	SentPackets 	0
scalar IntersectionExampleScenario.node[2].nic.mac1609_4 	SNIRLostPackets 	0
scalar IntersectionExampleScenario.node[2].nic.mac1609_4 	RXTXLostPackets 	0
scalar IntersectionExampleScenario.node[2].nic.mac1609_4 	TotalLostPackets 	0
scalar IntersectionExampleScenario.node[2].nic.mac1609_4 	DroppedPacketsInMac 	0
scalar IntersectionExampleScenario.node[2].nic.mac1609_4 	TooLittleTime 	0
scalar IntersectionExampleScenario.node[2].nic.mac1609_4 	TimesIntoBackoff 	0
scalar IntersectionExampleScenario.node[2].nic.mac1609_4 	SlotsBackoff 	0
scalar IntersectionExampleScenario.node[2].nic.mac1609_4 	NumInternalContention 	0
scalar IntersectionExampleScenario.node[2].nic.mac1609_4 	totalBusyTime 	0
scalar IntersectionExampleScenario.node[2].veinsmobility 	startTime 	6.75
scalar IntersectionExampleScenario.node[2].veinsmobility 	totalTime 	52.5
scalar IntersectionExampleScenario.node[2].veinsmobility 	stopTime 	59.5
scalar IntersectionExampleScenario.node[2].veinsmobility 	minSpeed 	0
scalar IntersectionExampleScenario.node[2].veinsmobility 	maxSpeed 	15.64999961853
scalar IntersectionExampleScenario.node[2].veinsmobility 	totalDistance 	552.47970581055
scalar IntersectionExampleScenario.node[2].veinsmobility 	totalCO2Emission 	144.9004845165
scalar IntersectionExampleScenario.node[3].appl 	VehicleRemoved 	0
scalar IntersectionExampleScenario.node[3].appl 	ArrivedAtDest 	1
scalar IntersectionExampleScenario.node[3].appl 	IntersectionEnterTime 	8.25
scalar IntersectionExampleScenario.node[3].appl 	IntersectionExitTime 	44.030911721231
scalar IntersectionExampleScenario.node[3].appl 	NumberOfCollisions 	0
scalar IntersectionExampleScenario.node[3].nic.phy80211p 	busyTime 	0
scalar IntersectionExampleScenario.node[3].nic.mac1609_4 	ReceivedUnicastPackets 	0
scalar IntersectionExampleScenario.node[3].nic.mac1609_4 	ReceivedBroadcasts 	0
scalar IntersectionExampleScenario.node[3].nic.mac1609_4 	SentPackets 	0
scalar IntersectionExampleScenario.node[3].nic.mac1609_4 	SNIRLostPackets 	0
scalar IntersectionExampleScenario.node[3].nic.mac1609_4 	RXTXLostPackets 	0
scalar IntersectionExampleScenario.node[3].nic.mac1609_4 	TotalLostPackets 	0
scalar IntersectionExampleScenario.node[3].nic.mac1609_4 	DroppedPacketsInMac 	0
scalar IntersectionExampleScenario.node[3].nic.mac1609_4 	TooLittleTime 	0
scalar IntersectionExampleScenario.node[3].nic.mac1609_4 	TimesIntoBackoff 	0
scalar IntersectionExampleScenario.node[3].nic.mac1609_4 	SlotsBackoff 	0
scalar IntersectionExampleScenario.node[3].nic.mac1609_4 	NumInternalContention 	0
scalar IntersectionExampleScenario.node[3].nic.mac1609_4 	totalBusyTime 	0
scalar IntersectionExampleScenario.node[3].veinsmobility 	startTime 	8.25
scalar IntersectionExampleScenario.node[3].veinsmobility 	totalTime 	52.75
scalar IntersectionExampleScenario.node[3].veinsmobility 	stopTime 	61.25
scalar IntersectionExampleScenario.node[3].veinsmobility 	minSpeed 	0
scalar IntersectionExampleScenario.node[3].veinsmobility 	maxSpeed 	15.25
scalar IntersectionExampleScenario.node[3].veinsmobility 	totalDistance 	564.36046488792
scalar IntersectionExampleScenario.node[3].veinsmobility 	totalCO2Emission 	143.46139087385
scalar IntersectionExampleScenario.node[6].appl 	VehicleRemoved 	0
scalar IntersectionExampleScenario.node[6].appl 	ArrivedAtDest 	1
scalar IntersectionExampleScenario.node[6].appl 	IntersectionEnterTime 	10.25
scalar IntersectionExampleScenario.node[6].appl 	IntersectionExitTime 	45.330278184381
scalar IntersectionExampleScenario.node[6].appl 	NumberOfCollisions 	0
scalar IntersectionExampleScenario.node[6].nic.phy80211p 	busyTime 	0
scalar IntersectionExampleScenario.node[6].nic.mac1609_4 	ReceivedUnicastPackets 	0
scalar IntersectionExampleScenario.node[6].nic.mac1609_4 	ReceivedBroadcasts 	0
scalar IntersectionExampleScenario.node[6].nic.mac1609_4 	SentPackets 	0
scalar IntersectionExampleScenario.node[6].nic.mac1609_4 	SNIRLostPackets 	0
scalar IntersectionExampleScenario.node[6].nic.mac1609_4 	RXTXLostPackets 	0
scalar IntersectionExampleScenario.node[6].nic.mac1609_4 	TotalLostPackets 	0
scalar IntersectionExampleScenario.node[6].nic.mac1609_4 	DroppedPacketsInMac 	0
scalar IntersectionExampleScenario.node[6].nic.mac1609_4 	TooLittleTime 	0
scalar IntersectionExampleScenario.node[6].nic.mac1609_4 	TimesIntoBackoff 	0
scalar IntersectionExampleScenario.node[6].nic.mac1609_4 	SlotsBackoff 	0
scalar IntersectionExampleScenario.node[6].nic.mac1609_4 	NumInternalContention 	0
scalar IntersectionExampleScenario.node[6].nic.mac1609_4 	totalBusyTime 	0
scalar IntersectionExampleScenario.node[6].veinsmobility 	startTime 	10.25
scalar IntersectionExampleScenario.node[6].veinsmobility 	totalTime 	51
scalar IntersectionExampleScenario.node[6].veinsmobility 	stopTime 	61.5
scalar IntersectionExampleScenario.node[6].veinsmobility 	minSpeed 	0
scalar IntersectionExampleScenario.node[6].veinsmobility 	maxSpeed 	15.64999961853
scalar IntersectionExampleScenario.node[6].veinsmobility 	totalDistance 	551.52445220947
scalar IntersectionExampleScenario.node[6].veinsmobility 	totalCO2Emission 	137.92078964644
scalar IntersectionExampleScenario.node[4].appl 	VehicleRemoved 	0
scalar IntersectionExampleScenario.node[4].appl 	ArrivedAtDest 	1
scalar IntersectionExampleScenario.node[4].appl 	IntersectionEnterTime 	9.5
scalar IntersectionExampleScenario.node[4].appl 	IntersectionExitTime 	46.611680950067
scalar IntersectionExampleScenario.node[4].appl 	NumberOfCollisions 	0
scalar IntersectionExampleScenario.node[4].nic.phy80211p 	busyTime 	0
scalar IntersectionExampleScenario.node[4].nic.mac1609_4 	ReceivedUnicastPackets 	0
scalar IntersectionExampleScenario.node[4].nic.mac1609_4 	ReceivedBroadcasts 	0
scalar IntersectionExampleScenario.node[4].nic.mac1609_4 	SentPackets 	0
scalar IntersectionExampleScenario.node[4].nic.mac1609_4 	SNIRLostPackets 	0
scalar IntersectionExampleScenario.node[4].nic.mac1609_4 	RXTXLostPackets 	0
scalar IntersectionExampleScenario.node[4].nic.mac1609_4 	TotalLostPackets 	0
scalar IntersectionExampleScenario.node[4].nic.mac1609_4 	DroppedPacketsInMac 	0
scalar IntersectionExampleScenario.node[4].nic.mac1609_4 	TooLittleTime 	0
scalar IntersectionExampleScenario.node[4].nic.mac1609_4 	TimesIntoBackoff 	0
scalar IntersectionExampleScenario.node[4].nic.mac1609_4 	SlotsBackoff 	0
scalar IntersectionExampleScenario.node[4].nic.mac1609_4 	NumInternalContention 	0
scalar IntersectionExampleScenario.node[4].nic.mac1609_4 	totalBusyTime 	0
scalar IntersectionExampleScenario.node[4].veinsmobility 	startTime 	9.5
scalar IntersectionExampleScenario.node[4].veinsmobility 	totalTime 	53.25
scalar IntersectionExampleScenario.node[4].veinsmobility 	stopTime 	63
scalar IntersectionExampleScenario.node[4].veinsmobility 	minSpeed 	0
scalar IntersectionExampleScenario.node[4].veinsmobility 	maxSpeed 	15.967874526978
scalar IntersectionExampleScenario.node[4].veinsmobility 	totalDistance 	577.93291462746
scalar IntersectionExampleScenario.node[4].veinsmobility 	totalCO2Emission 	152.27714056565
scalar IntersectionExampleScenario.node[7].appl 	VehicleRemoved 	0
scalar IntersectionExampleScenario.node[7].appl 	ArrivedAtDest 	1
scalar IntersectionExampleScenario.node[7].appl 	IntersectionEnterTime 	14.75
scalar IntersectionExampleScenario.node[7].appl 	IntersectionExitTime 	47.100902412232
scalar IntersectionExampleScenario.node[7].appl 	NumberOfCollisions 	0
scalar IntersectionExampleScenario.node[7].nic.phy80211p 	busyTime 	0
scalar IntersectionExampleScenario.node[7].nic.mac1609_4 	ReceivedUnicastPackets 	0
scalar IntersectionExampleScenario.node[7].nic.mac1609_4 	ReceivedBroadcasts 	0
scalar IntersectionExampleScenario.node[7].nic.mac1609_4 	SentPackets 	0
scalar IntersectionExampleScenario.node[7].nic.mac1609_4 	SNIRLostPackets 	0
scalar IntersectionExampleScenario.node[7].nic.mac1609_4 	RXTXLostPackets 	0
scalar IntersectionExampleScenario.node[7].nic.mac1609_4 	TotalLostPackets 	0
scalar IntersectionExampleScenario.node[7].nic.mac1609_4 	DroppedPacketsInMac 	0
scalar IntersectionExampleScenario.node[7].nic.mac1609_4 	TooLittleTime 	0
scalar IntersectionExampleScenario.node[7].nic.mac1609_4 	TimesIntoBackoff 	0
scalar IntersectionExampleScenario.node[7].nic.mac1609_4 	SlotsBackoff 	0
scalar IntersectionExampleScenario.node[7].nic.mac1609_4 	NumInternalContention 	0
scalar IntersectionExampleScenario.node[7].nic.mac1609_4 	totalBusyTime 	0
scalar IntersectionExampleScenario.node[7].veinsmobility 	startTime 	14.75
scalar IntersectionExampleScenario.node[7].veinsmobility 	totalTime 	48
scalar IntersectionExampleScenario.node[7].veinsmobility 	stopTime 	63
scalar IntersectionExampleScenario.node[7].veinsmobility 	minSpeed 	2.8164429664612
scalar IntersectionExampleScenario.node[7].veinsmobility 	maxSpeed 	15.64999961853
scalar IntersectionExampleScenario.node[7].veinsmobility 	totalDistance 	551.31070709229
scalar IntersectionExampleScenario.node[7].veinsmobility 	totalCO2Emission 	138.59759067052
scalar IntersectionExampleScenario.node[11].appl 	VehicleRemoved 	0
scalar IntersectionExampleScenario.node[11].appl 	ArrivedAtDest 	1
scalar IntersectionExampleScenario.node[11].appl 	IntersectionEnterTime 	23.25
scalar IntersectionExampleScenario.node[11].appl 	IntersectionExitTime 	48.602889086382
scalar IntersectionExampleScenario.node[11].appl 	NumberOfCollisions 	0
scalar IntersectionExampleScenario.node[11].nic.phy80211p 	busyTime 	0
scalar IntersectionExampleScenario.node[11].nic.mac1609_4 	ReceivedUnicastPackets 	0
scalar IntersectionExampleScenario.node[11].nic.mac1609_4 	ReceivedBroadcasts 	0
scalar IntersectionExampleScenario.node[11].nic.mac1609_4 	SentPackets 	0
scalar IntersectionExampleScenario.node[11].nic.mac1609_4 	SNIRLostPackets 	0
scalar IntersectionExampleScenario.node[11].nic.mac1609_4 	RXTXLostPackets 	0
scalar IntersectionExampleScenario.node[11].nic.mac1609_4 	TotalLostPackets 	0
scalar IntersectionExampleScenario.node[11].nic.mac1609_4 	DroppedPacketsInMac 	0
scalar IntersectionExampleScenario.node[11].nic.mac1609_4 	TooLittleTime 	0
scalar IntersectionExampleScenario.node[11].nic.mac1609_4 	TimesIntoBackoff 	0
scalar IntersectionExampleScenario.node[11].nic.mac1609_4 	SlotsBackoff 	0
scalar IntersectionExampleScenario.node[11].nic.mac1609_4 	NumInternalContention 	0
scalar IntersectionExampleScenario.node[11].nic.mac1609_4 	totalBusyTime 	0
scalar IntersectionExampleScenario.node[11].veinsmobility 	startTime 	23.25
scalar IntersectionExampleScenario.node[11].veinsmobility 	totalTime 	41.25
scalar IntersectionExampleScenario.node[11].veinsmobility 	stopTime 	64.75
scalar IntersectionExampleScenario.node[11].veinsmobility 	minSpeed 	5.6500000953674
scalar IntersectionExampleScenario.node[11].veinsmobility 	maxSpeed 	15.64999961853
scalar IntersectionExampleScenario.node[11].veinsmobility 	totalDistance 	553.1164855957
scalar IntersectionExampleScenario.node[11].veinsmobility 	totalCO2Emission 	135.69919823861
scalar IntersectionExampleScenario.node[10].appl 	VehicleRemoved 	0
scalar IntersectionExampleScenario.node[10].appl 	ArrivedAtDest 	1
scalar IntersectionExampleScenario.node[10].appl 	IntersectionEnterTime 	18.75
scalar IntersectionExampleScenario.node[10].appl 	IntersectionExitTime 	49.335542691988
scalar IntersectionExampleScenario.node[10].appl 	NumberOfCollisions 	0
scalar IntersectionExampleScenario.node[10].nic.phy80211p 	busyTime 	0
scalar IntersectionExampleScenario.node[10].nic.mac1609_4 	ReceivedUnicastPackets 	0
scalar IntersectionExampleScenario.node[10].nic.mac1609_4 	ReceivedBroadcasts 	0
scalar IntersectionExampleScenario.node[10].nic.mac1609_4 	SentPackets 	0
scalar IntersectionExampleScenario.node[10].nic.mac1609_4 	SNIRLostPackets 	0
scalar IntersectionExampleScenario.node[10].nic.mac1609_4 	RXTXLostPackets 	0
scalar IntersectionExampleScenario.node[10].nic.mac1609_4 	TotalLostPackets 	0
scalar IntersectionExampleScenario.node[10].nic.mac1609_4 	DroppedPacketsInMac 	0
scalar IntersectionExampleScenario.node[10].nic.mac1609_4 	TooLittleTime 	0
scalar IntersectionExampleScenario.node[10].nic.mac1609_4 	TimesIntoBackoff 	0
scalar IntersectionExampleScenario.node[10].nic.mac1609_4 	SlotsBackoff 	0
scalar IntersectionExampleScenario.node[10].nic.mac1609_4 	NumInternalContention 	0
scalar IntersectionExampleScenario.node[10].nic.mac1609_4 	totalBusyTime 	0
scalar IntersectionExampleScenario.node[10].veinsmobility 	startTime 	18.75
scalar IntersectionExampleScenario.node[10].veinsmobility 	totalTime 	46.75
scalar IntersectionExampleScenario.node[10].veinsmobility 	stopTime 	65.75
scalar IntersectionExampleScenario.node[10].veinsmobility 	minSpeed 	2.5778374671936
scalar IntersectionExampleScenario.node[10].veinsmobility 	maxSpeed 	15.342477798462
scalar IntersectionExampleScenario.node[10].veinsmobility 	totalDistance 	538.21060943604
scalar IntersectionExampleScenario.node[10].veinsmobility 	totalCO2Emission 	131.67414129461
scalar IntersectionExampleScenario.node[12].appl 	VehicleRemoved 	0
scalar IntersectionExampleScenario.node[12].appl 	ArrivedAtDest 	1
scalar IntersectionExampleScenario.node[12].appl 	IntersectionEnterTime 	23.5
scalar IntersectionExampleScenario.node[12].appl 	IntersectionExitTime 	50.286211834144
scalar IntersectionExampleScenario.node[12].appl 	NumberOfCollisions 	0
scalar IntersectionExampleScenario.node[12].nic.phy80211p 	busyTime 	0
scalar IntersectionExampleScenario.node[12].nic.mac1609_4 	ReceivedUnicastPackets 	0
scalar IntersectionExampleScenario.node[12].nic.mac1609_4 	ReceivedBroadcasts 	0
scalar IntersectionExampleScenario.node[12].nic.mac1609_4 	SentPackets 	0
scalar IntersectionExampleScenario.node[12].nic.mac1609_4 	SNIRLostPackets 	0
scalar IntersectionExampleScenario.node[12].nic.mac1609_4 	RXTXLostPackets 	0
scalar IntersectionExampleScenario.node[12].nic.mac1609_4 	TotalLostPackets 	0
scalar IntersectionExampleScenario.node[12].nic.mac1609_4 	DroppedPacketsInMac 	0
scalar IntersectionExampleScenario.node[12].nic.mac1609_4 	TooLittleTime 	0
scalar IntersectionExampleScenario.node[12].nic.mac1609_4 	TimesIntoBackoff 	0
scalar IntersectionExampleScenario.node[12].nic.mac1609_4 	SlotsBackoff 	0
scalar IntersectionExampleScenario.node[12].nic.mac1609_4 	NumInternalContention 	0
scalar IntersectionExampleScenario.node[12].nic.mac1609_4 	totalBusyTime 	0
scalar IntersectionExampleScenario.node[12].veinsmobility 	startTime 	23.5
scalar IntersectionExampleScenario.node[12].veinsmobility 	totalTime 	42.5
scalar IntersectionExampleScenario.node[12].veinsmobility 	stopTime 	66.25
scalar IntersectionExampleScenario.node[12].veinsmobility 	minSpeed 	5.6500000953674
scalar IntersectionExampleScenario.node[12].veinsmobility 	maxSpeed 	15.976718902588
scalar IntersectionExampleScenario.node[12].veinsmobility 	totalDistance 	577.0654296875
scalar IntersectionExampleScenario.node[12].veinsmobility 	totalCO2Emission 	134.37764792885
scalar IntersectionExampleScenario.node[9].appl 	VehicleRemoved 	0
scalar IntersectionExampleScenario.node[9].appl 	ArrivedAtDest 	1
scalar IntersectionExampleScenario.node[9].appl 	IntersectionEnterTime 	17.75
scalar IntersectionExampleScenario.node[9].appl 	IntersectionExitTime 	51.278962149983
scalar IntersectionExampleScenario.node[9].appl 	NumberOfCollisions 	0
scalar IntersectionExampleScenario.node[9].nic.phy80211p 	busyTime 	0
scalar IntersectionExampleScenario.node[9].nic.mac1609_4 	ReceivedUnicastPackets 	0
scalar IntersectionExampleScenario.node[9].nic.mac1609_4 	ReceivedBroadcasts 	0
scalar IntersectionExampleScenario.node[9].nic.mac1609_4 	SentPackets 	0
scalar IntersectionExampleScenario.node[9].nic.mac1609_4 	SNIRLostPackets 	0
scalar IntersectionExampleScenario.node[9].nic.mac1609_4 	RXTXLostPackets 	0
scalar IntersectionExampleScenario.node[9].nic.mac1609_4 	TotalLostPackets 	0
scalar IntersectionExampleScenario.node[9].nic.mac1609_4 	DroppedPacketsInMac 	0
scalar IntersectionExampleScenario.node[9].nic.mac1609_4 	TooLittleTime 	0
scalar IntersectionExampleScenario.node[9].nic.mac1609_4 	TimesIntoBackoff 	0
scalar IntersectionExampleScenario.node[9].nic.mac1609_4 	SlotsBackoff 	0
scalar IntersectionExampleScenario.node[9].nic.mac1609_4 	NumInternalContention 	0
scalar IntersectionExampleScenario.node[9].nic.mac1609_4 	totalBusyTime 	0
scalar IntersectionExampleScenario.node[9].veinsmobility 	startTime 	17.75
scalar IntersectionExampleScenario.node[9].veinsmobility 	totalTime 	49.5
scalar IntersectionExampleScenario.node[9].veinsmobility 	stopTime 	67.5
scalar IntersectionExampleScenario.node[9].veinsmobility 	minSpeed 	4.6869268417358
scalar IntersectionExampleScenario.node[9].veinsmobility 	maxSpeed 	16.5
scalar IntersectionExampleScenario.node[9].veinsmobility 	totalDistance 	557.17106279506
scalar IntersectionExampleScenario.node[9].veinsmobility 	totalCO2Emission 	154.64858629457
scalar IntersectionExampleScenario.node[13].appl 	VehicleRemoved 	0
scalar IntersectionExampleScenario.node[13].appl 	ArrivedAtDest 	1
scalar IntersectionExampleScenario.node[13].appl 	IntersectionEnterTime 	27.75
scalar IntersectionExampleScenario.node[13].appl 	IntersectionExitTime 	53.561380284838
scalar IntersectionExampleScenario.node[13].appl 	NumberOfCollisions 	0
scalar IntersectionExampleScenario.node[13].nic.phy80211p 	busyTime 	0
scalar IntersectionExampleScenario.node[13].nic.mac1609_4 	ReceivedUnicastPackets 	0
scalar IntersectionExampleScenario.node[13].nic.mac1609_4 	ReceivedBroadcasts 	0
scalar IntersectionExampleScenario.node[13].nic.mac1609_4 	SentPackets 	0
scalar IntersectionExampleScenario.node[13].nic.mac1609_4 	SNIRLostPackets 	0
scalar IntersectionExampleScenario.node[13].nic.mac1609_4 	RXTXLostPackets 	0
scalar IntersectionExampleScenario.node[13].nic.mac1609_4 	TotalLostPackets 	0
scalar IntersectionExampleScenario.node[13].nic.mac1609_4 	DroppedPacketsInMac 	0
scalar IntersectionExampleScenario.node[13].nic.mac1609_4 	TooLittleTime 	0
scalar IntersectionExampleScenario.node[13].nic.mac1609_4 	TimesIntoBackoff 	0
scalar IntersectionExampleScenario.node[13].nic.mac1609_4 	SlotsBackoff 	0
scalar IntersectionExampleScenario.node[13].nic.mac1609_4 	NumInternalContention 	0
scalar IntersectionExampleScenario.node[13].nic.mac1609_4 	totalBusyTime 	0
scalar IntersectionExampleScenario.node[13].veinsmobility 	startTime 	27.75
scalar IntersectionExampleScenario.node[13].veinsmobility 	totalTime 	42.75
scalar IntersectionExampleScenario.node[13].veinsmobility 	stopTime 	70.75
scalar IntersectionExampleScenario.node[13].veinsmobility 	minSpeed 	5.6500000953674
scalar IntersectionExampleScenario.node[13].veinsmobility 	maxSpeed 	15.02499961853
scalar IntersectionExampleScenario.node[13].veinsmobility 	totalDistance 	552.34374626285
scalar IntersectionExampleScenario.node[13].veinsmobility 	totalCO2Emission 	126.63254666666
scalar IntersectionExampleScenario.node[17].appl 	VehicleRemoved 	0
scalar IntersectionExampleScenario.node[17].appl 	ArrivedAtDest 	1
scalar IntersectionExampleScenario.node[17].appl 	IntersectionEnterTime 	35.75
scalar IntersectionExampleScenario.node[17].appl 	IntersectionExitTime 	56.543473487021
scalar IntersectionExampleScenario.node[17].appl 	NumberOfCollisions 	0
scalar IntersectionExampleScenario.node[17].nic.phy80211p 	busyTime 	0
scalar IntersectionExampleScenario.node[17].nic.mac1609_4 	ReceivedUnicastPackets 	0
scalar IntersectionExampleScenario.node[17].nic.mac1609_4 	ReceivedBroadcasts 	0
scalar IntersectionExampleScenario.node[17].nic.mac1609_4 	SentPackets 	0
scalar IntersectionExampleScenario.node[17].nic.mac1609_4 	SNIRLostPackets 	0
scalar IntersectionExampleScenario.node[17].nic.mac1609_4 	RXTXLostPackets 	0
scalar IntersectionExampleScenario.node[17].nic.mac1609_4 	TotalLostPackets 	0
scalar IntersectionExampleScenario.node[17].nic.mac1609_4 	DroppedPacketsInMac 	0
scalar IntersectionExampleScenario.node[17].nic.mac1609_4 	TooLittleTime 	0
scalar IntersectionExampleScenario.node[17].nic.mac1609_4 	TimesIntoBackoff 	0
scalar IntersectionExampleScenario.node[17].nic.mac1609_4 	SlotsBackoff 	0
scalar IntersectionExampleScenario.node[17].nic.mac1609_4 	NumInternalContention 	0
scalar IntersectionExampleScenario.node[17].nic.mac1609_4 	totalBusyTime 	0
scalar IntersectionExampleScenario.node[17].veinsmobility 	startTime 	35.75
scalar IntersectionExampleScenario.node[17].veinsmobility 	totalTime 	36.75
scalar IntersectionExampleScenario.node[17].veinsmobility 	stopTime 	72.75
scalar IntersectionExampleScenario.node[17].veinsmobility 	minSpeed 	5.6500000953674
scalar IntersectionExampleScenario.node[17].veinsmobility 	maxSpeed 	15.64999961853
scalar IntersectionExampleScenario.node[17].veinsmobility 	totalDistance 	521.93598937988
scalar IntersectionExampleScenario.node[17].veinsmobility 	totalCO2Emission 	112.97624304171
scalar IntersectionExampleScenario.node[15].appl 	VehicleRemoved 	0
scalar IntersectionExampleScenario.node[15].appl 	ArrivedAtDest 	1
scalar IntersectionExampleScenario.node[15].appl 	IntersectionEnterTime 	34.25
scalar IntersectionExampleScenario.node[15].appl 	IntersectionExitTime 	58.588718687766
scalar IntersectionExampleScenario.node[15].appl 	NumberOfCollisions 	0
scalar IntersectionExampleScenario.node[15].nic.phy80211p 	busyTime 	0
scalar IntersectionExampleScenario.node[15].nic.mac1609_4 	ReceivedUnicastPackets 	0
scalar IntersectionExampleScenario.node[15].nic.mac1609_4 	ReceivedBroadcasts 	0
scalar IntersectionExampleScenario.node[15].nic.mac1609_4 	SentPackets 	0
scalar IntersectionExampleScenario.node[15].nic.mac1609_4 	SNIRLostPackets 	0
scalar IntersectionExampleScenario.node[15].nic.mac1609_4 	RXTXLostPackets 	0
scalar IntersectionExampleScenario.node[15].nic.mac1609_4 	TotalLostPackets 	0
scalar IntersectionExampleScenario.node[15].nic.mac1609_4 	DroppedPacketsInMac 	0
scalar IntersectionExampleScenario.node[15].nic.mac1609_4 	TooLittleTime 	0
scalar IntersectionExampleScenario.node[15].nic.mac1609_4 	TimesIntoBackoff 	0
scalar IntersectionExampleScenario.node[15].nic.mac1609_4 	SlotsBackoff 	0
scalar IntersectionExampleScenario.node[15].nic.mac1609_4 	NumInternalContention 	0
scalar IntersectionExampleScenario.node[15].nic.mac1609_4 	totalBusyTime 	0
scalar IntersectionExampleScenario.node[15].veinsmobility 	startTime 	34.25
scalar IntersectionExampleScenario.node[15].veinsmobility 	totalTime 	40.5
scalar IntersectionExampleScenario.node[15].veinsmobility 	stopTime 	75
scalar IntersectionExampleScenario.node[15].veinsmobility 	minSpeed 	5.6500000953674
scalar IntersectionExampleScenario.node[15].veinsmobility 	maxSpeed 	15.812550544739
scalar IntersectionExampleScenario.node[15].veinsmobility 	totalDistance 	543.14304733345
scalar IntersectionExampleScenario.node[15].veinsmobility 	totalCO2Emission 	131.25618594686
scalar IntersectionExampleScenario.node[18].appl 	VehicleRemoved 	0
scalar IntersectionExampleScenario.node[18].appl 	ArrivedAtDest 	1
scalar IntersectionExampleScenario.node[18].appl 	IntersectionEnterTime 	36.75
scalar IntersectionExampleScenario.node[18].appl 	IntersectionExitTime 	60.366443951119
scalar IntersectionExampleScenario.node[18].appl 	NumberOfCollisions 	0
scalar IntersectionExampleScenario.node[18].nic.phy80211p 	busyTime 	0
scalar IntersectionExampleScenario.node[18].nic.mac1609_4 	ReceivedUnicastPackets 	0
scalar IntersectionExampleScenario.node[18].nic.mac1609_4 	ReceivedBroadcasts 	0
scalar IntersectionExampleScenario.node[18].nic.mac1609_4 	SentPackets 	0
scalar IntersectionExampleScenario.node[18].nic.mac1609_4 	SNIRLostPackets 	0
scalar IntersectionExampleScenario.node[18].nic.mac1609_4 	RXTXLostPackets 	0
scalar IntersectionExampleScenario.node[18].nic.mac1609_4 	TotalLostPackets 	0
scalar IntersectionExampleScenario.node[18].nic.mac1609_4 	DroppedPacketsInMac 	0
scalar IntersectionExampleScenario.node[18].nic.mac1609_4 	TooLittleTime 	0
scalar IntersectionExampleScenario.node[18].nic.mac1609_4 	TimesIntoBackoff 	0
scalar IntersectionExampleScenario.node[18].nic.mac1609_4 	SlotsBackoff 	0
scalar IntersectionExampleScenario.node[18].nic.mac1609_4 	NumInternalContention 	0
scalar IntersectionExampleScenario.node[18].nic.mac1609_4 	totalBusyTime 	0
scalar IntersectionExampleScenario.node[18].veinsmobility 	startTime 	36.75
scalar IntersectionExampleScenario.node[18].veinsmobility 	totalTime 	40
scalar IntersectionExampleScenario.node[18].veinsmobility 	stopTime 	77
scalar IntersectionExampleScenario.node[18].veinsmobility 	minSpeed 	5.6500000953674
scalar IntersectionExampleScenario.node[18].veinsmobility 	maxSpeed 	15.795443534851
scalar IntersectionExampleScenario.node[18].veinsmobility 	totalDistance 	550.3156588833
scalar IntersectionExampleScenario.node[18].veinsmobility 	totalCO2Emission 	127.8753709552
scalar IntersectionExampleScenario.node[19].appl 	VehicleRemoved 	0
scalar IntersectionExampleScenario.node[19].appl 	ArrivedAtDest 	1
scalar IntersectionExampleScenario.node[19].appl 	IntersectionEnterTime 	38
scalar IntersectionExampleScenario.node[19].appl 	IntersectionExitTime 	61.539384364994
scalar IntersectionExampleScenario.node[19].appl 	NumberOfCollisions 	0
scalar IntersectionExampleScenario.node[19].nic.phy80211p 	busyTime 	0
scalar IntersectionExampleScenario.node[19].nic.mac1609_4 	ReceivedUnicastPackets 	0
scalar IntersectionExampleScenario.node[19].nic.mac1609_4 	ReceivedBroadcasts 	0
scalar IntersectionExampleScenario.node[19].nic.mac1609_4 	SentPackets 	0
scalar IntersectionExampleScenario.node[19].nic.mac1609_4 	SNIRLostPackets 	0
scalar IntersectionExampleScenario.node[19].nic.mac1609_4 	RXTXLostPackets 	0
scalar IntersectionExampleScenario.node[19].nic.mac1609_4 	TotalLostPackets 	0
scalar IntersectionExampleScenario.node[19].nic.mac1609_4 	DroppedPacketsInMac 	0
scalar IntersectionExampleScenario.node[19].nic.mac1609_4 	TooLittleTime 	0
scalar IntersectionExampleScenario.node[19].nic.mac1609_4 	TimesIntoBackoff 	0
scalar IntersectionExampleScenario.node[19].nic.mac1609_4 	SlotsBackoff 	0
scalar IntersectionExampleScenario.node[19].nic.mac1609_4 	NumInternalContention 	0
scalar IntersectionExampleScenario.node[19].nic.mac1609_4 	totalBusyTime 	0
scalar IntersectionExampleScenario.node[19].veinsmobility 	startTime 	38
scalar IntersectionExampleScenario.node[19].veinsmobility 	totalTime 	39
scalar IntersectionExampleScenario.node[19].veinsmobility 	stopTime 	77.25
scalar IntersectionExampleScenario.node[19].veinsmobility 	minSpeed 	5.6500000953674
scalar IntersectionExampleScenario.node[19].veinsmobility 	maxSpeed 	16.625
scalar IntersectionExampleScenario.node[19].veinsmobility 	totalDistance 	549.48884806909
scalar IntersectionExampleScenario.node[19].veinsmobility 	totalCO2Emission 	133.88155103841
scalar IntersectionExampleScenario.node[14].appl 	VehicleRemoved 	0
scalar IntersectionExampleScenario.node[14].appl 	ArrivedAtDest 	1
scalar IntersectionExampleScenario.node[14].appl 	IntersectionEnterTime 	32.75
scalar IntersectionExampleScenario.node[14].appl 	IntersectionExitTime 	61.809148077271
scalar IntersectionExampleScenario.node[14].appl 	NumberOfCollisions 	0
scalar IntersectionExampleScenario.node[14].nic.phy80211p 	busyTime 	0
scalar IntersectionExampleScenario.node[14].nic.mac1609_4 	ReceivedUnicastPackets 	0
scalar IntersectionExampleScenario.node[14].nic.mac1609_4 	ReceivedBroadcasts 	0
scalar IntersectionExampleScenario.node[14].nic.mac1609_4 	SentPackets 	0
scalar IntersectionExampleScenario.node[14].nic.mac1609_4 	SNIRLostPackets 	0
scalar IntersectionExampleScenario.node[14].nic.mac1609_4 	RXTXLostPackets 	0
scalar IntersectionExampleScenario.node[14].nic.mac1609_4 	TotalLostPackets 	0
scalar IntersectionExampleScenario.node[14].nic.mac1609_4 	DroppedPacketsInMac 	0
scalar IntersectionExampleScenario.node[14].nic.mac1609_4 	TooLittleTime 	0
scalar IntersectionExampleScenario.node[14].nic.mac1609_4 	TimesIntoBackoff 	0
scalar IntersectionExampleScenario.node[14].nic.mac1609_4 	SlotsBackoff 	0
scalar IntersectionExampleScenario.node[14].nic.mac1609_4 	NumInternalContention 	0
scalar IntersectionExampleScenario.node[14].nic.mac1609_4 	totalBusyTime 	0
scalar IntersectionExampleScenario.node[14].veinsmobility 	startTime 	32.75
scalar IntersectionExampleScenario.node[14].veinsmobility 	totalTime 	45.25
scalar IntersectionExampleScenario.node[14].veinsmobility 	stopTime 	78.25
scalar IntersectionExampleScenario.node[14].veinsmobility 	minSpeed 	0
scalar IntersectionExampleScenario.node[14].veinsmobility 	maxSpeed 	15.64999961853
scalar IntersectionExampleScenario.node[14].veinsmobility 	totalDistance 	551.43346529436
scalar IntersectionExampleScenario.node[14].veinsmobility 	totalCO2Emission 	138.63121641244
scalar IntersectionExampleScenario.node[22].appl 	VehicleRemoved 	0
scalar IntersectionExampleScenario.node[22].appl 	ArrivedAtDest 	1
scalar IntersectionExampleScenario.node[22].appl 	IntersectionEnterTime 	38.75
scalar IntersectionExampleScenario.node[22].appl 	IntersectionExitTime 	64.308994086547
scalar IntersectionExampleScenario.node[22].appl 	NumberOfCollisions 	0
scalar IntersectionExampleScenario.node[22].nic.phy80211p 	busyTime 	0
scalar IntersectionExampleScenario.node[22].nic.mac1609_4 	ReceivedUnicastPackets 	0
scalar IntersectionExampleScenario.node[22].nic.mac1609_4 	ReceivedBroadcasts 	0
scalar IntersectionExampleScenario.node[22].nic.mac1609_4 	SentPackets 	0
scalar IntersectionExampleScenario.node[22].nic.mac1609_4 	SNIRLostPackets 	0
scalar IntersectionExampleScenario.node[22].nic.mac1609_4 	RXTXLostPackets 	0
scalar IntersectionExampleScenario.node[22].nic.mac1609_4 	TotalLostPackets 	0
scalar IntersectionExampleScenario.node[22].nic.mac1609_4 	DroppedPacketsInMac 	0
scalar IntersectionExampleScenario.node[22].nic.mac1609_4 	TooLittleTime 	0
scalar IntersectionExampleScenario.node[22].nic.mac1609_4 	TimesIntoBackoff 	0
scalar IntersectionExampleScenario.node[22].nic.mac1609_4 	SlotsBackoff 	0
scalar IntersectionExampleScenario.node[22].nic.mac1609_4 	NumInternalContention 	0
scalar IntersectionExampleScenario.node[22].nic.mac1609_4 	totalBusyTime 	0
scalar IntersectionExampleScenario.node[22].veinsmobility 	startTime 	38.75
scalar IntersectionExampleScenario.node[22].veinsmobility 	totalTime 	42.5
scalar IntersectionExampleScenario.node[22].veinsmobility 	stopTime 	81.5
scalar IntersectionExampleScenario.node[22].veinsmobility 	minSpeed 	5.6500000953674
scalar IntersectionExampleScenario.node[22].veinsmobility 	maxSpeed 	15.358273506165
scalar IntersectionExampleScenario.node[22].veinsmobility 	totalDistance 	567.67951349135
scalar IntersectionExampleScenario.node[22].veinsmobility 	totalCO2Emission 	128.90401383728
scalar IntersectionExampleScenario.node[27].appl 	VehicleRemoved 	0
scalar IntersectionExampleScenario.node[27].appl 	ArrivedAtDest 	1
scalar IntersectionExampleScenario.node[27].appl 	IntersectionEnterTime 	45
scalar IntersectionExampleScenario.node[27].appl 	IntersectionExitTime 	67.116550636449
scalar IntersectionExampleScenario.node[27].appl 	NumberOfCollisions 	0
scalar IntersectionExampleScenario.node[27].nic.phy80211p 	busyTime 	0
scalar IntersectionExampleScenario.node[27].nic.mac1609_4 	ReceivedUnicastPackets 	0
scalar IntersectionExampleScenario.node[27].nic.mac1609_4 	ReceivedBroadcasts 	0
scalar IntersectionExampleScenario.node[27].nic.mac1609_4 	SentPackets 	0
scalar IntersectionExampleScenario.node[27].nic.mac1609_4 	SNIRLostPackets 	0
scalar IntersectionExampleScenario.node[27].nic.mac1609_4 	RXTXLostPackets 	0
scalar IntersectionExampleScenario.node[27].nic.mac1609_4 	TotalLostPackets 	0
scalar IntersectionExampleScenario.node[27].nic.mac1609_4 	DroppedPacketsInMac 	0
scalar IntersectionExampleScenario.node[27].nic.mac1609_4 	TooLittleTime 	0
scalar IntersectionExampleScenario.node[27].nic.mac1609_4 	TimesIntoBackoff 	0
scalar IntersectionExampleScenario.node[27].nic.mac1609_4 	SlotsBackoff 	0
scalar IntersectionExampleScenario.node[27].nic.mac1609_4 	NumInternalContention 	0
scalar IntersectionExampleScenario.node[27].nic.mac1609_4 	totalBusyTime 	0
scalar IntersectionExampleScenario.node[27].veinsmobility 	startTime 	45
scalar IntersectionExampleScenario.node[27].veinsmobility 	totalTime 	38
scalar IntersectionExampleScenario.node[27].veinsmobility 	stopTime 	83.25
scalar IntersectionExampleScenario.node[27].veinsmobility 	minSpeed 	5.6500000953674
scalar IntersectionExampleScenario.node[27].veinsmobility 	maxSpeed 	16
scalar IntersectionExampleScenario.node[27].veinsmobility 	totalDistance 	525.98527114074
scalar IntersectionExampleScenario.node[27].veinsmobility 	totalCO2Emission 	132.28761875711
scalar IntersectionExampleScenario.node[26].appl 	VehicleRemoved 	0
scalar IntersectionExampleScenario.node[26].appl 	ArrivedAtDest 	1
scalar IntersectionExampleScenario.node[26].appl 	IntersectionEnterTime 	43
scalar IntersectionExampleScenario.node[26].appl 	IntersectionExitTime 	70.057973463903
scalar IntersectionExampleScenario.node[26].appl 	NumberOfCollisions 	0
scalar IntersectionExampleScenario.node[26].nic.phy80211p 	busyTime 	0
scalar IntersectionExampleScenario.node[26].nic.mac1609_4 	ReceivedUnicastPackets 	0
scalar IntersectionExampleScenario.node[26].nic.mac1609_4 	ReceivedBroadcasts 	0
scalar IntersectionExampleScenario.node[26].nic.mac1609_4 	SentPackets 	0
scalar IntersectionExampleScenario.node[26].nic.mac1609_4 	SNIRLostPackets 	0
scalar IntersectionExampleScenario.node[26].nic.mac1609_4 	RXTXLostPackets 	0
scalar IntersectionExampleScenario.node[26].nic.mac1609_4 	TotalLostPackets 	0
scalar IntersectionExampleScenario.node[26].nic.mac1609_4 	DroppedPacketsInMac 	0
scalar IntersectionExampleScenario.node[26].nic.mac1609_4 	TooLittleTime 	0
scalar IntersectionExampleScenario.node[26].nic.mac1609_4 	TimesIntoBackoff 	0
scalar IntersectionExampleScenario.node[26].nic.mac1609_4 	SlotsBackoff 	0
scalar IntersectionExampleScenario.node[26].nic.mac1609_4 	NumInternalContention 	0
scalar IntersectionExampleScenario.node[26].nic.mac1609_4 	totalBusyTime 	0
scalar IntersectionExampleScenario.node[26].veinsmobility 	startTime 	43
scalar IntersectionExampleScenario.node[26].veinsmobility 	totalTime 	44
scalar IntersectionExampleScenario.node[26].veinsmobility 	stopTime 	87.25
scalar IntersectionExampleScenario.node[26].veinsmobility 	minSpeed 	5.6500000953674
scalar IntersectionExampleScenario.node[26].veinsmobility 	maxSpeed 	14.75
scalar IntersectionExampleScenario.node[26].veinsmobility 	totalDistance 	567.61750636888
scalar IntersectionExampleScenario.node[26].veinsmobility 	totalCO2Emission 	125.25013107536
scalar IntersectionExampleScenario.node[32].appl 	VehicleRemoved 	0
scalar IntersectionExampleScenario.node[32].appl 	ArrivedAtDest 	1
scalar IntersectionExampleScenario.node[32].appl 	IntersectionEnterTime 	50.5
scalar IntersectionExampleScenario.node[32].appl 	IntersectionExitTime 	72.2524241262
scalar IntersectionExampleScenario.node[32].appl 	NumberOfCollisions 	0
scalar IntersectionExampleScenario.node[32].nic.phy80211p 	busyTime 	0
scalar IntersectionExampleScenario.node[32].nic.mac1609_4 	ReceivedUnicastPackets 	0
scalar IntersectionExampleScenario.node[32].nic.mac1609_4 	ReceivedBroadcasts 	0
scalar IntersectionExampleScenario.node[32].nic.mac1609_4 	SentPackets 	0
scalar IntersectionExampleScenario.node[32].nic.mac1609_4 	SNIRLostPackets 	0
scalar IntersectionExampleScenario.node[32].nic.mac1609_4 	RXTXLostPackets 	0
scalar IntersectionExampleScenario.node[32].nic.mac1609_4 	TotalLostPackets 	0
scalar IntersectionExampleScenario.node[32].nic.mac1609_4 	DroppedPacketsInMac 	0
scalar IntersectionExampleScenario.node[32].nic.mac1609_4 	TooLittleTime 	0
scalar IntersectionExampleScenario.node[32].nic.mac1609_4 	TimesIntoBackoff 	0
scalar IntersectionExampleScenario.node[32].nic.mac1609_4 	SlotsBackoff 	0
scalar IntersectionExampleScenario.node[32].nic.mac1609_4 	NumInternalContention 	0
scalar IntersectionExampleScenario.node[32].nic.mac1609_4 	totalBusyTime 	0
scalar IntersectionExampleScenario.node[32].veinsmobility 	startTime 	50.5
scalar IntersectionExampleScenario.node[32].veinsmobility 	totalTime 	38
scalar IntersectionExampleScenario.node[32].veinsmobility 	stopTime 	88.75
scalar IntersectionExampleScenario.node[32].veinsmobility 	minSpeed 	5.6500000953674
scalar IntersectionExampleScenario.node[32].veinsmobility 	maxSpeed 	15.875
scalar IntersectionExampleScenario.node[32].veinsmobility 	totalDistance 	518.6505858532
scalar IntersectionExampleScenario.node[32].veinsmobility 	totalCO2Emission 	122.77286424511
scalar IntersectionExampleScenario.node[31].appl 	VehicleRemoved 	0
scalar IntersectionExampleScenario.node[31].appl 	ArrivedAtDest 	1
scalar IntersectionExampleScenario.node[31].appl 	IntersectionEnterTime 	49.5
scalar IntersectionExampleScenario.node[31].appl 	IntersectionExitTime 	74.37324118588
scalar IntersectionExampleScenario.node[31].appl 	NumberOfCollisions 	0
scalar IntersectionExampleScenario.node[31].nic.phy80211p 	busyTime 	0
scalar IntersectionExampleScenario.node[31].nic.mac1609_4 	ReceivedUnicastPackets 	0
scalar IntersectionExampleScenario.node[31].nic.mac1609_4 	ReceivedBroadcasts 	0
scalar IntersectionExampleScenario.node[31].nic.mac1609_4 	SentPackets 	0
scalar IntersectionExampleScenario.node[31].nic.mac1609_4 	SNIRLostPackets 	0
scalar IntersectionExampleScenario.node[31].nic.mac1609_4 	RXTXLostPackets 	0
scalar IntersectionExampleScenario.node[31].nic.mac1609_4 	TotalLostPackets 	0
scalar IntersectionExampleScenario.node[31].nic.mac1609_4 	DroppedPacketsInMac 	0
scalar IntersectionExampleScenario.node[31].nic.mac1609_4 	TooLittleTime 	0
scalar IntersectionExampleScenario.node[31].nic.mac1609_4 	TimesIntoBackoff 	0
scalar IntersectionExampleScenario.node[31].nic.mac1609_4 	SlotsBackoff 	0
scalar IntersectionExampleScenario.node[31].nic.mac1609_4 	NumInternalContention 	0
scalar IntersectionExampleScenario.node[31].nic.mac1609_4 	totalBusyTime 	0
scalar IntersectionExampleScenario.node[31].veinsmobility 	startTime 	49.5
scalar IntersectionExampleScenario.node[31].veinsmobility 	totalTime 	40.75
scalar IntersectionExampleScenario.node[31].veinsmobility 	stopTime 	90.5
scalar IntersectionExampleScenario.node[31].veinsmobility 	minSpeed 	5.6500000953674
scalar IntersectionExampleScenario.node[31].veinsmobility 	maxSpeed 	15.615262031555
scalar IntersectionExampleScenario.node[31].veinsmobility 	totalDistance 	554.82153923411
scalar IntersectionExampleScenario.node[31].veinsmobility 	totalCO2Emission 	130.04512312737
scalar IntersectionExampleScenario.node[30].appl 	VehicleRemoved 	0
scalar IntersectionExampleScenario.node[30].appl 	ArrivedAtDest 	1
scalar IntersectionExampleScenario.node[30].appl 	IntersectionEnterTime 	49.25
scalar IntersectionExampleScenario.node[30].appl 	IntersectionExitTime 	73.840631819447
scalar IntersectionExampleScenario.node[30].appl 	NumberOfCollisions 	0
scalar IntersectionExampleScenario.node[30].nic.phy80211p 	busyTime 	0
scalar IntersectionExampleScenario.node[30].nic.mac1609_4 	ReceivedUnicastPackets 	0
scalar IntersectionExampleScenario.node[30].nic.mac1609_4 	ReceivedBroadcasts 	0
scalar IntersectionExampleScenario.node[30].nic.mac1609_4 	SentPackets 	0
scalar IntersectionExampleScenario.node[30].nic.mac1609_4 	SNIRLostPackets 	0
scalar IntersectionExampleScenario.node[30].nic.mac1609_4 	RXTXLostPackets 	0
scalar IntersectionExampleScenario.node[30].nic.mac1609_4 	TotalLostPackets 	0
scalar IntersectionExampleScenario.node[30].nic.mac1609_4 	DroppedPacketsInMac 	0
scalar IntersectionExampleScenario.node[30].nic.mac1609_4 	TooLittleTime 	0
scalar IntersectionExampleScenario.node[30].nic.mac1609_4 	TimesIntoBackoff 	0
scalar IntersectionExampleScenario.node[30].nic.mac1609_4 	SlotsBackoff 	0
scalar IntersectionExampleScenario.node[30].nic.mac1609_4 	NumInternalContention 	0
scalar IntersectionExampleScenario.node[30].nic.mac1609_4 	totalBusyTime 	0
scalar IntersectionExampleScenario.node[30].veinsmobility 	startTime 	49.25
scalar IntersectionExampleScenario.node[30].veinsmobility 	totalTime 	42.25
scalar IntersectionExampleScenario.node[30].veinsmobility 	stopTime 	91.75
scalar IntersectionExampleScenario.node[30].veinsmobility 	minSpeed 	5.6500000953674
scalar IntersectionExampleScenario.node[30].veinsmobility 	maxSpeed 	15.02499961853
scalar IntersectionExampleScenario.node[30].veinsmobility 	totalDistance 	551.55814966406
scalar IntersectionExampleScenario.node[30].veinsmobility 	totalCO2Emission 	122.2392642141
scalar IntersectionExampleScenario.node[24].appl 	VehicleRemoved 	0
scalar IntersectionExampleScenario.node[24].appl 	ArrivedAtDest 	1
scalar IntersectionExampleScenario.node[24].appl 	IntersectionEnterTime 	39.75
scalar IntersectionExampleScenario.node[24].appl 	IntersectionExitTime 	81.52622372628
scalar IntersectionExampleScenario.node[24].appl 	NumberOfCollisions 	0
scalar IntersectionExampleScenario.node[24].nic.phy80211p 	busyTime 	0
scalar IntersectionExampleScenario.node[24].nic.mac1609_4 	ReceivedUnicastPackets 	0
scalar IntersectionExampleScenario.node[24].nic.mac1609_4 	ReceivedBroadcasts 	0
scalar IntersectionExampleScenario.node[24].nic.mac1609_4 	SentPackets 	0
scalar IntersectionExampleScenario.node[24].nic.mac1609_4 	SNIRLostPackets 	0
scalar IntersectionExampleScenario.node[24].nic.mac1609_4 	RXTXLostPackets 	0
scalar IntersectionExampleScenario.node[24].nic.mac1609_4 	TotalLostPackets 	0
scalar IntersectionExampleScenario.node[24].nic.mac1609_4 	DroppedPacketsInMac 	0
scalar IntersectionExampleScenario.node[24].nic.mac1609_4 	TooLittleTime 	0
scalar IntersectionExampleScenario.node[24].nic.mac1609_4 	TimesIntoBackoff 	0
scalar IntersectionExampleScenario.node[24].nic.mac1609_4 	SlotsBackoff 	0
scalar IntersectionExampleScenario.node[24].nic.mac1609_4 	NumInternalContention 	0
scalar IntersectionExampleScenario.node[24].nic.mac1609_4 	totalBusyTime 	0
scalar IntersectionExampleScenario.node[24].veinsmobility 	startTime 	39.75
scalar IntersectionExampleScenario.node[24].veinsmobility 	totalTime 	58.75
scalar IntersectionExampleScenario.node[24].veinsmobility 	stopTime 	98.75
scalar IntersectionExampleScenario.node[24].veinsmobility 	minSpeed 	0
scalar IntersectionExampleScenario.node[24].veinsmobility 	maxSpeed 	15.25
scalar IntersectionExampleScenario.node[24].veinsmobility 	totalDistance 	511.49510861785
scalar IntersectionExampleScenario.node[24].veinsmobility 	totalCO2Emission 	145.32143190262
scalar IntersectionExampleScenario.node[20].appl 	VehicleRemoved 	0
scalar IntersectionExampleScenario.node[20].appl 	ArrivedAtDest 	1
scalar IntersectionExampleScenario.node[20].appl 	IntersectionEnterTime 	38
scalar IntersectionExampleScenario.node[20].appl 	IntersectionExitTime 	81.54297917767
scalar IntersectionExampleScenario.node[20].appl 	NumberOfCollisions 	0
scalar IntersectionExampleScenario.node[20].nic.phy80211p 	busyTime 	0
scalar IntersectionExampleScenario.node[20].nic.mac1609_4 	ReceivedUnicastPackets 	0
scalar IntersectionExampleScenario.node[20].nic.mac1609_4 	ReceivedBroadcasts 	0
scalar IntersectionExampleScenario.node[20].nic.mac1609_4 	SentPackets 	0
scalar IntersectionExampleScenario.node[20].nic.mac1609_4 	SNIRLostPackets 	0
scalar IntersectionExampleScenario.node[20].nic.mac1609_4 	RXTXLostPackets 	0
scalar IntersectionExampleScenario.node[20].nic.mac1609_4 	TotalLostPackets 	0
scalar IntersectionExampleScenario.node[20].nic.mac1609_4 	DroppedPacketsInMac 	0
scalar IntersectionExampleScenario.node[20].nic.mac1609_4 	TooLittleTime 	0
scalar IntersectionExampleScenario.node[20].nic.mac1609_4 	TimesIntoBackoff 	0
scalar IntersectionExampleScenario.node[20].nic.mac1609_4 	SlotsBackoff 	0
scalar IntersectionExampleScenario.node[20].nic.mac1609_4 	NumInternalContention 	0
scalar IntersectionExampleScenario.node[20].nic.mac1609_4 	totalBusyTime 	0
scalar IntersectionExampleScenario.node[20].veinsmobility 	startTime 	38
scalar IntersectionExampleScenario.node[20].veinsmobility 	totalTime 	60.5
scalar IntersectionExampleScenario.node[20].veinsmobility 	stopTime 	98.75
scalar IntersectionExampleScenario.node[20].veinsmobility 	minSpeed 	0
scalar IntersectionExampleScenario.node[20].veinsmobility 	maxSpeed 	15.25
scalar IntersectionExampleScenario.node[20].veinsmobility 	totalDistance 	565.19821072966
scalar IntersectionExampleScenario.node[20].veinsmobility 	totalCO2Emission 	151.05581957892
scalar IntersectionExampleScenario.node[16].appl 	VehicleRemoved 	0
scalar IntersectionExampleScenario.node[16].appl 	ArrivedAtDest 	1
scalar IntersectionExampleScenario.node[16].appl 	IntersectionEnterTime 	34.75
scalar IntersectionExampleScenario.node[16].appl 	IntersectionExitTime 	83.325958971604
scalar IntersectionExampleScenario.node[16].appl 	NumberOfCollisions 	0
scalar IntersectionExampleScenario.node[16].nic.phy80211p 	busyTime 	0
scalar IntersectionExampleScenario.node[16].nic.mac1609_4 	ReceivedUnicastPackets 	0
scalar IntersectionExampleScenario.node[16].nic.mac1609_4 	ReceivedBroadcasts 	0
scalar IntersectionExampleScenario.node[16].nic.mac1609_4 	SentPackets 	0
scalar IntersectionExampleScenario.node[16].nic.mac1609_4 	SNIRLostPackets 	0
scalar IntersectionExampleScenario.node[16].nic.mac1609_4 	RXTXLostPackets 	0
scalar IntersectionExampleScenario.node[16].nic.mac1609_4 	TotalLostPackets 	0
scalar IntersectionExampleScenario.node[16].nic.mac1609_4 	DroppedPacketsInMac 	0
scalar IntersectionExampleScenario.node[16].nic.mac1609_4 	TooLittleTime 	0
scalar IntersectionExampleScenario.node[16].nic.mac1609_4 	TimesIntoBackoff 	0
scalar IntersectionExampleScenario.node[16].nic.mac1609_4 	SlotsBackoff 	0
scalar IntersectionExampleScenario.node[16].nic.mac1609_4 	NumInternalContention 	0
scalar IntersectionExampleScenario.node[16].nic.mac1609_4 	totalBusyTime 	0
scalar IntersectionExampleScenario.node[16].veinsmobility 	startTime 	34.75
scalar IntersectionExampleScenario.node[16].veinsmobility 	totalTime 	65.25
scalar IntersectionExampleScenario.node[16].veinsmobility 	stopTime 	100.25
scalar IntersectionExampleScenario.node[16].veinsmobility 	minSpeed 	0
scalar IntersectionExampleScenario.node[16].veinsmobility 	maxSpeed 	14.875
scalar IntersectionExampleScenario.node[16].veinsmobility 	totalDistance 	575.93354797363
scalar IntersectionExampleScenario.node[16].veinsmobility 	totalCO2Emission 	162.96265932066
scalar IntersectionExampleScenario.node[28].appl 	VehicleRemoved 	0
scalar IntersectionExampleScenario.node[28].appl 	ArrivedAtDest 	1
scalar IntersectionExampleScenario.node[28].appl 	IntersectionEnterTime 	46.5
scalar IntersectionExampleScenario.node[28].appl 	IntersectionExitTime 	84.513805050257
scalar IntersectionExampleScenario.node[28].appl 	NumberOfCollisions 	0
scalar IntersectionExampleScenario.node[28].nic.phy80211p 	busyTime 	0
scalar IntersectionExampleScenario.node[28].nic.mac1609_4 	ReceivedUnicastPackets 	0
scalar IntersectionExampleScenario.node[28].nic.mac1609_4 	ReceivedBroadcasts 	0
scalar IntersectionExampleScenario.node[28].nic.mac1609_4 	SentPackets 	0
scalar IntersectionExampleScenario.node[28].nic.mac1609_4 	SNIRLostPackets 	0
scalar IntersectionExampleScenario.node[28].nic.mac1609_4 	RXTXLostPackets 	0
scalar IntersectionExampleScenario.node[28].nic.mac1609_4 	TotalLostPackets 	0
scalar IntersectionExampleScenario.node[28].nic.mac1609_4 	DroppedPacketsInMac 	0
scalar IntersectionExampleScenario.node[28].nic.mac1609_4 	TooLittleTime 	0
scalar IntersectionExampleScenario.node[28].nic.mac1609_4 	TimesIntoBackoff 	0
scalar IntersectionExampleScenario.node[28].nic.mac1609_4 	SlotsBackoff 	0
scalar IntersectionExampleScenario.node[28].nic.mac1609_4 	NumInternalContention 	0
scalar IntersectionExampleScenario.node[28].nic.mac1609_4 	totalBusyTime 	0
scalar IntersectionExampleScenario.node[28].veinsmobility 	startTime 	46.5
scalar IntersectionExampleScenario.node[28].veinsmobility 	totalTime 	55
scalar IntersectionExampleScenario.node[28].veinsmobility 	stopTime 	101.75
scalar IntersectionExampleScenario.node[28].veinsmobility 	minSpeed 	0
scalar IntersectionExampleScenario.node[28].veinsmobility 	maxSpeed 	15.25
scalar IntersectionExampleScenario.node[28].veinsmobility 	totalDistance 	545.51315520237
scalar IntersectionExampleScenario.node[28].veinsmobility 	totalCO2Emission 	140.67666229497
scalar IntersectionExampleScenario.node[21].appl 	VehicleRemoved 	0
scalar IntersectionExampleScenario.node[21].appl 	ArrivedAtDest 	1
scalar IntersectionExampleScenario.node[21].appl 	IntersectionEnterTime 	38
scalar IntersectionExampleScenario.node[21].appl 	IntersectionExitTime 	86.25819569247
scalar IntersectionExampleScenario.node[21].appl 	NumberOfCollisions 	0
scalar IntersectionExampleScenario.node[21].nic.phy80211p 	busyTime 	0
scalar IntersectionExampleScenario.node[21].nic.mac1609_4 	ReceivedUnicastPackets 	0
scalar IntersectionExampleScenario.node[21].nic.mac1609_4 	ReceivedBroadcasts 	0
scalar IntersectionExampleScenario.node[21].nic.mac1609_4 	SentPackets 	0
scalar IntersectionExampleScenario.node[21].nic.mac1609_4 	SNIRLostPackets 	0
scalar IntersectionExampleScenario.node[21].nic.mac1609_4 	RXTXLostPackets 	0
scalar IntersectionExampleScenario.node[21].nic.mac1609_4 	TotalLostPackets 	0
scalar IntersectionExampleScenario.node[21].nic.mac1609_4 	DroppedPacketsInMac 	0
scalar IntersectionExampleScenario.node[21].nic.mac1609_4 	TooLittleTime 	0
scalar IntersectionExampleScenario.node[21].nic.mac1609_4 	TimesIntoBackoff 	0
scalar IntersectionExampleScenario.node[21].nic.mac1609_4 	SlotsBackoff 	0
scalar IntersectionExampleScenario.node[21].nic.mac1609_4 	NumInternalContention 	0
scalar IntersectionExampleScenario.node[21].nic.mac1609_4 	totalBusyTime 	0
scalar IntersectionExampleScenario.node[21].veinsmobility 	startTime 	38
scalar IntersectionExampleScenario.node[21].veinsmobility 	totalTime 	64.75
scalar IntersectionExampleScenario.node[21].veinsmobility 	stopTime 	103
scalar IntersectionExampleScenario.node[21].veinsmobility 	minSpeed 	0
scalar IntersectionExampleScenario.node[21].veinsmobility 	maxSpeed 	15.651659011841
scalar IntersectionExampleScenario.node[21].veinsmobility 	totalDistance 	574.43028482158
scalar IntersectionExampleScenario.node[21].veinsmobility 	totalCO2Emission 	163.98524486002
scalar IntersectionExampleScenario.node[29].appl 	VehicleRemoved 	0
scalar IntersectionExampleScenario.node[29].appl 	ArrivedAtDest 	1
scalar IntersectionExampleScenario.node[29].appl 	IntersectionEnterTime 	48.5
scalar IntersectionExampleScenario.node[29].appl 	IntersectionExitTime 	87.852075462608
scalar IntersectionExampleScenario.node[29].appl 	NumberOfCollisions 	0
scalar IntersectionExampleScenario.node[29].nic.phy80211p 	busyTime 	0
scalar IntersectionExampleScenario.node[29].nic.mac1609_4 	ReceivedUnicastPackets 	0
scalar IntersectionExampleScenario.node[29].nic.mac1609_4 	ReceivedBroadcasts 	0
scalar IntersectionExampleScenario.node[29].nic.mac1609_4 	SentPackets 	0
scalar IntersectionExampleScenario.node[29].nic.mac1609_4 	SNIRLostPackets 	0
scalar IntersectionExampleScenario.node[29].nic.mac1609_4 	RXTXLostPackets 	0
scalar IntersectionExampleScenario.node[29].nic.mac1609_4 	TotalLostPackets 	0
scalar IntersectionExampleScenario.node[29].nic.mac1609_4 	DroppedPacketsInMac 	0
scalar IntersectionExampleScenario.node[29].nic.mac1609_4 	TooLittleTime 	0
scalar IntersectionExampleScenario.node[29].nic.mac1609_4 	TimesIntoBackoff 	0
scalar IntersectionExampleScenario.node[29].nic.mac1609_4 	SlotsBackoff 	0
scalar IntersectionExampleScenario.node[29].nic.mac1609_4 	NumInternalContention 	0
scalar IntersectionExampleScenario.node[29].nic.mac1609_4 	totalBusyTime 	0
scalar IntersectionExampleScenario.node[29].veinsmobility 	startTime 	48.5
scalar IntersectionExampleScenario.node[29].veinsmobility 	totalTime 	56.5
scalar IntersectionExampleScenario.node[29].veinsmobility 	stopTime 	105.25
scalar IntersectionExampleScenario.node[29].veinsmobility 	minSpeed 	1.745903968811
scalar IntersectionExampleScenario.node[29].veinsmobility 	maxSpeed 	15.02499961853
scalar IntersectionExampleScenario.node[29].veinsmobility 	totalDistance 	562.24917054509
scalar IntersectionExampleScenario.node[29].veinsmobility 	totalCO2Emission 	149.00105674931
scalar IntersectionExampleScenario.node[23].appl 	VehicleRemoved 	0
scalar IntersectionExampleScenario.node[23].appl 	ArrivedAtDest 	1
scalar IntersectionExampleScenario.node[23].appl 	IntersectionEnterTime 	39
scalar IntersectionExampleScenario.node[23].appl 	IntersectionExitTime 	88.585082870559
scalar IntersectionExampleScenario.node[23].appl 	NumberOfCollisions 	0
scalar IntersectionExampleScenario.node[23].nic.phy80211p 	busyTime 	0
scalar IntersectionExampleScenario.node[23].nic.mac1609_4 	ReceivedUnicastPackets 	0
scalar IntersectionExampleScenario.node[23].nic.mac1609_4 	ReceivedBroadcasts 	0
scalar IntersectionExampleScenario.node[23].nic.mac1609_4 	SentPackets 	0
scalar IntersectionExampleScenario.node[23].nic.mac1609_4 	SNIRLostPackets 	0
scalar IntersectionExampleScenario.node[23].nic.mac1609_4 	RXTXLostPackets 	0
scalar IntersectionExampleScenario.node[23].nic.mac1609_4 	TotalLostPackets 	0
scalar IntersectionExampleScenario.node[23].nic.mac1609_4 	DroppedPacketsInMac 	0
scalar IntersectionExampleScenario.node[23].nic.mac1609_4 	TooLittleTime 	0
scalar IntersectionExampleScenario.node[23].nic.mac1609_4 	TimesIntoBackoff 	0
scalar IntersectionExampleScenario.node[23].nic.mac1609_4 	SlotsBackoff 	0
scalar IntersectionExampleScenario.node[23].nic.mac1609_4 	NumInternalContention 	0
scalar IntersectionExampleScenario.node[23].nic.mac1609_4 	totalBusyTime 	0
scalar IntersectionExampleScenario.node[23].veinsmobility 	startTime 	39
scalar IntersectionExampleScenario.node[23].veinsmobility 	totalTime 	66.25
scalar IntersectionExampleScenario.node[23].veinsmobility 	stopTime 	105.5
scalar IntersectionExampleScenario.node[23].veinsmobility 	minSpeed 	0
scalar IntersectionExampleScenario.node[23].veinsmobility 	maxSpeed 	15.25
scalar IntersectionExampleScenario.node[23].veinsmobility 	totalDistance 	578.4185889782
scalar IntersectionExampleScenario.node[23].veinsmobility 	totalCO2Emission 	163.74921622251
scalar IntersectionExampleScenario.node[35].appl 	VehicleRemoved 	0
scalar IntersectionExampleScenario.node[35].appl 	ArrivedAtDest 	1
scalar IntersectionExampleScenario.node[35].appl 	IntersectionEnterTime 	59
scalar IntersectionExampleScenario.node[35].appl 	IntersectionExitTime 	89.842012264795
scalar IntersectionExampleScenario.node[35].appl 	NumberOfCollisions 	0
scalar IntersectionExampleScenario.node[35].nic.phy80211p 	busyTime 	0
scalar IntersectionExampleScenario.node[35].nic.mac1609_4 	ReceivedUnicastPackets 	0
scalar IntersectionExampleScenario.node[35].nic.mac1609_4 	ReceivedBroadcasts 	0
scalar IntersectionExampleScenario.node[35].nic.mac1609_4 	SentPackets 	0
scalar IntersectionExampleScenario.node[35].nic.mac1609_4 	SNIRLostPackets 	0
scalar IntersectionExampleScenario.node[35].nic.mac1609_4 	RXTXLostPackets 	0
scalar IntersectionExampleScenario.node[35].nic.mac1609_4 	TotalLostPackets 	0
scalar IntersectionExampleScenario.node[35].nic.mac1609_4 	DroppedPacketsInMac 	0
scalar IntersectionExampleScenario.node[35].nic.mac1609_4 	TooLittleTime 	0
scalar IntersectionExampleScenario.node[35].nic.mac1609_4 	TimesIntoBackoff 	0
scalar IntersectionExampleScenario.node[35].nic.mac1609_4 	SlotsBackoff 	0
scalar IntersectionExampleScenario.node[35].nic.mac1609_4 	NumInternalContention 	0
scalar IntersectionExampleScenario.node[35].nic.mac1609_4 	totalBusyTime 	0
scalar IntersectionExampleScenario.node[35].veinsmobility 	startTime 	59
scalar IntersectionExampleScenario.node[35].veinsmobility 	totalTime 	47.5
scalar IntersectionExampleScenario.node[35].veinsmobility 	stopTime 	106.75
scalar IntersectionExampleScenario.node[35].veinsmobility 	minSpeed 	5.5994687080383
scalar IntersectionExampleScenario.node[35].veinsmobility 	maxSpeed 	16.27499961853
scalar IntersectionExampleScenario.node[35].veinsmobility 	totalDistance 	549.60482451716
scalar IntersectionExampleScenario.node[35].veinsmobility 	totalCO2Emission 	143.83151070965
scalar IntersectionExampleScenario.node[25].appl 	VehicleRemoved 	0
scalar IntersectionExampleScenario.node[25].appl 	ArrivedAtDest 	1
scalar IntersectionExampleScenario.node[25].appl 	IntersectionEnterTime 	42.75
scalar IntersectionExampleScenario.node[25].appl 	IntersectionExitTime 	91.064889146714
scalar IntersectionExampleScenario.node[25].appl 	NumberOfCollisions 	0
scalar IntersectionExampleScenario.node[25].nic.phy80211p 	busyTime 	0
scalar IntersectionExampleScenario.node[25].nic.mac1609_4 	ReceivedUnicastPackets 	0
scalar IntersectionExampleScenario.node[25].nic.mac1609_4 	ReceivedBroadcasts 	0
scalar IntersectionExampleScenario.node[25].nic.mac1609_4 	SentPackets 	0
scalar IntersectionExampleScenario.node[25].nic.mac1609_4 	SNIRLostPackets 	0
scalar IntersectionExampleScenario.node[25].nic.mac1609_4 	RXTXLostPackets 	0
scalar IntersectionExampleScenario.node[25].nic.mac1609_4 	TotalLostPackets 	0
scalar IntersectionExampleScenario.node[25].nic.mac1609_4 	DroppedPacketsInMac 	0
scalar IntersectionExampleScenario.node[25].nic.mac1609_4 	TooLittleTime 	0
scalar IntersectionExampleScenario.node[25].nic.mac1609_4 	TimesIntoBackoff 	0
scalar IntersectionExampleScenario.node[25].nic.mac1609_4 	SlotsBackoff 	0
scalar IntersectionExampleScenario.node[25].nic.mac1609_4 	NumInternalContention 	0
scalar IntersectionExampleScenario.node[25].nic.mac1609_4 	totalBusyTime 	0
scalar IntersectionExampleScenario.node[25].veinsmobility 	startTime 	42.75
scalar IntersectionExampleScenario.node[25].veinsmobility 	totalTime 	65.5
scalar IntersectionExampleScenario.node[25].veinsmobility 	stopTime 	108.5
scalar IntersectionExampleScenario.node[25].veinsmobility 	minSpeed 	0
scalar IntersectionExampleScenario.node[25].veinsmobility 	maxSpeed 	15.346224784851
scalar IntersectionExampleScenario.node[25].veinsmobility 	totalDistance 	576.40011152021
scalar IntersectionExampleScenario.node[25].veinsmobility 	totalCO2Emission 	163.37712984291
scalar IntersectionExampleScenario.node[33].appl 	VehicleRemoved 	0
scalar IntersectionExampleScenario.node[33].appl 	ArrivedAtDest 	1
scalar IntersectionExampleScenario.node[33].appl 	IntersectionEnterTime 	54.25
scalar IntersectionExampleScenario.node[33].appl 	IntersectionExitTime 	92.831461822207
scalar IntersectionExampleScenario.node[33].appl 	NumberOfCollisions 	0
scalar IntersectionExampleScenario.node[33].nic.phy80211p 	busyTime 	0
scalar IntersectionExampleScenario.node[33].nic.mac1609_4 	ReceivedUnicastPackets 	0
scalar IntersectionExampleScenario.node[33].nic.mac1609_4 	ReceivedBroadcasts 	0
scalar IntersectionExampleScenario.node[33].nic.mac1609_4 	SentPackets 	0
scalar IntersectionExampleScenario.node[33].nic.mac1609_4 	SNIRLostPackets 	0
scalar IntersectionExampleScenario.node[33].nic.mac1609_4 	RXTXLostPackets 	0
scalar IntersectionExampleScenario.node[33].nic.mac1609_4 	TotalLostPackets 	0
scalar IntersectionExampleScenario.node[33].nic.mac1609_4 	DroppedPacketsInMac 	0
scalar IntersectionExampleScenario.node[33].nic.mac1609_4 	TooLittleTime 	0
scalar IntersectionExampleScenario.node[33].nic.mac1609_4 	TimesIntoBackoff 	0
scalar IntersectionExampleScenario.node[33].nic.mac1609_4 	SlotsBackoff 	0
scalar IntersectionExampleScenario.node[33].nic.mac1609_4 	NumInternalContention 	0
scalar IntersectionExampleScenario.node[33].nic.mac1609_4 	totalBusyTime 	0
scalar IntersectionExampleScenario.node[33].veinsmobility 	startTime 	54.25
scalar IntersectionExampleScenario.node[33].veinsmobility 	totalTime 	54.25
scalar IntersectionExampleScenario.node[33].veinsmobility 	stopTime 	108.75
scalar IntersectionExampleScenario.node[33].veinsmobility 	minSpeed 	0
scalar IntersectionExampleScenario.node[33].veinsmobility 	maxSpeed 	16.125
scalar IntersectionExampleScenario.node[33].veinsmobility 	totalDistance 	555.05000305588
scalar IntersectionExampleScenario.node[33].veinsmobility 	totalCO2Emission 	151.13491386785
scalar IntersectionExampleScenario.node[38].appl 	VehicleRemoved 	0
scalar IntersectionExampleScenario.node[38].appl 	ArrivedAtDest 	1
scalar IntersectionExampleScenario.node[38].appl 	IntersectionEnterTime 	64
scalar IntersectionExampleScenario.node[38].appl 	IntersectionExitTime 	97.615932051121
scalar IntersectionExampleScenario.node[38].appl 	NumberOfCollisions 	0
scalar IntersectionExampleScenario.node[38].nic.phy80211p 	busyTime 	0
scalar IntersectionExampleScenario.node[38].nic.mac1609_4 	ReceivedUnicastPackets 	0
scalar IntersectionExampleScenario.node[38].nic.mac1609_4 	ReceivedBroadcasts 	0
scalar IntersectionExampleScenario.node[38].nic.mac1609_4 	SentPackets 	0
scalar IntersectionExampleScenario.node[38].nic.mac1609_4 	SNIRLostPackets 	0
scalar IntersectionExampleScenario.node[38].nic.mac1609_4 	RXTXLostPackets 	0
scalar IntersectionExampleScenario.node[38].nic.mac1609_4 	TotalLostPackets 	0
scalar IntersectionExampleScenario.node[38].nic.mac1609_4 	DroppedPacketsInMac 	0
scalar IntersectionExampleScenario.node[38].nic.mac1609_4 	TooLittleTime 	0
scalar IntersectionExampleScenario.node[38].nic.mac1609_4 	TimesIntoBackoff 	0
scalar IntersectionExampleScenario.node[38].nic.mac1609_4 	SlotsBackoff 	0
scalar IntersectionExampleScenario.node[38].nic.mac1609_4 	NumInternalContention 	0
scalar IntersectionExampleScenario.node[38].nic.mac1609_4 	totalBusyTime 	0
scalar IntersectionExampleScenario.node[38].veinsmobility 	startTime 	64
scalar IntersectionExampleScenario.node[38].veinsmobility 	totalTime 	48.5
scalar IntersectionExampleScenario.node[38].veinsmobility 	stopTime 	112.75
scalar IntersectionExampleScenario.node[38].veinsmobility 	minSpeed 	1.1148836612701
scalar IntersectionExampleScenario.node[38].veinsmobility 	maxSpeed 	16.268529891968
scalar IntersectionExampleScenario.node[38].veinsmobility 	totalDistance 	551.43699646061
scalar IntersectionExampleScenario.node[38].veinsmobility 	totalCO2Emission 	147.74367632401
scalar IntersectionExampleScenario.node[34].appl 	VehicleRemoved 	0
scalar IntersectionExampleScenario.node[34].appl 	ArrivedAtDest 	1
scalar IntersectionExampleScenario.node[34].appl 	IntersectionEnterTime 	58.25
scalar IntersectionExampleScenario.node[34].appl 	IntersectionExitTime 	96.103922353388
scalar IntersectionExampleScenario.node[34].appl 	NumberOfCollisions 	0
scalar IntersectionExampleScenario.node[34].nic.phy80211p 	busyTime 	0
scalar IntersectionExampleScenario.node[34].nic.mac1609_4 	ReceivedUnicastPackets 	0
scalar IntersectionExampleScenario.node[34].nic.mac1609_4 	ReceivedBroadcasts 	0
scalar IntersectionExampleScenario.node[34].nic.mac1609_4 	SentPackets 	0
scalar IntersectionExampleScenario.node[34].nic.mac1609_4 	SNIRLostPackets 	0
scalar IntersectionExampleScenario.node[34].nic.mac1609_4 	RXTXLostPackets 	0
scalar IntersectionExampleScenario.node[34].nic.mac1609_4 	TotalLostPackets 	0
scalar IntersectionExampleScenario.node[34].nic.mac1609_4 	DroppedPacketsInMac 	0
scalar IntersectionExampleScenario.node[34].nic.mac1609_4 	TooLittleTime 	0
scalar IntersectionExampleScenario.node[34].nic.mac1609_4 	TimesIntoBackoff 	0
scalar IntersectionExampleScenario.node[34].nic.mac1609_4 	SlotsBackoff 	0
scalar IntersectionExampleScenario.node[34].nic.mac1609_4 	NumInternalContention 	0
scalar IntersectionExampleScenario.node[34].nic.mac1609_4 	totalBusyTime 	0
scalar IntersectionExampleScenario.node[34].veinsmobility 	startTime 	58.25
scalar IntersectionExampleScenario.node[34].veinsmobility 	totalTime 	54.5
scalar IntersectionExampleScenario.node[34].veinsmobility 	stopTime 	113
scalar IntersectionExampleScenario.node[34].veinsmobility 	minSpeed 	0
scalar IntersectionExampleScenario.node[34].veinsmobility 	maxSpeed 	15.64999961853
scalar IntersectionExampleScenario.node[34].veinsmobility 	totalDistance 	551.65189549915
scalar IntersectionExampleScenario.node[34].veinsmobility 	totalCO2Emission 	148.71487997266
scalar IntersectionExampleScenario.node[43].appl 	VehicleRemoved 	0
scalar IntersectionExampleScenario.node[43].appl 	ArrivedAtDest 	1
scalar IntersectionExampleScenario.node[43].appl 	IntersectionEnterTime 	74.5
scalar IntersectionExampleScenario.node[43].appl 	IntersectionExitTime 	97.860487298371
scalar IntersectionExampleScenario.node[43].appl 	NumberOfCollisions 	0
scalar IntersectionExampleScenario.node[43].nic.phy80211p 	busyTime 	0
scalar IntersectionExampleScenario.node[43].nic.mac1609_4 	ReceivedUnicastPackets 	0
scalar IntersectionExampleScenario.node[43].nic.mac1609_4 	ReceivedBroadcasts 	0
scalar IntersectionExampleScenario.node[43].nic.mac1609_4 	SentPackets 	0
scalar IntersectionExampleScenario.node[43].nic.mac1609_4 	SNIRLostPackets 	0
scalar IntersectionExampleScenario.node[43].nic.mac1609_4 	RXTXLostPackets 	0
scalar IntersectionExampleScenario.node[43].nic.mac1609_4 	TotalLostPackets 	0
scalar IntersectionExampleScenario.node[43].nic.mac1609_4 	DroppedPacketsInMac 	0
scalar IntersectionExampleScenario.node[43].nic.mac1609_4 	TooLittleTime 	0
scalar IntersectionExampleScenario.node[43].nic.mac1609_4 	TimesIntoBackoff 	0
scalar IntersectionExampleScenario.node[43].nic.mac1609_4 	SlotsBackoff 	0
scalar IntersectionExampleScenario.node[43].nic.mac1609_4 	NumInternalContention 	0
scalar IntersectionExampleScenario.node[43].nic.mac1609_4 	totalBusyTime 	0
scalar IntersectionExampleScenario.node[43].veinsmobility 	startTime 	74.5
scalar IntersectionExampleScenario.node[43].veinsmobility 	totalTime 	39.75
scalar IntersectionExampleScenario.node[43].veinsmobility 	stopTime 	114.5
scalar IntersectionExampleScenario.node[43].veinsmobility 	minSpeed 	5.6500000953674
scalar IntersectionExampleScenario.node[43].veinsmobility 	maxSpeed 	15.725419044495
scalar IntersectionExampleScenario.node[43].veinsmobility 	totalDistance 	552.34554055707
scalar IntersectionExampleScenario.node[43].veinsmobility 	totalCO2Emission 	127.42758029547
scalar IntersectionExampleScenario.node[37].appl 	VehicleRemoved 	0
scalar IntersectionExampleScenario.node[37].appl 	ArrivedAtDest 	1
scalar IntersectionExampleScenario.node[37].appl 	IntersectionEnterTime 	60.5
scalar IntersectionExampleScenario.node[37].appl 	IntersectionExitTime 	101.26936238119
scalar IntersectionExampleScenario.node[37].appl 	NumberOfCollisions 	0
scalar IntersectionExampleScenario.node[37].nic.phy80211p 	busyTime 	0
scalar IntersectionExampleScenario.node[37].nic.mac1609_4 	ReceivedUnicastPackets 	0
scalar IntersectionExampleScenario.node[37].nic.mac1609_4 	ReceivedBroadcasts 	0
scalar IntersectionExampleScenario.node[37].nic.mac1609_4 	SentPackets 	0
scalar IntersectionExampleScenario.node[37].nic.mac1609_4 	SNIRLostPackets 	0
scalar IntersectionExampleScenario.node[37].nic.mac1609_4 	RXTXLostPackets 	0
scalar IntersectionExampleScenario.node[37].nic.mac1609_4 	TotalLostPackets 	0
scalar IntersectionExampleScenario.node[37].nic.mac1609_4 	DroppedPacketsInMac 	0
scalar IntersectionExampleScenario.node[37].nic.mac1609_4 	TooLittleTime 	0
scalar IntersectionExampleScenario.node[37].nic.mac1609_4 	TimesIntoBackoff 	0
scalar IntersectionExampleScenario.node[37].nic.mac1609_4 	SlotsBackoff 	0
scalar IntersectionExampleScenario.node[37].nic.mac1609_4 	NumInternalContention 	0
scalar IntersectionExampleScenario.node[37].nic.mac1609_4 	totalBusyTime 	0
scalar IntersectionExampleScenario.node[37].veinsmobility 	startTime 	60.5
scalar IntersectionExampleScenario.node[37].veinsmobility 	totalTime 	57
scalar IntersectionExampleScenario.node[37].veinsmobility 	stopTime 	117.75
scalar IntersectionExampleScenario.node[37].veinsmobility 	minSpeed 	0
scalar IntersectionExampleScenario.node[37].veinsmobility 	maxSpeed 	15.375
scalar IntersectionExampleScenario.node[37].veinsmobility 	totalDistance 	552.79929351807
scalar IntersectionExampleScenario.node[37].veinsmobility 	totalCO2Emission 	147.11841206543
scalar IntersectionExampleScenario.node[36].appl 	VehicleRemoved 	0
scalar IntersectionExampleScenario.node[36].appl 	ArrivedAtDest 	1
scalar IntersectionExampleScenario.node[36].appl 	IntersectionEnterTime 	59.25
scalar IntersectionExampleScenario.node[36].appl 	IntersectionExitTime 	101.35005064993
scalar IntersectionExampleScenario.node[36].appl 	NumberOfCollisions 	0
scalar IntersectionExampleScenario.node[36].nic.phy80211p 	busyTime 	0
scalar IntersectionExampleScenario.node[36].nic.mac1609_4 	ReceivedUnicastPackets 	0
scalar IntersectionExampleScenario.node[36].nic.mac1609_4 	ReceivedBroadcasts 	0
scalar IntersectionExampleScenario.node[36].nic.mac1609_4 	SentPackets 	0
scalar IntersectionExampleScenario.node[36].nic.mac1609_4 	SNIRLostPackets 	0
scalar IntersectionExampleScenario.node[36].nic.mac1609_4 	RXTXLostPackets 	0
scalar IntersectionExampleScenario.node[36].nic.mac1609_4 	TotalLostPackets 	0
scalar IntersectionExampleScenario.node[36].nic.mac1609_4 	DroppedPacketsInMac 	0
scalar IntersectionExampleScenario.node[36].nic.mac1609_4 	TooLittleTime 	0
scalar IntersectionExampleScenario.node[36].nic.mac1609_4 	TimesIntoBackoff 	0
[...]
scalar IntersectionExampleScenario.node[682].veinsmobility 	totalCO2Emission 	79.323538837592
scalar IntersectionExampleScenario.node[683].appl 	VehicleRemoved 	0
scalar IntersectionExampleScenario.node[683].appl 	ArrivedAtDest 	0
scalar IntersectionExampleScenario.node[683].appl 	IntersectionEnterTime 	1779.75
scalar IntersectionExampleScenario.node[683].appl 	IntersectionExitTime 	-1
scalar IntersectionExampleScenario.node[683].appl 	NumberOfCollisions 	0
scalar IntersectionExampleScenario.node[683].nic.phy80211p 	busyTime 	0
scalar IntersectionExampleScenario.node[683].nic.mac1609_4 	ReceivedUnicastPackets 	0
scalar IntersectionExampleScenario.node[683].nic.mac1609_4 	ReceivedBroadcasts 	0
scalar IntersectionExampleScenario.node[683].nic.mac1609_4 	SentPackets 	0
scalar IntersectionExampleScenario.node[683].nic.mac1609_4 	SNIRLostPackets 	0
scalar IntersectionExampleScenario.node[683].nic.mac1609_4 	RXTXLostPackets 	0
scalar IntersectionExampleScenario.node[683].nic.mac1609_4 	TotalLostPackets 	0
scalar IntersectionExampleScenario.node[683].nic.mac1609_4 	DroppedPacketsInMac 	0
scalar IntersectionExampleScenario.node[683].nic.mac1609_4 	TooLittleTime 	0
scalar IntersectionExampleScenario.node[683].nic.mac1609_4 	TimesIntoBackoff 	0
scalar IntersectionExampleScenario.node[683].nic.mac1609_4 	SlotsBackoff 	0
scalar IntersectionExampleScenario.node[683].nic.mac1609_4 	NumInternalContention 	0
scalar IntersectionExampleScenario.node[683].nic.mac1609_4 	totalBusyTime 	0
scalar IntersectionExampleScenario.node[683].veinsmobility 	startTime 	1779.75
scalar IntersectionExampleScenario.node[683].veinsmobility 	totalTime 	20.25
scalar IntersectionExampleScenario.node[683].veinsmobility 	stopTime 	1800
scalar IntersectionExampleScenario.node[683].veinsmobility 	minSpeed 	5.6500000953674
scalar IntersectionExampleScenario.node[683].veinsmobility 	maxSpeed 	16.27499961853
scalar IntersectionExampleScenario.node[683].veinsmobility 	totalDistance 	282.52503204346
scalar IntersectionExampleScenario.node[683].veinsmobility 	totalCO2Emission 	69.035120712194
scalar IntersectionExampleScenario.node[684].appl 	VehicleRemoved 	0
scalar IntersectionExampleScenario.node[684].appl 	ArrivedAtDest 	0
scalar IntersectionExampleScenario.node[684].appl 	IntersectionEnterTime 	1780.5
scalar IntersectionExampleScenario.node[684].appl 	IntersectionExitTime 	-1
scalar IntersectionExampleScenario.node[684].appl 	NumberOfCollisions 	0
scalar IntersectionExampleScenario.node[684].nic.phy80211p 	busyTime 	0
scalar IntersectionExampleScenario.node[684].nic.mac1609_4 	ReceivedUnicastPackets 	0
scalar IntersectionExampleScenario.node[684].nic.mac1609_4 	ReceivedBroadcasts 	0
scalar IntersectionExampleScenario.node[684].nic.mac1609_4 	SentPackets 	0
scalar IntersectionExampleScenario.node[684].nic.mac1609_4 	SNIRLostPackets 	0
scalar IntersectionExampleScenario.node[684].nic.mac1609_4 	RXTXLostPackets 	0
scalar IntersectionExampleScenario.node[684].nic.mac1609_4 	TotalLostPackets 	0
scalar IntersectionExampleScenario.node[684].nic.mac1609_4 	DroppedPacketsInMac 	0
scalar IntersectionExampleScenario.node[684].nic.mac1609_4 	TooLittleTime 	0
scalar IntersectionExampleScenario.node[684].nic.mac1609_4 	TimesIntoBackoff 	0
scalar IntersectionExampleScenario.node[684].nic.mac1609_4 	SlotsBackoff 	0
scalar IntersectionExampleScenario.node[684].nic.mac1609_4 	NumInternalContention 	0
scalar IntersectionExampleScenario.node[684].nic.mac1609_4 	totalBusyTime 	0
scalar IntersectionExampleScenario.node[684].veinsmobility 	startTime 	1780.5
scalar IntersectionExampleScenario.node[684].veinsmobility 	totalTime 	19.5
scalar IntersectionExampleScenario.node[684].veinsmobility 	stopTime 	1800
scalar IntersectionExampleScenario.node[684].veinsmobility 	minSpeed 	5.6500000953674
scalar IntersectionExampleScenario.node[684].veinsmobility 	maxSpeed 	15.64999961853
scalar IntersectionExampleScenario.node[684].veinsmobility 	totalDistance 	272.06283569336
scalar IntersectionExampleScenario.node[684].veinsmobility 	totalCO2Emission 	63.047058244031
scalar IntersectionExampleScenario.node[685].appl 	VehicleRemoved 	0
scalar IntersectionExampleScenario.node[685].appl 	ArrivedAtDest 	0
scalar IntersectionExampleScenario.node[685].appl 	IntersectionEnterTime 	1784.75
scalar IntersectionExampleScenario.node[685].appl 	IntersectionExitTime 	-1
scalar IntersectionExampleScenario.node[685].appl 	NumberOfCollisions 	0
scalar IntersectionExampleScenario.node[685].nic.phy80211p 	busyTime 	0
scalar IntersectionExampleScenario.node[685].nic.mac1609_4 	ReceivedUnicastPackets 	0
scalar IntersectionExampleScenario.node[685].nic.mac1609_4 	ReceivedBroadcasts 	0
scalar IntersectionExampleScenario.node[685].nic.mac1609_4 	SentPackets 	0
scalar IntersectionExampleScenario.node[685].nic.mac1609_4 	SNIRLostPackets 	0
scalar IntersectionExampleScenario.node[685].nic.mac1609_4 	RXTXLostPackets 	0
scalar IntersectionExampleScenario.node[685].nic.mac1609_4 	TotalLostPackets 	0
scalar IntersectionExampleScenario.node[685].nic.mac1609_4 	DroppedPacketsInMac 	0
scalar IntersectionExampleScenario.node[685].nic.mac1609_4 	TooLittleTime 	0
scalar IntersectionExampleScenario.node[685].nic.mac1609_4 	TimesIntoBackoff 	0
scalar IntersectionExampleScenario.node[685].nic.mac1609_4 	SlotsBackoff 	0
scalar IntersectionExampleScenario.node[685].nic.mac1609_4 	NumInternalContention 	0
scalar IntersectionExampleScenario.node[685].nic.mac1609_4 	totalBusyTime 	0
scalar IntersectionExampleScenario.node[685].veinsmobility 	startTime 	1784.75
scalar IntersectionExampleScenario.node[685].veinsmobility 	totalTime 	15.25
scalar IntersectionExampleScenario.node[685].veinsmobility 	stopTime 	1800
scalar IntersectionExampleScenario.node[685].veinsmobility 	minSpeed 	5.6500000953674
scalar IntersectionExampleScenario.node[685].veinsmobility 	maxSpeed 	14.39999961853
scalar IntersectionExampleScenario.node[685].veinsmobility 	totalDistance 	200.97271728516
scalar IntersectionExampleScenario.node[685].veinsmobility 	totalCO2Emission 	51.325025875002
scalar IntersectionExampleScenario.node[686].appl 	VehicleRemoved 	0
scalar IntersectionExampleScenario.node[686].appl 	ArrivedAtDest 	0
scalar IntersectionExampleScenario.node[686].appl 	IntersectionEnterTime 	1785.25
scalar IntersectionExampleScenario.node[686].appl 	IntersectionExitTime 	-1
scalar IntersectionExampleScenario.node[686].appl 	NumberOfCollisions 	0
scalar IntersectionExampleScenario.node[686].nic.phy80211p 	busyTime 	0
scalar IntersectionExampleScenario.node[686].nic.mac1609_4 	ReceivedUnicastPackets 	0
scalar IntersectionExampleScenario.node[686].nic.mac1609_4 	ReceivedBroadcasts 	0
scalar IntersectionExampleScenario.node[686].nic.mac1609_4 	SentPackets 	0
scalar IntersectionExampleScenario.node[686].nic.mac1609_4 	SNIRLostPackets 	0
scalar IntersectionExampleScenario.node[686].nic.mac1609_4 	RXTXLostPackets 	0
scalar IntersectionExampleScenario.node[686].nic.mac1609_4 	TotalLostPackets 	0
scalar IntersectionExampleScenario.node[686].nic.mac1609_4 	DroppedPacketsInMac 	0
scalar IntersectionExampleScenario.node[686].nic.mac1609_4 	TooLittleTime 	0
scalar IntersectionExampleScenario.node[686].nic.mac1609_4 	TimesIntoBackoff 	0
scalar IntersectionExampleScenario.node[686].nic.mac1609_4 	SlotsBackoff 	0
scalar IntersectionExampleScenario.node[686].nic.mac1609_4 	NumInternalContention 	0
scalar IntersectionExampleScenario.node[686].nic.mac1609_4 	totalBusyTime 	0
scalar IntersectionExampleScenario.node[686].veinsmobility 	startTime 	1785.25
scalar IntersectionExampleScenario.node[686].veinsmobility 	totalTime 	14.75
scalar IntersectionExampleScenario.node[686].veinsmobility 	stopTime 	1800
scalar IntersectionExampleScenario.node[686].veinsmobility 	minSpeed 	5.6500000953674
scalar IntersectionExampleScenario.node[686].veinsmobility 	maxSpeed 	16.27499961853
scalar IntersectionExampleScenario.node[686].veinsmobility 	totalDistance 	211.4407119751
scalar IntersectionExampleScenario.node[686].veinsmobility 	totalCO2Emission 	58.677798538397
scalar IntersectionExampleScenario.node[687].appl 	VehicleRemoved 	0
scalar IntersectionExampleScenario.node[687].appl 	ArrivedAtDest 	0
scalar IntersectionExampleScenario.node[687].appl 	IntersectionEnterTime 	1787.75
scalar IntersectionExampleScenario.node[687].appl 	IntersectionExitTime 	-1
scalar IntersectionExampleScenario.node[687].appl 	NumberOfCollisions 	0
scalar IntersectionExampleScenario.node[687].nic.phy80211p 	busyTime 	0
scalar IntersectionExampleScenario.node[687].nic.mac1609_4 	ReceivedUnicastPackets 	0
scalar IntersectionExampleScenario.node[687].nic.mac1609_4 	ReceivedBroadcasts 	0
scalar IntersectionExampleScenario.node[687].nic.mac1609_4 	SentPackets 	0
scalar IntersectionExampleScenario.node[687].nic.mac1609_4 	SNIRLostPackets 	0
scalar IntersectionExampleScenario.node[687].nic.mac1609_4 	RXTXLostPackets 	0
scalar IntersectionExampleScenario.node[687].nic.mac1609_4 	TotalLostPackets 	0
scalar IntersectionExampleScenario.node[687].nic.mac1609_4 	DroppedPacketsInMac 	0
scalar IntersectionExampleScenario.node[687].nic.mac1609_4 	TooLittleTime 	0
scalar IntersectionExampleScenario.node[687].nic.mac1609_4 	TimesIntoBackoff 	0
scalar IntersectionExampleScenario.node[687].nic.mac1609_4 	SlotsBackoff 	0
scalar IntersectionExampleScenario.node[687].nic.mac1609_4 	NumInternalContention 	0
scalar IntersectionExampleScenario.node[687].nic.mac1609_4 	totalBusyTime 	0
scalar IntersectionExampleScenario.node[687].veinsmobility 	startTime 	1787.75
scalar IntersectionExampleScenario.node[687].veinsmobility 	totalTime 	12.25
scalar IntersectionExampleScenario.node[687].veinsmobility 	stopTime 	1800
scalar IntersectionExampleScenario.node[687].veinsmobility 	minSpeed 	5.6500000953674
scalar IntersectionExampleScenario.node[687].veinsmobility 	maxSpeed 	16.27499961853
scalar IntersectionExampleScenario.node[687].veinsmobility 	totalDistance 	172.15187072754
scalar IntersectionExampleScenario.node[687].veinsmobility 	totalCO2Emission 	53.057138862159
scalar IntersectionExampleScenario.node[688].appl 	VehicleRemoved 	0
scalar IntersectionExampleScenario.node[688].appl 	ArrivedAtDest 	0
scalar IntersectionExampleScenario.node[688].appl 	IntersectionEnterTime 	1790
scalar IntersectionExampleScenario.node[688].appl 	IntersectionExitTime 	-1
scalar IntersectionExampleScenario.node[688].appl 	NumberOfCollisions 	0
scalar IntersectionExampleScenario.node[688].nic.phy80211p 	busyTime 	0
scalar IntersectionExampleScenario.node[688].nic.mac1609_4 	ReceivedUnicastPackets 	0
scalar IntersectionExampleScenario.node[688].nic.mac1609_4 	ReceivedBroadcasts 	0
scalar IntersectionExampleScenario.node[688].nic.mac1609_4 	SentPackets 	0
scalar IntersectionExampleScenario.node[688].nic.mac1609_4 	SNIRLostPackets 	0
scalar IntersectionExampleScenario.node[688].nic.mac1609_4 	RXTXLostPackets 	0
scalar IntersectionExampleScenario.node[688].nic.mac1609_4 	TotalLostPackets 	0
scalar IntersectionExampleScenario.node[688].nic.mac1609_4 	DroppedPacketsInMac 	0
scalar IntersectionExampleScenario.node[688].nic.mac1609_4 	TooLittleTime 	0
scalar IntersectionExampleScenario.node[688].nic.mac1609_4 	TimesIntoBackoff 	0
scalar IntersectionExampleScenario.node[688].nic.mac1609_4 	SlotsBackoff 	0
scalar IntersectionExampleScenario.node[688].nic.mac1609_4 	NumInternalContention 	0
scalar IntersectionExampleScenario.node[688].nic.mac1609_4 	totalBusyTime 	0
scalar IntersectionExampleScenario.node[688].veinsmobility 	startTime 	1790
scalar IntersectionExampleScenario.node[688].veinsmobility 	totalTime 	10
scalar IntersectionExampleScenario.node[688].veinsmobility 	stopTime 	1800
scalar IntersectionExampleScenario.node[688].veinsmobility 	minSpeed 	5.6500000953674
scalar IntersectionExampleScenario.node[688].veinsmobility 	maxSpeed 	15.920108795166
scalar IntersectionExampleScenario.node[688].veinsmobility 	totalDistance 	134.29956054688
scalar IntersectionExampleScenario.node[688].veinsmobility 	totalCO2Emission 	47.194774775245
scalar IntersectionExampleScenario.node[689].appl 	VehicleRemoved 	0
scalar IntersectionExampleScenario.node[689].appl 	ArrivedAtDest 	0
scalar IntersectionExampleScenario.node[689].appl 	IntersectionEnterTime 	1790.5
scalar IntersectionExampleScenario.node[689].appl 	IntersectionExitTime 	-1
scalar IntersectionExampleScenario.node[689].appl 	NumberOfCollisions 	0
scalar IntersectionExampleScenario.node[689].nic.phy80211p 	busyTime 	0
scalar IntersectionExampleScenario.node[689].nic.mac1609_4 	ReceivedUnicastPackets 	0
scalar IntersectionExampleScenario.node[689].nic.mac1609_4 	ReceivedBroadcasts 	0
scalar IntersectionExampleScenario.node[689].nic.mac1609_4 	SentPackets 	0
scalar IntersectionExampleScenario.node[689].nic.mac1609_4 	SNIRLostPackets 	0
scalar IntersectionExampleScenario.node[689].nic.mac1609_4 	RXTXLostPackets 	0
scalar IntersectionExampleScenario.node[689].nic.mac1609_4 	TotalLostPackets 	0
scalar IntersectionExampleScenario.node[689].nic.mac1609_4 	DroppedPacketsInMac 	0
scalar IntersectionExampleScenario.node[689].nic.mac1609_4 	TooLittleTime 	0
scalar IntersectionExampleScenario.node[689].nic.mac1609_4 	TimesIntoBackoff 	0
scalar IntersectionExampleScenario.node[689].nic.mac1609_4 	SlotsBackoff 	0
scalar IntersectionExampleScenario.node[689].nic.mac1609_4 	NumInternalContention 	0
scalar IntersectionExampleScenario.node[689].nic.mac1609_4 	totalBusyTime 	0
scalar IntersectionExampleScenario.node[689].veinsmobility 	startTime 	1790.5
scalar IntersectionExampleScenario.node[689].veinsmobility 	totalTime 	9.5
scalar IntersectionExampleScenario.node[689].veinsmobility 	stopTime 	1800
scalar IntersectionExampleScenario.node[689].veinsmobility 	minSpeed 	5.6500000953674
scalar IntersectionExampleScenario.node[689].veinsmobility 	maxSpeed 	15.387811660767
scalar IntersectionExampleScenario.node[689].veinsmobility 	totalDistance 	116.49053955078
scalar IntersectionExampleScenario.node[689].veinsmobility 	totalCO2Emission 	41.520975153945
scalar IntersectionExampleScenario.node[690].appl 	VehicleRemoved 	0
scalar IntersectionExampleScenario.node[690].appl 	ArrivedAtDest 	0
scalar IntersectionExampleScenario.node[690].appl 	IntersectionEnterTime 	1793.25
scalar IntersectionExampleScenario.node[690].appl 	IntersectionExitTime 	-1
scalar IntersectionExampleScenario.node[690].appl 	NumberOfCollisions 	0
scalar IntersectionExampleScenario.node[690].nic.phy80211p 	busyTime 	0
scalar IntersectionExampleScenario.node[690].nic.mac1609_4 	ReceivedUnicastPackets 	0
scalar IntersectionExampleScenario.node[690].nic.mac1609_4 	ReceivedBroadcasts 	0
scalar IntersectionExampleScenario.node[690].nic.mac1609_4 	SentPackets 	0
scalar IntersectionExampleScenario.node[690].nic.mac1609_4 	SNIRLostPackets 	0
scalar IntersectionExampleScenario.node[690].nic.mac1609_4 	RXTXLostPackets 	0
scalar IntersectionExampleScenario.node[690].nic.mac1609_4 	TotalLostPackets 	0
scalar IntersectionExampleScenario.node[690].nic.mac1609_4 	DroppedPacketsInMac 	0
scalar IntersectionExampleScenario.node[690].nic.mac1609_4 	TooLittleTime 	0
scalar IntersectionExampleScenario.node[690].nic.mac1609_4 	TimesIntoBackoff 	0
scalar IntersectionExampleScenario.node[690].nic.mac1609_4 	SlotsBackoff 	0
scalar IntersectionExampleScenario.node[690].nic.mac1609_4 	NumInternalContention 	0
scalar IntersectionExampleScenario.node[690].nic.mac1609_4 	totalBusyTime 	0
scalar IntersectionExampleScenario.node[690].veinsmobility 	startTime 	1793.25
scalar IntersectionExampleScenario.node[690].veinsmobility 	totalTime 	6.75
scalar IntersectionExampleScenario.node[690].veinsmobility 	stopTime 	1800
scalar IntersectionExampleScenario.node[690].veinsmobility 	minSpeed 	5.6500000953674
scalar IntersectionExampleScenario.node[690].veinsmobility 	maxSpeed 	15.64999961853
scalar IntersectionExampleScenario.node[690].veinsmobility 	totalDistance 	82.409278869629
scalar IntersectionExampleScenario.node[690].veinsmobility 	totalCO2Emission 	37.766114504276
scalar IntersectionExampleScenario.node[691].appl 	VehicleRemoved 	0
scalar IntersectionExampleScenario.node[691].appl 	ArrivedAtDest 	0
scalar IntersectionExampleScenario.node[691].appl 	IntersectionEnterTime 	1797
scalar IntersectionExampleScenario.node[691].appl 	IntersectionExitTime 	-1
scalar IntersectionExampleScenario.node[691].appl 	NumberOfCollisions 	0
scalar IntersectionExampleScenario.node[691].nic.phy80211p 	busyTime 	0
scalar IntersectionExampleScenario.node[691].nic.mac1609_4 	ReceivedUnicastPackets 	0
scalar IntersectionExampleScenario.node[691].nic.mac1609_4 	ReceivedBroadcasts 	0
scalar IntersectionExampleScenario.node[691].nic.mac1609_4 	SentPackets 	0
scalar IntersectionExampleScenario.node[691].nic.mac1609_4 	SNIRLostPackets 	0
scalar IntersectionExampleScenario.node[691].nic.mac1609_4 	RXTXLostPackets 	0
scalar IntersectionExampleScenario.node[691].nic.mac1609_4 	TotalLostPackets 	0
scalar IntersectionExampleScenario.node[691].nic.mac1609_4 	DroppedPacketsInMac 	0
scalar IntersectionExampleScenario.node[691].nic.mac1609_4 	TooLittleTime 	0
scalar IntersectionExampleScenario.node[691].nic.mac1609_4 	TimesIntoBackoff 	0
scalar IntersectionExampleScenario.node[691].nic.mac1609_4 	SlotsBackoff 	0
scalar IntersectionExampleScenario.node[691].nic.mac1609_4 	NumInternalContention 	0
scalar IntersectionExampleScenario.node[691].nic.mac1609_4 	totalBusyTime 	0
scalar IntersectionExampleScenario.node[691].veinsmobility 	startTime 	1797
scalar IntersectionExampleScenario.node[691].veinsmobility 	totalTime 	3
scalar IntersectionExampleScenario.node[691].veinsmobility 	stopTime 	1800
scalar IntersectionExampleScenario.node[691].veinsmobility 	minSpeed 	5.6500000953674
scalar IntersectionExampleScenario.node[691].veinsmobility 	maxSpeed 	12.52499961853
scalar IntersectionExampleScenario.node[691].veinsmobility 	totalDistance 	26.325012207031
scalar IntersectionExampleScenario.node[691].veinsmobility 	totalCO2Emission 	20.113115050741
scalar IntersectionExampleScenario.node[692].appl 	VehicleRemoved 	0
scalar IntersectionExampleScenario.node[692].appl 	ArrivedAtDest 	0
scalar IntersectionExampleScenario.node[692].appl 	IntersectionEnterTime 	1798.25
scalar IntersectionExampleScenario.node[692].appl 	IntersectionExitTime 	-1
scalar IntersectionExampleScenario.node[692].appl 	NumberOfCollisions 	0
scalar IntersectionExampleScenario.node[692].nic.phy80211p 	busyTime 	0
scalar IntersectionExampleScenario.node[692].nic.mac1609_4 	ReceivedUnicastPackets 	0
scalar IntersectionExampleScenario.node[692].nic.mac1609_4 	ReceivedBroadcasts 	0
scalar IntersectionExampleScenario.node[692].nic.mac1609_4 	SentPackets 	0
scalar IntersectionExampleScenario.node[692].nic.mac1609_4 	SNIRLostPackets 	0
scalar IntersectionExampleScenario.node[692].nic.mac1609_4 	RXTXLostPackets 	0
scalar IntersectionExampleScenario.node[692].nic.mac1609_4 	TotalLostPackets 	0
scalar IntersectionExampleScenario.node[692].nic.mac1609_4 	DroppedPacketsInMac 	0
scalar IntersectionExampleScenario.node[692].nic.mac1609_4 	TooLittleTime 	0
scalar IntersectionExampleScenario.node[692].nic.mac1609_4 	TimesIntoBackoff 	0
scalar IntersectionExampleScenario.node[692].nic.mac1609_4 	SlotsBackoff 	0
scalar IntersectionExampleScenario.node[692].nic.mac1609_4 	NumInternalContention 	0
scalar IntersectionExampleScenario.node[692].nic.mac1609_4 	totalBusyTime 	0
scalar IntersectionExampleScenario.node[692].veinsmobility 	startTime 	1798.25
scalar IntersectionExampleScenario.node[692].veinsmobility 	totalTime 	1.75
scalar IntersectionExampleScenario.node[692].veinsmobility 	stopTime 	1800
scalar IntersectionExampleScenario.node[692].veinsmobility 	minSpeed 	5.6500000953674
scalar IntersectionExampleScenario.node[692].veinsmobility 	maxSpeed 	9.3999996185303
scalar IntersectionExampleScenario.node[692].veinsmobility 	totalDistance 	12.621864318848
scalar IntersectionExampleScenario.node[692].veinsmobility 	totalCO2Emission 	9.3856839288341
