file 20393841 1591495916                                        
version 2
run nodebug-43-20200606-22:08:53-21964
attr configname nodebug
attr datetime 20200606-22:08:53
attr experiment nodebug
attr inifile omnetpp.ini
attr iterationvars ""
attr iterationvars2 $repetition=43
attr measurement ""
attr network "\"org.car2x.veins.modules.application.ExtTraCIScenarioManagerLaunchd.IntersectionExampleScenario\""
attr processid 21964
attr repetition 43
attr replication #43
attr resultdir results
attr runnumber 43
attr seedset 43
param **.coreDebug false
param **.debug false
param *.**.nic.mac1609_4.bitrate 18Mbps
param *.**.nic.mac1609_4.txPower 20mW
param *.**.nic.mac1609_4.useServiceChannel false
param *.**.nic.phy80211p.analogueModels "xmldoc(\"config.xml\")"
param *.**.nic.phy80211p.decider "xmldoc(\"config.xml\")"
param *.**.nic.phy80211p.sensitivity -89dBm
param *.**.nic.phy80211p.thermalNoise -110dBm
param *.**.nic.phy80211p.usePropagationDelay true
param *.**.nic.phy80211p.useThermalNoise true
param *.annotations.draw false
param *.connectionManager.alpha 2.0
param *.connectionManager.carrierFrequency "5.890e9 Hz"
param *.connectionManager.pMax 20mW
param *.connectionManager.sat -89dBm
param *.connectionManager.sendDirect true
param *.manager.autoShutdown true
param *.manager.host "\"localhost\""
param *.manager.launchConfig "xmldoc(\"paramics.launchd.xml\")"
param *.manager.margin 25
param *.manager.moduleDisplayString "\"\""
param *.manager.moduleName "\"node\""
param *.manager.moduleType "\"org.car2x.veins.nodes.Car\""
param *.manager.port 9999
param *.manager.updateInterval 250ms
param *.node[*0].veinsmobility.accidentCount 0
param *.node[*0].veinsmobility.accidentDuration 30s
param *.node[*0].veinsmobility.accidentStart 75s
param *.node[*].appl.LiderSelectZoneRadio 55.0
param *.node[*].appl.ShareDataZoneRadio 110.0
param *.node[*].appl.TiempoSemaforo 30.0
param *.node[*].appl.beaconInterval 1s
param *.node[*].appl.beaconPriority 3
param *.node[*].appl.dataOnSch false
param *.node[*].appl.dataPriority 2
param *.node[*].appl.debug false
param *.node[*].appl.headerLength "256 bit"
param *.node[*].appl.maxOffset 0.005s
param *.node[*].appl.sendBeacons false
param *.node[*].appl.sendData true
param *.node[*].applType "\"Dummy\""
param *.node[*].mobilityType "\"TraCIMobility\""
param *.node[*].mobilityType.debug true
param *.node[*].veinsmobility.x 0
param *.node[*].veinsmobility.y 0
param *.node[*].veinsmobility.z 1.895
param *.node[*].veinsmobilityType "\"org.car2x.veins.modules.mobility.traci.TraCIMobility\""
param *.node[*].veinsmobilityType.debug true
param *.playgroundSizeX 8500m
param *.playgroundSizeY 8500m
param *.playgroundSizeZ 50m
param *.world.use2D false
param *.world.useTorus false

vector 46965  IntersectionExampleScenario.manager  vehiclesinsim  ETV
attr type  int
vector 46966  IntersectionExampleScenario.manager  realtime  ETV
attr type  int
attr unit  s
vector 46969  IntersectionExampleScenario.node[0].veinsmobility  posx  ETV
vector 46970  IntersectionExampleScenario.node[0].veinsmobility  posy  ETV
vector 46971  IntersectionExampleScenario.node[0].veinsmobility  speed  ETV
vector 46972  IntersectionExampleScenario.node[0].veinsmobility  acceleration  ETV
vector 46973  IntersectionExampleScenario.node[0].veinsmobility  co2emission  ETV
vector 46976  IntersectionExampleScenario.node[1].veinsmobility  posx  ETV
vector 46977  IntersectionExampleScenario.node[1].veinsmobility  posy  ETV
vector 46978  IntersectionExampleScenario.node[1].veinsmobility  speed  ETV
vector 46979  IntersectionExampleScenario.node[1].veinsmobility  acceleration  ETV
vector 46980  IntersectionExampleScenario.node[1].veinsmobility  co2emission  ETV
vector 46983  IntersectionExampleScenario.node[2].veinsmobility  posx  ETV
vector 46984  IntersectionExampleScenario.node[2].veinsmobility  posy  ETV
vector 46985  IntersectionExampleScenario.node[2].veinsmobility  speed  ETV
vector 46986  IntersectionExampleScenario.node[2].veinsmobility  acceleration  ETV
vector 46987  IntersectionExampleScenario.node[2].veinsmobility  co2emission  ETV
vector 46990  IntersectionExampleScenario.node[3].veinsmobility  posx  ETV
vector 46991  IntersectionExampleScenario.node[3].veinsmobility  posy  ETV
vector 46997  IntersectionExampleScenario.node[4].veinsmobility  posx  ETV
vector 46998  IntersectionExampleScenario.node[4].veinsmobility  posy  ETV
vector 46992  IntersectionExampleScenario.node[3].veinsmobility  speed  ETV
vector 46993  IntersectionExampleScenario.node[3].veinsmobility  acceleration  ETV
vector 46994  IntersectionExampleScenario.node[3].veinsmobility  co2emission  ETV
vector 46999  IntersectionExampleScenario.node[4].veinsmobility  speed  ETV
vector 47000  IntersectionExampleScenario.node[4].veinsmobility  acceleration  ETV
vector 47001  IntersectionExampleScenario.node[4].veinsmobility  co2emission  ETV
vector 47004  IntersectionExampleScenario.node[5].veinsmobility  posx  ETV
vector 47005  IntersectionExampleScenario.node[5].veinsmobility  posy  ETV
vector 47006  IntersectionExampleScenario.node[5].veinsmobility  speed  ETV
vector 47007  IntersectionExampleScenario.node[5].veinsmobility  acceleration  ETV
vector 47008  IntersectionExampleScenario.node[5].veinsmobility  co2emission  ETV
vector 47011  IntersectionExampleScenario.node[6].veinsmobility  posx  ETV
vector 47012  IntersectionExampleScenario.node[6].veinsmobility  posy  ETV
vector 47013  IntersectionExampleScenario.node[6].veinsmobility  speed  ETV
vector 47014  IntersectionExampleScenario.node[6].veinsmobility  acceleration  ETV
vector 47015  IntersectionExampleScenario.node[6].veinsmobility  co2emission  ETV
vector 47018  IntersectionExampleScenario.node[7].veinsmobility  posx  ETV
vector 47019  IntersectionExampleScenario.node[7].veinsmobility  posy  ETV
vector 47020  IntersectionExampleScenario.node[7].veinsmobility  speed  ETV
vector 47021  IntersectionExampleScenario.node[7].veinsmobility  acceleration  ETV
vector 47022  IntersectionExampleScenario.node[7].veinsmobility  co2emission  ETV
vector 47025  IntersectionExampleScenario.node[8].veinsmobility  posx  ETV
vector 47026  IntersectionExampleScenario.node[8].veinsmobility  posy  ETV
vector 47027  IntersectionExampleScenario.node[8].veinsmobility  speed  ETV
vector 47028  IntersectionExampleScenario.node[8].veinsmobility  acceleration  ETV
vector 47029  IntersectionExampleScenario.node[8].veinsmobility  co2emission  ETV
vector 47032  IntersectionExampleScenario.node[9].veinsmobility  posx  ETV
vector 47033  IntersectionExampleScenario.node[9].veinsmobility  posy  ETV
vector 47034  IntersectionExampleScenario.node[9].veinsmobility  speed  ETV
vector 47035  IntersectionExampleScenario.node[9].veinsmobility  acceleration  ETV
vector 47036  IntersectionExampleScenario.node[9].veinsmobility  co2emission  ETV
vector 47039  IntersectionExampleScenario.node[10].veinsmobility  posx  ETV
vector 47040  IntersectionExampleScenario.node[10].veinsmobility  posy  ETV
vector 47041  IntersectionExampleScenario.node[10].veinsmobility  speed  ETV
vector 47046  IntersectionExampleScenario.node[11].veinsmobility  posx  ETV
vector 47047  IntersectionExampleScenario.node[11].veinsmobility  posy  ETV
vector 47042  IntersectionExampleScenario.node[10].veinsmobility  acceleration  ETV
vector 47043  IntersectionExampleScenario.node[10].veinsmobility  co2emission  ETV
vector 47048  IntersectionExampleScenario.node[11].veinsmobility  speed  ETV
vector 47049  IntersectionExampleScenario.node[11].veinsmobility  acceleration  ETV
vector 47050  IntersectionExampleScenario.node[11].veinsmobility  co2emission  ETV
vector 47053  IntersectionExampleScenario.node[12].veinsmobility  posx  ETV
vector 47054  IntersectionExampleScenario.node[12].veinsmobility  posy  ETV
vector 47055  IntersectionExampleScenario.node[12].veinsmobility  speed  ETV
vector 47056  IntersectionExampleScenario.node[12].veinsmobility  acceleration  ETV
vector 47057  IntersectionExampleScenario.node[12].veinsmobility  co2emission  ETV
vector 47060  IntersectionExampleScenario.node[13].veinsmobility  posx  ETV
vector 47061  IntersectionExampleScenario.node[13].veinsmobility  posy  ETV
vector 47062  IntersectionExampleScenario.node[13].veinsmobility  speed  ETV
vector 47063  IntersectionExampleScenario.node[13].veinsmobility  acceleration  ETV
vector 47064  IntersectionExampleScenario.node[13].veinsmobility  co2emission  ETV
vector 47067  IntersectionExampleScenario.node[14].veinsmobility  posx  ETV
vector 47068  IntersectionExampleScenario.node[14].veinsmobility  posy  ETV
vector 47069  IntersectionExampleScenario.node[14].veinsmobility  speed  ETV
vector 47070  IntersectionExampleScenario.node[14].veinsmobility  acceleration  ETV
vector 47071  IntersectionExampleScenario.node[14].veinsmobility  co2emission  ETV
vector 47074  IntersectionExampleScenario.node[15].veinsmobility  posx  ETV
vector 47075  IntersectionExampleScenario.node[15].veinsmobility  posy  ETV
vector 47076  IntersectionExampleScenario.node[15].veinsmobility  speed  ETV
vector 47077  IntersectionExampleScenario.node[15].veinsmobility  acceleration  ETV
vector 47078  IntersectionExampleScenario.node[15].veinsmobility  co2emission  ETV
vector 47081  IntersectionExampleScenario.node[16].veinsmobility  posx  ETV
vector 47082  IntersectionExampleScenario.node[16].veinsmobility  posy  ETV
vector 47083  IntersectionExampleScenario.node[16].veinsmobility  speed  ETV
vector 47084  IntersectionExampleScenario.node[16].veinsmobility  acceleration  ETV
vector 47085  IntersectionExampleScenario.node[16].veinsmobility  co2emission  ETV
vector 47088  IntersectionExampleScenario.node[17].veinsmobility  posx  ETV
vector 47089  IntersectionExampleScenario.node[17].veinsmobility  posy  ETV
vector 47090  IntersectionExampleScenario.node[17].veinsmobility  speed  ETV
vector 47091  IntersectionExampleScenario.node[17].veinsmobility  acceleration  ETV
vector 47092  IntersectionExampleScenario.node[17].veinsmobility  co2emission  ETV
46973	10104 5040 26 3218 5.25 45.25 161 0.973 11.450879080643 481.47716152638 2488.7845659847
46972	15144 4683 26 3218 5.25 45.25 161 -3.1636505126953 2.5 36.643835067749 218.4511977573
46971	19827 4940 23 3218 5 45.25 162 5.6500000953674 15.375 2214.2849082947 31084.992573794
46970	24767 5258 20 3218 4.75 45.25 163 483.14999389648 734.77923583984 87496.071914673 47964756.237765
46969	30025 5238 20 3218 4.75 45.25 163 184.17810058594 486.85000610352 64969.496795654 27701848.806962
46987	35263 4964 82 3421 8.25 47.75 159 0.973 11.450879080643 503.1250828529 2608.9372116418
46986	40227 4512 82 3421 8.25 47.75 159 -4.1716995239258 2.5 40.038900375366 224.41736915362
46985	44739 4927 75 3421 8 47.75 160 5.6500000953674 15.717741012573 2263.7537183762 33070.264265048
46984	49666 5228 68 3421 7.75 47.75 161 483.14999389648 734.02545166016 86041.467330933 46936936.838083
46983	54894 5209 68 3421 7.75 47.75 161 171.40313720703 486.85000610352 63288.944671631 26835946.815243
vector 47095  IntersectionExampleScenario.node[18].veinsmobility  posx  ETV
vector 47096  IntersectionExampleScenario.node[18].veinsmobility  posy  ETV
vector 47097  IntersectionExampleScenario.node[18].veinsmobility  speed  ETV
vector 47098  IntersectionExampleScenario.node[18].veinsmobility  acceleration  ETV
vector 47099  IntersectionExampleScenario.node[18].veinsmobility  co2emission  ETV
vector 47102  IntersectionExampleScenario.node[19].veinsmobility  posx  ETV
vector 47103  IntersectionExampleScenario.node[19].veinsmobility  posy  ETV
vector 47104  IntersectionExampleScenario.node[19].veinsmobility  speed  ETV
vector 47105  IntersectionExampleScenario.node[19].veinsmobility  acceleration  ETV
vector 47106  IntersectionExampleScenario.node[19].veinsmobility  co2emission  ETV
47008	60905 4999 302 3796 13.75 52.75 157 0.973 11.648172402475 491.52726649725 2636.9338880946
47007	65904 4529 302 3796 13.75 52.75 157 -3.3749542236328 2.5 38.511121749878 234.68505931777
47006	70433 4886 289 3796 13.5 52.75 158 5.6500000953674 15.64999961853 2208.4045886993 31807.745820974
47005	75319 5200 276 3796 13.25 52.75 159 236.83752441406 486.85000610352 69019.078063965 30914108.780926
47004	80519 5193 276 3796 13.25 52.75 159 483.14999389648 785.82187652588 90917.97403717 53762069.37164
vector 47109  IntersectionExampleScenario.node[20].veinsmobility  posx  ETV
vector 47110  IntersectionExampleScenario.node[20].veinsmobility  posy  ETV
vector 47111  IntersectionExampleScenario.node[20].veinsmobility  speed  ETV
vector 47112  IntersectionExampleScenario.node[20].veinsmobility  acceleration  ETV
vector 47113  IntersectionExampleScenario.node[20].veinsmobility  co2emission  ETV
vector 47116  IntersectionExampleScenario.node[21].veinsmobility  posx  ETV
vector 47117  IntersectionExampleScenario.node[21].veinsmobility  posy  ETV
vector 47118  IntersectionExampleScenario.node[21].veinsmobility  speed  ETV
vector 47119  IntersectionExampleScenario.node[21].veinsmobility  acceleration  ETV
vector 47120  IntersectionExampleScenario.node[21].veinsmobility  co2emission  ETV
47015	86514 5123 449 4128 16.5 56.5 161 0.973 11.810082123732 524.70898782287 2929.8246524333
47014	91637 4751 449 4128 16.5 56.5 161 -3.5631904602051 2.5 39.699392318726 299.01416851799
47013	96388 4989 434 4128 16.25 56.5 162 5.6500000953674 15.875 2246.1396999359 32616.804611394
47012	101377 5337 419 4128 16 56.5 163 486.85000610352 734.5269317627 87465.374038696 47863784.870633
47011	106714 5331 419 4128 16 56.5 163 486.84848022461 800.04531860352 94224.224388123 56412134.756235
47022	112045 5162 498 4220 17.25 57.5 162 0.973 11.36141391502 499.36840987909 2625.3918602737
47021	117207 4757 498 4220 17.25 57.5 162 -3.3388996124268 2.5 37.15309715271 269.69916445364
47020	121964 5034 481 4220 17 57.5 163 5.6500000953674 15.25 2186.2853703499 30576.298598804
47019	126998 5375 464 4220 16.75 57.5 164 236.04461669922 483.14999389648 70841.535461426 31550083.264084
47018	132373 5363 464 4220 16.75 57.5 164 184.17810058594 483.14999389648 65230.256011963 27708323.357238
47001	137736 5773 155 4312 10.5 58.5 193 0.94600815583079 12.26218747632 588.62468046719 3327.5274474919
47000	143509 5334 155 4312 10.5 58.5 193 -8.3548927307129 4 41.566686630249 518.06766388899
46999	148843 5541 144 4312 10.25 58.5 194 0 16.5 2173.0889325142 31877.595060911
46998	154384 6347 133 4312 10 58.5 195 184.17810058594 483.36395263672 80313.912139893 34948611.43052
46997	160731 6300 133 4312 10 58.5 195 486.85000610352 731.94525146484 102657.11288452 54993598.332432
46980	167031 6288 48 4404 6.75 59.5 212 0.973 11.200708441096 574.40667364262 2735.6804311176
46979	173319 5737 48 4404 6.75 59.5 212 -7.3439340591431 4 37.32285118103 462.07896235472
46978	179056 6182 43 4404 6.5 59.5 213 0 15.151350021362 2207.8404986858 30819.356030406
46977	185238 6950 38 4404 6.25 59.5 214 237.51092529297 785.82187652588 110324.55141449 61075303.98324
46976	192188 6965 38 4404 6.25 59.5 214 483.14999389648 483.14999389648 103394.09869385 49954858.152865
vector 47123  IntersectionExampleScenario.node[22].veinsmobility  posx  ETV
vector 47124  IntersectionExampleScenario.node[22].veinsmobility  posy  ETV
46994	199307 6279 144 4497 10.25 60.5 202 0.973 11.722998194595 598.35700219253 3080.5225604434
46993	205586 6405 144 4497 10.25 60.5 202 -4.5 2.5000002384186 41.227170944214 445.66111355384
46992	211991 6587 133 4497 10 60.5 203 0 16.342821121216 2253.1094401125 32403.500701649
46991	218578 6645 124 4497 9.75 60.5 204 483.07412719727 795.46562957764 114325.17453766 66138104.719295
46990	225223 6669 124 4497 9.75 60.5 204 483.14999389648 735.10623168945 106733.73298645 56886152.262363
vector 47125  IntersectionExampleScenario.node[22].veinsmobility  speed  ETV
vector 47126  IntersectionExampleScenario.node[22].veinsmobility  acceleration  ETV
vector 47127  IntersectionExampleScenario.node[22].veinsmobility  co2emission  ETV
47036	232139 4820 962 4647 23.75 62 154 0.973 12.099024792222 550.58622822065 3494.4371118525
47035	236959 4559 962 4647 23.75 62 154 -2.9621200561523 2.5 41.227170944214 294.0947982907
47034	241518 4879 941 4647 23.5 62 155 5.6500000953674 16.27499961853 2210.9512805939 32444.644048
47033	246397 5128 920 4647 23.25 62 156 238.26055908203 785.82187652588 81823.517555237 46905663.965208
47032	251525 5144 920 4647 23.25 62 156 483.14999389648 483.14999389648 75371.399047852 36415690.989939
vector 47130  IntersectionExampleScenario.node[23].veinsmobility  posx  ETV
vector 47131  IntersectionExampleScenario.node[23].veinsmobility  posy  ETV
vector 47132  IntersectionExampleScenario.node[23].veinsmobility  speed  ETV
vector 47137  IntersectionExampleScenario.node[24].veinsmobility  posx  ETV
vector 47138  IntersectionExampleScenario.node[24].veinsmobility  posy  ETV
vector 47133  IntersectionExampleScenario.node[23].veinsmobility  acceleration  ETV
vector 47134  IntersectionExampleScenario.node[23].veinsmobility  co2emission  ETV
vector 47139  IntersectionExampleScenario.node[24].veinsmobility  speed  ETV
vector 47140  IntersectionExampleScenario.node[24].veinsmobility  acceleration  ETV
vector 47141  IntersectionExampleScenario.node[24].veinsmobility  co2emission  ETV
47043	257471 5142 1197 4974 26.5 66 159 0.973 11.200708441096 456.73025792377 2199.7707180944
47042	262613 4597 1197 4974 26.5 66 159 -3.609977722168 2.5 35.964826583862 173.546437922
47041	267210 5048 1174 4974 26.25 66 160 5.6500000953674 15.02499961853 2217.4476184845 31251.739127246
47040	272258 5256 1151 4974 26 66 161 184.17810058594 733.53187561035 72390.111404419 36815025.135914
47039	277514 5311 1151 4974 26 66 161 486.85000610352 486.85000610352 78382.850982666 38160691.479322
vector 47144  IntersectionExampleScenario.node[25].veinsmobility  posx  ETV
vector 47145  IntersectionExampleScenario.node[25].veinsmobility  posy  ETV
vector 47151  IntersectionExampleScenario.node[26].veinsmobility  posx  ETV
vector 47152  IntersectionExampleScenario.node[26].veinsmobility  posy  ETV
vector 47146  IntersectionExampleScenario.node[25].veinsmobility  speed  ETV
vector 47153  IntersectionExampleScenario.node[26].veinsmobility  speed  ETV
vector 47147  IntersectionExampleScenario.node[25].veinsmobility  acceleration  ETV
vector 47148  IntersectionExampleScenario.node[25].veinsmobility  co2emission  ETV
vector 47154  IntersectionExampleScenario.node[26].veinsmobility  acceleration  ETV
vector 47155  IntersectionExampleScenario.node[26].veinsmobility  co2emission  ETV
47064	283627 5350 1629 5448 30.75 72 166 0.973 10.756497587458 440.48886073936 1941.5738133925
47063	288977 4756 1629 5448 30.75 72 166 -2.9879531860352 2.5 32.739515304565 150.76927562137
47062	293733 5303 1602 5448 30.5 72 167 5.6500000953674 14.39999961853 2216.9575691223 29807.424580157
47061	299036 5520 1575 5448 30.25 72 168 236.26599121094 785.82187652588 87219.026618958 49731968.870701
47060	304556 5544 1575 5448 30.25 72 168 483.14999389648 483.14999389648 81169.198974609 39216897.989165
vector 47158  IntersectionExampleScenario.node[27].veinsmobility  posx  ETV
vector 47159  IntersectionExampleScenario.node[27].veinsmobility  posy  ETV
vector 47160  IntersectionExampleScenario.node[27].veinsmobility  speed  ETV
vector 47161  IntersectionExampleScenario.node[27].veinsmobility  acceleration  ETV
vector 47162  IntersectionExampleScenario.node[27].veinsmobility  co2emission  ETV
vector 47165  IntersectionExampleScenario.node[28].veinsmobility  posx  ETV
vector 47166  IntersectionExampleScenario.node[28].veinsmobility  posy  ETV
vector 47167  IntersectionExampleScenario.node[28].veinsmobility  speed  ETV
vector 47168  IntersectionExampleScenario.node[28].veinsmobility  acceleration  ETV
vector 47169  IntersectionExampleScenario.node[28].veinsmobility  co2emission  ETV
47050	310902 6121 1247 5908 27 77.75 204 0.973 11.90022389248 587.55772426492 3110.5809016761
47049	317023 5556 1247 5908 27 77.75 204 -6.9388580322266 4 39.869146347046 486.92859174969
47048	322579 5928 1222 5908 26.75 77.75 205 0 16 2204.3578848839 31907.458465355
47047	328507 6799 1197 5908 26.5 77.75 206 486.85000610352 486.85000610352 100291.10125732 48826723.259256
47046	335306 6787 1197 5908 26.5 77.75 206 238.82672119141 785.82187652588 106476.24968719 59085393.39697
vector 47172  IntersectionExampleScenario.node[29].veinsmobility  posx  ETV
vector 47173  IntersectionExampleScenario.node[29].veinsmobility  posy  ETV
47029	342247 6706 825 5985 22 78.75 228 0.973 11.450879080643 587.37445643187 2846.8223430518
47028	348953 6391 825 5985 22 78.75 228 -8.6854066848755 4 36.643835067749 492.53807366619
47027	355344 6458 806 5985 21.75 78.75 229 0 15.375 2218.0932199955 30788.075787544
47026	361802 7580 787 5985 21.5 78.75 230 483.14999389648 483.14999389648 111124.49859619 53689800.8185
47025	369382 7546 787 5985 21.5 78.75 230 184.17810058594 735.25332641602 105003.87684631 52230755.805021
vector 47174  IntersectionExampleScenario.node[29].veinsmobility  speed  ETV
vector 47175  IntersectionExampleScenario.node[29].veinsmobility  acceleration  ETV
vector 47176  IntersectionExampleScenario.node[29].veinsmobility  co2emission  ETV
47057	377175 6162 1425 6048 28.75 79.5 204 0.973 11.450879080643 561.95018783418 2808.3499830667
47056	383337 6302 1425 6048 28.75 79.5 204 -3.9460694789886 2.5000004768372 38.511121749878 339.73567142579
47055	389639 6533 1399 6048 28.5 79.5 205 0 15.375 2201.9602251798 29652.107057877
47054	396172 6783 1372 6048 28.25 79.5 206 483.14999389648 731.89126586914 107830.40487671 57484816.606687
47053	402955 6765 1372 6048 28.25 79.5 206 184.17810058594 487.05755615234 84661.245300293 36694529.208028
vector 47179  IntersectionExampleScenario.node[30].veinsmobility  posx  ETV
vector 47180  IntersectionExampleScenario.node[30].veinsmobility  posy  ETV
vector 47186  IntersectionExampleScenario.node[31].veinsmobility  posx  ETV
vector 47187  IntersectionExampleScenario.node[31].veinsmobility  posy  ETV
vector 47181  IntersectionExampleScenario.node[30].veinsmobility  speed  ETV
vector 47188  IntersectionExampleScenario.node[31].veinsmobility  speed  ETV
vector 47182  IntersectionExampleScenario.node[30].veinsmobility  acceleration  ETV
vector 47183  IntersectionExampleScenario.node[30].veinsmobility  co2emission  ETV
vector 47189  IntersectionExampleScenario.node[31].veinsmobility  acceleration  ETV
vector 47190  IntersectionExampleScenario.node[31].veinsmobility  co2emission  ETV
47085	410522 5610 2250 6271 36.25 82 184 0.973 12.099024792222 590.08806494879 3368.6135022901
47084	416132 5525 2250 6271 36.25 82 184 -31.15802192688 4 40.038900375366 1383.3363378161
47083	421657 5847 2219 6271 36 82 185 0 16.27499961853 2165.4992935658 29445.739119358
47082	427504 6134 2188 6271 35.75 82 186 486.85000610352 731.49124145508 98427.294403076 53031168.988894
47081	433638 6115 2188 6271 35.75 82 186 486.62176513672 785.82187652588 105197.60056305 61280410.971457
47071	439753 6169 1714 6271 31.5 82 203 0.973 11.810082123732 578.89781528542 3078.1776658042
47070	445922 6381 1714 6271 31.5 82 203 -4.5 2.5000019073486 38.511121749878 387.42131586589
47069	452303 6396 1685 6271 31.25 82 204 1.9852063655853 15.875 2244.663642168 29545.092054621
47068	458699 6756 1656 6271 31 82 205 235.83923339844 483.14999389648 90826.008514404 41263318.256442
47067	465455 6737 1656 6271 31 82 205 169.95465087891 483.14999389648 82215.878509521 35012264.422409
vector 47193  IntersectionExampleScenario.node[32].veinsmobility  posx  ETV
vector 47194  IntersectionExampleScenario.node[32].veinsmobility  posy  ETV
vector 47195  IntersectionExampleScenario.node[32].veinsmobility  speed  ETV
vector 47196  IntersectionExampleScenario.node[32].veinsmobility  acceleration  ETV
vector 47197  IntersectionExampleScenario.node[32].veinsmobility  co2emission  ETV
vector 47200  IntersectionExampleScenario.node[33].veinsmobility  posx  ETV
vector 47201  IntersectionExampleScenario.node[33].veinsmobility  posy  ETV
vector 47202  IntersectionExampleScenario.node[33].veinsmobility  speed  ETV
vector 47203  IntersectionExampleScenario.node[33].veinsmobility  acceleration  ETV
vector 47204  IntersectionExampleScenario.node[33].veinsmobility  co2emission  ETV
47078	472994 6040 2072 6464 34.75 84 198 0.973 11.810082123732 566.89647340349 3006.2132186148
47077	479034 6135 2072 6464 34.75 84 198 -4.5 2.5 39.699392318726 340.60342463426
47076	485169 6232 2043 6464 34.5 84 199 2.2230672836304 15.875 2253.2657186985 30067.564065419
47075	491401 6586 2014 6464 34.25 84 200 238.72155761719 483.14999389648 88723.863861084 40329384.172101
47074	497987 6581 2014 6464 34.25 84 200 165.81793212891 483.30801391602 79727.8152771 33869004.438741
47092	504568 5383 2798 6514 41 84.5 175 0.973 12.099024792222 576.50815357955 3408.8461117966
47091	509951 5274 2798 6514 41 84.5 175 -4.5 2.5 40.038900375366 444.74960190697
47090	515225 5515 2771 6514 40.75 84.5 176 5.1869425773621 16.27499961853 2178.9816145897 29630.793256441
47089	520740 5829 2743 6514 40.5 84.5 177 486.85000610352 732.20765686035 94098.61882019 50960910.379319
47088	526569 5818 2743 6514 40.5 84.5 177 486.71249389648 785.82187652588 100718.49250031 59060464.239974
vector 47207  IntersectionExampleScenario.node[34].veinsmobility  posx  ETV
vector 47208  IntersectionExampleScenario.node[34].veinsmobility  posy  ETV
vector 47214  IntersectionExampleScenario.node[35].veinsmobility  posx  ETV
vector 47215  IntersectionExampleScenario.node[35].veinsmobility  posy  ETV
vector 47209  IntersectionExampleScenario.node[34].veinsmobility  speed  ETV
vector 47210  IntersectionExampleScenario.node[34].veinsmobility  acceleration  ETV
vector 47211  IntersectionExampleScenario.node[34].veinsmobility  co2emission  ETV
vector 47216  IntersectionExampleScenario.node[35].veinsmobility  speed  ETV
vector 47217  IntersectionExampleScenario.node[35].veinsmobility  acceleration  ETV
vector 47218  IntersectionExampleScenario.node[35].veinsmobility  co2emission  ETV
47106	533189 4953 3796 7183 52.75 90.75 153 0.97223939240464 11.648172402475 471.80125096764 2469.8143218926
47105	538142 4475 3796 7183 52.75 90.75 153 -3.5467910766602 2.5 38.680875778198 197.15975724438
47104	542617 4856 3775 7183 52.5 90.75 154 5.6500000953674 15.64999961853 2210.3583621979 32381.155842395
47103	547473 5117 3754 7183 52.25 90.75 155 486.85000610352 486.85000610352 75461.750946045 36738553.908664
47102	552590 5099 3754 7183 52.25 90.75 155 238.41052246094 785.82187652588 80957.144294739 46372668.315127
vector 47221  IntersectionExampleScenario.node[36].veinsmobility  posx  ETV
vector 47222  IntersectionExampleScenario.node[36].veinsmobility  posy  ETV
vector 47223  IntersectionExampleScenario.node[36].veinsmobility  speed  ETV
vector 47224  IntersectionExampleScenario.node[36].veinsmobility  acceleration  ETV
vector 47225  IntersectionExampleScenario.node[36].veinsmobility  co2emission  ETV
vector 47228  IntersectionExampleScenario.node[37].veinsmobility  posx  ETV
vector 47229  IntersectionExampleScenario.node[37].veinsmobility  posy  ETV
vector 47230  IntersectionExampleScenario.node[37].veinsmobility  speed  ETV
vector 47231  IntersectionExampleScenario.node[37].veinsmobility  acceleration  ETV
vector 47232  IntersectionExampleScenario.node[37].veinsmobility  co2emission  ETV
47113	558491 5128 3905 7496 54 93.75 160 0.973 11.90022389248 529.03891678181 3034.9777657995
47112	563619 4998 3905 7496 54 93.75 160 -4.4154930114746 2.5 39.529638290405 294.29416480026
47111	568617 5010 3882 7496 53.75 93.75 161 5.6500000953674 16 2286.8410692215 33473.517025091
47110	573627 5335 3859 7496 53.5 93.75 162 237.98443603516 486.85000610352 70694.455871582 31792942.728276
47109	578962 5335 3859 7496 53.5 93.75 162 482.96313476562 807.09531402588 94127.746665955 56774354.931316
vector 47235  IntersectionExampleScenario.node[38].veinsmobility  posx  ETV
vector 47236  IntersectionExampleScenario.node[38].veinsmobility  posy  ETV
vector 47237  IntersectionExampleScenario.node[38].veinsmobility  speed  ETV
vector 47238  IntersectionExampleScenario.node[38].veinsmobility  acceleration  ETV
vector 47239  IntersectionExampleScenario.node[38].veinsmobility  co2emission  ETV
vector 47242  IntersectionExampleScenario.node[39].veinsmobility  posx  ETV
vector 47243  IntersectionExampleScenario.node[39].veinsmobility  posy  ETV
47099	584852 5805 3678 7983 51.25 98.25 189 0.973 11.648172402475 558.55996353784 2904.7070630903
47098	590657 5262 3678 7983 51.25 98.25 189 -7.092942237854 4 38.341367721558 476.74128165784
47097	595919 5641 3659 7983 51 98.25 190 0 15.64999961853 2177.7517211437 30631.668078274
47096	601560 6277 3640 7983 50.75 98.25 191 184.17810058594 483.36395263672 78090.534393311 33803316.303165
47095	607837 6234 3640 7983 50.75 98.25 191 486.85000610352 733.04777526855 101170.09898376 54576337.837492
vector 47244  IntersectionExampleScenario.node[39].veinsmobility  speed  ETV
vector 47245  IntersectionExampleScenario.node[39].veinsmobility  acceleration  ETV
vector 47246  IntersectionExampleScenario.node[39].veinsmobility  co2emission  ETV
47120	614318 5408 4082 8128 56 99.5 175 0.973 11.54047740176 526.3889015518 2783.3251861063
47119	619726 5443 4082 8128 56 99.5 175 -3.1627082824707 2.5 37.32285118103 313.59860040182
47118	625169 5621 4059 8128 55.75 99.5 176 2.6947929859161 15.5 2215.6950023174 30356.187485656
47117	630790 5806 4036 8128 55.5 99.5 177 184.17810058594 733.12480163574 79511.910049438 39909936.085522
47116	636596 5841 4036 8128 55.5 99.5 177 486.85000610352 486.85000610352 86172.451080322 41953058.33441
vector 47249  IntersectionExampleScenario.node[40].veinsmobility  posx  ETV
vector 47250  IntersectionExampleScenario.node[40].veinsmobility  posy  ETV
vector 47251  IntersectionExampleScenario.node[40].veinsmobility  speed  ETV
vector 47252  IntersectionExampleScenario.node[40].veinsmobility  acceleration  ETV
vector 47253  IntersectionExampleScenario.node[40].veinsmobility  co2emission  ETV
47141	642838 5150 4974 8743 66 105.5 159 0.973 11.200708441096 454.35911991347 2192.1748794677
47140	647988 4654 4974 8743 66 105.5 159 -2.95166015625 2.5 35.795072555542 167.30536973474
47139	652642 5087 4954 8743 65.75 105.5 160 5.6500000953674 15.02499961853 2213.0065221786 31118.933839836
47138	657729 5322 4933 8743 65.5 105.5 161 237.48425292969 785.82187652588 83850.817939758 47922565.566958
47137	663051 5336 4933 8743 65.5 105.5 161 483.14999389648 483.14999389648 77787.149017334 37582860.57295
47134	668387 5218 4933 8806 65.5 106.25 164 0.973 11.36141391502 497.0213641318 2669.5253179679
47133	673605 5103 4933 8806 65.5 106.25 164 -3.5304260253906 2.5 35.964826583862 276.79395149043
47132	678708 5148 4913 8806 65.25 106.25 165 5.6500000953674 15.25 2186.3334636688 30133.726532761
47131	683856 5476 4892 8806 65 106.25 166 184.17810058594 483.14999389648 66046.196899414 28056399.360186
47130	689332 5491 4892 8806 65 106.25 166 486.85000610352 734.08201599121 89376.13192749 49087778.058065
47148	694823 5089 5096 8827 67.5 106.5 157 0.973 11.990504229548 537.92121174326 3050.9870278762
47147	699912 4661 5096 8827 67.5 106.5 157 -4.5 2.5 40.717908859253 306.61348318789
47146	704573 5004 5073 8827 67.25 106.5 158 5.6500000953674 16.125 2294.7540664673 34143.171409065
47145	709577 5224 5050 8827 67 106.5 159 166.078125 733.84161376953 69758.306182861 35061412.353995
47144	714801 5273 5050 8827 67 106.5 159 486.85000610352 486.85000610352 77409.150970459 37686645.622436
vector 47256  IntersectionExampleScenario.node[41].veinsmobility  posx  ETV
vector 47257  IntersectionExampleScenario.node[41].veinsmobility  posy  ETV
vector 47258  IntersectionExampleScenario.node[41].veinsmobility  speed  ETV
vector 47259  IntersectionExampleScenario.node[41].veinsmobility  acceleration  ETV
vector 47260  IntersectionExampleScenario.node[41].veinsmobility  co2emission  ETV
vector 47263  IntersectionExampleScenario.node[42].veinsmobility  posx  ETV
vector 47264  IntersectionExampleScenario.node[42].veinsmobility  posy  ETV
vector 47265  IntersectionExampleScenario.node[42].veinsmobility  speed  ETV
vector 47266  IntersectionExampleScenario.node[42].veinsmobility  acceleration  ETV
vector 47267  IntersectionExampleScenario.node[42].veinsmobility  co2emission  ETV
47162	720876 5019 5604 9229 74 112.25 154 0.97223939240464 11.648172402475 472.89792127018 2493.2582818514
47161	725895 4829 5604 9229 74 112.25 154 -3.1163940429688 2.5 38.680875778198 189.85775586818
47160	730724 4933 5583 9229 73.75 112.25 155 5.6500000953674 15.64999961853 2224.9366130829 32596.116506991
47159	735657 5167 5562 9229 73.5 112.25 156 184.17810058594 735.20866394043 70114.604431152 35679100.496682
47158	740824 5198 5562 9229 73.5 112.25 156 486.85000610352 486.85000610352 75948.600952148 36975576.837107
vector 47270  IntersectionExampleScenario.node[43].veinsmobility  posx  ETV
vector 47271  IntersectionExampleScenario.node[43].veinsmobility  posy  ETV
vector 47272  IntersectionExampleScenario.node[43].veinsmobility  speed  ETV
vector 47273  IntersectionExampleScenario.node[43].veinsmobility  acceleration  ETV
vector 47274  IntersectionExampleScenario.node[43].veinsmobility  co2emission  ETV
47155	746423 6234 5096 9658 67.5 117.75 202 0.973 11.990504229548 586.60245663902 3032.8835423603
47154	752657 6407 5096 9658 67.5 117.75 202 -3.8664257526398 2.5000002384186 41.057416915894 378.17206025982
47153	759064 6611 5073 9658 67.25 117.75 203 0 16.125 2218.3560537174 31432.221535994
47152	765675 6804 5050 9658 67 117.75 204 483.14999389648 483.14999389648 98562.598754883 47620518.986843
47151	772479 6771 5050 9658 67 117.75 204 184.17810058594 733.73429870605 91867.862075806 45423325.81463
47127	779250 6806 4547 9658 61 117.75 228 0.973 11.36141391502 582.2664068989 2787.7279862127
47126	786056 6287 4547 9658 61 117.75 228 -7.0918092727661 4 36.474081039429 459.18080908697
47125	792343 6513 4522 9658 60.75 117.75 229 0 15.25 2183.440841198 29929.300743937
47124	798856 7595 4497 9658 60.5 117.75 230 235.26263427734 483.14999389648 102593.22790527 46853334.969538
47123	806451 7645 4497 9658 60.5 117.75 230 184.17810058594 483.36395263672 96245.886779785 42297546.721037
47176	814096 5269 6027 9784 79.25 119.5 162 0.973 11.36141391502 501.42798176086 2632.0958626958
47175	819365 4768 6027 9784 79.25 119.5 162 -3.7022094726562 2.5 37.15309715271 273.41820529188
47174	824133 5141 6006 9784 79 119.5 163 5.6500000953674 15.25 2185.2964630127 30539.770807099
47173	829274 5484 5985 9784 78.75 119.5 164 486.85000610352 733.68696594238 88218.87097168 48401526.965481
47172	834758 5484 5985 9784 78.75 119.5 164 486.85000610352 785.82187652588 93857.829551697 55477455.519172
47183	840242 5200 6224 9887 81.5 121 159 0.973 11.54047740176 514.22007981301 2814.2258260847
47182	845442 4721 6224 9887 81.5 121 159 -4.5 2.5 38.680875778198 249.24046013164
47181	850163 5140 6199 9887 81.25 121 160 5.6500000953674 15.5 2286.5347089767 33332.84476193
47180	855303 5396 6174 9887 81 121 161 486.85000610352 486.85000610352 78382.850982666 38160691.479322
47179	860699 5363 6174 9887 81 121 161 236.64593505859 802.70781707764 85320.850784302 49724898.726816
47197	866062 5032 6390 9945 83.25 122 156 0.973 12.418844714109 542.95502461429 3019.8410096048
47196	871094 4903 6390 9945 83.25 122 156 -2.8977432250977 2.5 44.261724472046 224.55607573063
47195	875997 5043 6365 9945 83 122 157 5.6500000953674 16.715431213379 2333.0202283859 35538.049821566
47194	881040 5302 6340 9945 82.75 122 158 486.85000610352 486.85000610352 76922.300964355 37449622.693993
47193	886342 5283 6340 9945 82.75 122 158 235.73803710938 813.50078582764 84365.651115417 49701747.729227
47169	891625 5799 5845 9971 77 122.5 183 0.973 10.756497587458 530.27695660388 2613.779723435
47168	897424 5804 5845 9971 77 122.5 183 -4.0624217987061 2.5 33.248777389526 314.43814730901
47167	903228 6138 5824 9971 76.75 122.5 184 5.5624990463257 14.39999961853 2209.7291836739 27926.445068946
47166	909366 6183 5803 9971 76.5 122.5 185 483.14999389648 733.89266967773 98582.232025146 53612806.059415
47165	915549 6164 5803 9971 76.5 122.5 185 184.17810058594 486.85000610352 74322.261627197 31743910.423052
47204	921713 4991 6464 9994 84 123 157 0.973 11.809902764472 531.71113738368 3178.147876732
47203	926704 4728 6464 9994 84 123 157 -4.0960578918457 2.5 38.850629806519 280.68710041742
47202	931432 5078 6439 9994 83.75 123 158 5.6500000953674 15.874751091003 2221.6395044327 31918.403060237
47201	936510 5339 6414 9994 83.5 123 159 483.14999389648 483.14999389648 76820.849029541 37115992.739745
47200	941849 5293 6414 9994 83.5 123 159 184.17810058594 734.30754089355 71076.935516357 35945559.701106
vector 47277  IntersectionExampleScenario.node[44].veinsmobility  posx  ETV
vector 47278  IntersectionExampleScenario.node[44].veinsmobility  posy  ETV
vector 47279  IntersectionExampleScenario.node[44].veinsmobility  speed  ETV
vector 47280  IntersectionExampleScenario.node[44].veinsmobility  acceleration  ETV
vector 47281  IntersectionExampleScenario.node[44].veinsmobility  co2emission  ETV
47218	947543 5097 6774 10098 87 125.25 154 0.973 11.648172402475 488.50564039779 2546.1811499591
47217	952640 4922 6774 10098 87 125.25 154 -4.0003204345703 2.5 40.378400802612 202.70747169727
47216	957562 4995 6745 10098 86.75 125.25 155 5.6500000953674 15.792996406555 2262.3023004532 33754.820101099
47215	962557 5259 6716 10098 86.5 125.25 156 483.14999389648 483.14999389648 75371.399047852 36415690.989939
47214	967816 5219 6716 10098 86.5 125.25 156 171.40313720703 731.42443847656 68733.537826538 34572237.673832
vector 47284  IntersectionExampleScenario.node[45].veinsmobility  posx  ETV
vector 47285  IntersectionExampleScenario.node[45].veinsmobility  posy  ETV
vector 47286  IntersectionExampleScenario.node[45].veinsmobility  speed  ETV
vector 47287  IntersectionExampleScenario.node[45].veinsmobility  acceleration  ETV
vector 47288  IntersectionExampleScenario.node[45].veinsmobility  co2emission  ETV
47225	973436 5191 7259 10337 91.5 130.5 157 0.973 11.90022389248 506.16319002253 2806.7259138913
47224	978627 5075 7259 10337 91.5 130.5 157 -3.6725425720215 2.5 39.869146347046 251.67139148998
47223	983702 5068 7234 10337 91.25 130.5 158 5.6500000953674 16 2247.8451881409 33018.86403445
47222	988770 5393 7208 10337 91 130.5 159 483.14999389648 734.13052368164 85097.090316772 46496231.332033
47221	994163 5369 7208 10337 91 130.5 159 175.34686279297 486.85000610352 62721.613037109 26633005.136375
vector 47291  IntersectionExampleScenario.node[46].veinsmobility  posx  ETV
vector 47292  IntersectionExampleScenario.node[46].veinsmobility  posy  ETV
vector 47293  IntersectionExampleScenario.node[46].veinsmobility  speed  ETV
vector 47294  IntersectionExampleScenario.node[46].veinsmobility  acceleration  ETV
vector 47295  IntersectionExampleScenario.node[46].veinsmobility  co2emission  ETV
47239	999933 4984 7821 10510 96.75 133.75 149 0.973 12.099024792222 489.0549849157 2759.7990548981
47238	1004917 4601 7821 10510 96.75 133.75 149 -3.3615646362305 2.5 41.227170944214 211.90550692683
47237	1009518 4876 7794 10510 96.5 133.75 150 5.6500000953674 16.27499961853 2215.6485786438 33537.560062301
47236	1014394 5164 7766 10510 96.25 133.75 151 486.85000610352 486.85000610352 73514.350921631 35790462.194892
47235	1019558 5157 7766 10510 96.25 133.75 151 237.31915283203 785.82187652588 78917.34778595 45240598.539291
vector 47298  IntersectionExampleScenario.node[47].veinsmobility  posx  ETV
vector 47299  IntersectionExampleScenario.node[47].veinsmobility  posy  ETV
vector 47300  IntersectionExampleScenario.node[47].veinsmobility  speed  ETV
vector 47301  IntersectionExampleScenario.node[47].veinsmobility  acceleration  ETV
vector 47302  IntersectionExampleScenario.node[47].veinsmobility  co2emission  ETV
47190	1025116 6768 6224 10725 81.5 137 223 0.973 11.90022389248 605.68040992329 3126.2113696542
47189	1031884 6212 6224 10725 81.5 137 223 -7.26416015625 4 39.699392318726 488.74838165171
47188	1038096 6512 6199 10725 81.25 137 224 0 16 2217.2996735573 32035.834915318
47187	1044608 7599 6174 10725 81 137 225 184.17810058594 734.53973388672 102533.39413452 50855641.578728
47186	1052207 7628 6174 10725 81 137 225 486.85000610352 486.85000610352 109541.25137329 53330158.899673
47211	1059835 6386 6745 10759 86.75 137.5 204 0.973 11.450879080643 567.65942240934 2831.6323520658
47210	1066221 5794 6745 10759 86.75 137.5 204 -7.3439340591431 4 37.32285118103 471.71975753043
47209	1072015 6224 6716 10759 86.5 137.5 205 0 15.375 2212.9979789257 30954.471572816
47208	1078239 6993 6689 10759 86.25 137.5 206 236.18798828125 785.82187652588 106257.23537445 59032200.559512
47207	1085232 7008 6689 10759 86.25 137.5 206 483.14999389648 483.14999389648 99528.898742676 48087386.820047
47232	1092240 5783 7388 10827 92.75 138.5 184 0.96333723109819 12.099024792222 554.47049686155 3131.613491908
47231	1098023 5836 7388 10827 92.75 138.5 184 -2.1437759399414 2.5 40.208654403687 314.0835616548
47230	1103859 6035 7361 10827 92.5 138.5 185 2.3532562255859 16.27499961853 2212.1437554359 30229.139343369
47229	1109894 6328 7334 10827 92.25 138.5 186 184.17810058594 486.87893676758 75370.045257568 32350117.708373
47228	1116222 6350 7334 10827 92.25 138.5 186 235.97619628906 486.85000610352 82328.439971924 37450847.817331
vector 47305  IntersectionExampleScenario.node[48].veinsmobility  posx  ETV
vector 47306  IntersectionExampleScenario.node[48].veinsmobility  posy  ETV
vector 47307  IntersectionExampleScenario.node[48].veinsmobility  speed  ETV
vector 47308  IntersectionExampleScenario.node[48].veinsmobility  acceleration  ETV
vector 47309  IntersectionExampleScenario.node[48].veinsmobility  co2emission  ETV
47246	1122973 5401 8041 10915 98.75 139.75 165 0.973 11.648172402475 513.205881562 2823.1101032664
47245	1128374 5223 8041 10915 98.75 139.75 165 -2.0975685119629 2.5 38.511121749878 247.03488195777
47244	1133597 5506 8012 10915 98.5 139.75 166 5.6500000953674 15.64999961853 2218.9418406487 30841.852571025
47243	1139103 5726 7983 10915 98.25 139.75 167 236.44812011719 785.82187652588 87296.855537415 49779677.67747
47242	1144829 5740 7983 10915 98.25 139.75 167 483.14999389648 483.14999389648 80686.048980713 38983464.072563
vector 47312  IntersectionExampleScenario.node[49].veinsmobility  posx  ETV
vector 47313  IntersectionExampleScenario.node[49].veinsmobility  posy  ETV
vector 47314  IntersectionExampleScenario.node[49].veinsmobility  speed  ETV
vector 47315  IntersectionExampleScenario.node[49].veinsmobility  acceleration  ETV
vector 47316  IntersectionExampleScenario.node[49].veinsmobility  co2emission  ETV
vector 47319  IntersectionExampleScenario.node[50].veinsmobility  posx  ETV
vector 47320  IntersectionExampleScenario.node[50].veinsmobility  posy  ETV
vector 47321  IntersectionExampleScenario.node[50].veinsmobility  speed  ETV
vector 47322  IntersectionExampleScenario.node[50].veinsmobility  acceleration  ETV
vector 47323  IntersectionExampleScenario.node[50].veinsmobility  co2emission  ETV
vector 47326  IntersectionExampleScenario.node[51].veinsmobility  posx  ETV
vector 47327  IntersectionExampleScenario.node[51].veinsmobility  posy  ETV
vector 47328  IntersectionExampleScenario.node[51].veinsmobility  speed  ETV
vector 47329  IntersectionExampleScenario.node[51].veinsmobility  acceleration  ETV
vector 47330  IntersectionExampleScenario.node[51].veinsmobility  co2emission  ETV
vector 47333  IntersectionExampleScenario.node[52].veinsmobility  posx  ETV
vector 47334  IntersectionExampleScenario.node[52].veinsmobility  posy  ETV
vector 47335  IntersectionExampleScenario.node[52].veinsmobility  speed  ETV
vector 47336  IntersectionExampleScenario.node[52].veinsmobility  acceleration  ETV
vector 47337  IntersectionExampleScenario.node[52].veinsmobility  co2emission  ETV
vector 47340  IntersectionExampleScenario.node[53].veinsmobility  posx  ETV
vector 47341  IntersectionExampleScenario.node[53].veinsmobility  posy  ETV
vector 47342  IntersectionExampleScenario.node[53].veinsmobility  speed  ETV
vector 47343  IntersectionExampleScenario.node[53].veinsmobility  acceleration  ETV
vector 47344  IntersectionExampleScenario.node[53].veinsmobility  co2emission  ETV
vector 47347  IntersectionExampleScenario.node[54].veinsmobility  posx  ETV
vector 47348  IntersectionExampleScenario.node[54].veinsmobility  posy  ETV
vector 47349  IntersectionExampleScenario.node[54].veinsmobility  speed  ETV
47253	1152806 6440 8649 11837 104.5 155.5 205 0.973 12.26218747632 607.42731326553 3367.3531345635
47252	1159246 5855 8649 11837 104.5 155.5 205 -7.0093650817871 4 42.415441513062 500.8220278914
47251	1165101 6172 8624 11837 104.25 155.5 206 0 16.5 2183.4749882221 32334.051822106
47250	1171273 7093 8599 11837 104 155.5 207 486.85000610352 734.26008605957 108551.31582642 57908078.308387
47249	1178366 7153 8599 11837 104 155.5 207 486.63604736328 785.82187652588 114737.70162201 65504455.328079
vector 47350  IntersectionExampleScenario.node[54].veinsmobility  acceleration  ETV
vector 47351  IntersectionExampleScenario.node[54].veinsmobility  co2emission  ETV
vector 47354  IntersectionExampleScenario.node[55].veinsmobility  posx  ETV
vector 47355  IntersectionExampleScenario.node[55].veinsmobility  posy  ETV
vector 47356  IntersectionExampleScenario.node[55].veinsmobility  speed  ETV
vector 47357  IntersectionExampleScenario.node[55].veinsmobility  acceleration  ETV
vector 47358  IntersectionExampleScenario.node[55].veinsmobility  co2emission  ETV
47274	1186089 5790 9347 12029 113.75 158 178 0.973 11.54047740176 523.31978596972 2730.6107510207
47273	1191879 5721 9347 12029 113.75 158 178 -2.135440826416 2.5 37.15309715271 274.4371268327
47272	1197600 5992 9326 12029 113.5 158 179 3.7346382141113 15.5 2219.6560416222 29771.279732535
47271	1203592 6260 9305 12029 113.25 158 180 486.85000610352 486.85000610352 87633.001098633 42664127.119739
47270	1209852 6251 9305 12029 113.25 158 180 236.20416259766 785.82187652588 93968.548149109 53277461.868215
47260	1216103 6289 9119 12063 110.75 158.5 192 0.973 11.200708441096 545.30386660647 2677.1477065925
47259	1222392 6298 9119 12063 110.75 158.5 192 -8.8170804977417 4 36.134572982788 474.2890136848
47258	1228690 6462 9102 12063 110.5 158.5 193 0 15.121208190918 2193.88677302 29879.475946308
47257	1235152 6731 9085 12063 110.25 158.5 194 483.14999389648 734.47773742676 102549.29243469 55281840.672632
47256	1241883 6713 9085 12063 110.25 158.5 194 184.17810058594 486.85000610352 79499.54864502 34523108.022193
vector 47361  IntersectionExampleScenario.node[56].veinsmobility  posx  ETV
vector 47362  IntersectionExampleScenario.node[56].veinsmobility  posy  ETV
vector 47363  IntersectionExampleScenario.node[56].veinsmobility  speed  ETV
vector 47364  IntersectionExampleScenario.node[56].veinsmobility  acceleration  ETV
vector 47365  IntersectionExampleScenario.node[56].veinsmobility  co2emission  ETV
vector 47368  IntersectionExampleScenario.node[57].veinsmobility  posx  ETV
vector 47369  IntersectionExampleScenario.node[57].veinsmobility  posy  ETV
vector 47370  IntersectionExampleScenario.node[57].veinsmobility  speed  ETV
vector 47371  IntersectionExampleScenario.node[57].veinsmobility  acceleration  ETV
vector 47372  IntersectionExampleScenario.node[57].veinsmobility  co2emission  ETV
47267	1249398 6537 9191 12230 111.75 160.75 197 0.973 10.967068847024 550.80844549233 2499.3774698131
47266	1255935 6353 9191 12230 111.75 160.75 197 -4.5 2.5 35.795072555542 370.17543688285
47265	1262288 6769 9172 12230 111.5 160.75 198 0.436214864254 14.775519371033 2289.9998798668 30696.722224355
47264	1269057 6911 9153 12230 111.25 160.75 199 483.14999389648 735.16619873047 105034.38024902 56536216.404467
47263	1275968 6885 9153 12230 111.25 160.75 199 162.00311279297 486.85000610352 79563.116760254 34119295.585235
vector 47375  IntersectionExampleScenario.node[58].veinsmobility  posx  ETV
vector 47376  IntersectionExampleScenario.node[58].veinsmobility  posy  ETV
vector 47377  IntersectionExampleScenario.node[58].veinsmobility  speed  ETV
vector 47378  IntersectionExampleScenario.node[58].veinsmobility  acceleration  ETV
vector 47379  IntersectionExampleScenario.node[58].veinsmobility  co2emission  ETV
47281	1283254 5558 10031 12559 123.75 164.5 164 0.973 11.316182276261 506.60339131079 2699.9216680497
47280	1288812 5052 10031 12559 123.75 164.5 164 -3.3414497375488 2.5 36.474081039429 276.01583248648
47279	1293864 5474 10018 12559 123.5 164.5 165 5.6500000953674 15.186732292175 2191.2454175949 30299.093692961
47278	1299338 5800 10005 12559 123.25 164.5 166 486.85000610352 735.25166320801 89397.525405884 49117268.531461
47277	1305138 5805 10005 12559 123.25 164.5 166 486.85000610352 785.82187652588 94931.688926697 56066241.154678
vector 47382  IntersectionExampleScenario.node[59].veinsmobility  posx  ETV
vector 47383  IntersectionExampleScenario.node[59].veinsmobility  posy  ETV
vector 47384  IntersectionExampleScenario.node[59].veinsmobility  speed  ETV
vector 47385  IntersectionExampleScenario.node[59].veinsmobility  acceleration  ETV
vector 47386  IntersectionExampleScenario.node[59].veinsmobility  co2emission  ETV
vector 47389  IntersectionExampleScenario.node[60].veinsmobility  posx  ETV
vector 47390  IntersectionExampleScenario.node[60].veinsmobility  posy  ETV
vector 47391  IntersectionExampleScenario.node[60].veinsmobility  speed  ETV
vector 47392  IntersectionExampleScenario.node[60].veinsmobility  acceleration  ETV
vector 47393  IntersectionExampleScenario.node[60].veinsmobility  co2emission  ETV
vector 47396  IntersectionExampleScenario.node[61].veinsmobility  posx  ETV
vector 47397  IntersectionExampleScenario.node[61].veinsmobility  posy  ETV
vector 47398  IntersectionExampleScenario.node[61].veinsmobility  speed  ETV
47288	1311977 5221 10311 12944 130 168.25 154 0.973 11.90022389248 501.55455001131 2757.5586014277
47287	1317198 5090 10311 12944 130 168.25 154 -3.918327331543 2.5 40.038900375366 246.80743084106
47286	1322288 5131 10298 12944 129.75 168.25 155 5.6500000953674 16 2207.035402298 32453.616240088
47285	1327419 5457 10285 12944 129.5 168.25 156 236.45733642578 486.85000610352 67735.685455322 30348266.37235
47284	1332876 5450 10285 12944 129.5 168.25 156 482.96453857422 785.82187652588 89313.867042542 52889322.251104
vector 47403  IntersectionExampleScenario.node[62].veinsmobility  posx  ETV
vector 47404  IntersectionExampleScenario.node[62].veinsmobility  posy  ETV
vector 47399  IntersectionExampleScenario.node[61].veinsmobility  acceleration  ETV
vector 47400  IntersectionExampleScenario.node[61].veinsmobility  co2emission  ETV
vector 47405  IntersectionExampleScenario.node[62].veinsmobility  speed  ETV
vector 47406  IntersectionExampleScenario.node[62].veinsmobility  acceleration  ETV
vector 47407  IntersectionExampleScenario.node[62].veinsmobility  co2emission  ETV
vector 47410  IntersectionExampleScenario.node[63].veinsmobility  posx  ETV
vector 47411  IntersectionExampleScenario.node[63].veinsmobility  posy  ETV
vector 47412  IntersectionExampleScenario.node[63].veinsmobility  speed  ETV
vector 47413  IntersectionExampleScenario.node[63].veinsmobility  acceleration  ETV
vector 47414  IntersectionExampleScenario.node[63].veinsmobility  co2emission  ETV
47302	1339297 5219 10589 13548 135 173 153 0.973 11.648172402475 474.925234236 2481.352005492
47301	1344516 4804 10589 13548 135 173 153 -3.4319801330566 2.5 39.020376205444 194.78213760094
47300	1349320 5146 10572 13548 134.75 173 154 5.6500000953674 15.64999961853 2217.0800542831 32596.395226667
47299	1354466 5424 10555 13548 134.5 173 155 483.14999389648 483.14999389648 74888.249053955 36182257.073337
47298	1359890 5389 10555 13548 134.5 173 155 184.17810058594 733.17059326172 69494.619659424 35265485.924331
47295	1365279 5424 10510 13610 133.75 173.5 160 0.973 11.810082123732 518.35128855973 2900.720498094
47294	1370703 5154 10510 13610 133.75 173.5 160 -3.3637847900391 2.5 39.529638290405 286.40538679791
47293	1375857 5303 10495 13610 133.5 173.5 161 5.6500000953674 15.875 2220.8452215195 32106.662160288
47292	1381160 5666 10480 13610 133.25 173.5 162 486.85000610352 734.40606689453 86992.865142822 47642335.924921
47291	1386826 5660 10480 13610 133.25 173.5 162 486.85000610352 793.78281402588 93220.688079834 55493983.966669
vector 47417  IntersectionExampleScenario.node[64].veinsmobility  posx  ETV
vector 47418  IntersectionExampleScenario.node[64].veinsmobility  posy  ETV
vector 47424  IntersectionExampleScenario.node[65].veinsmobility  posx  ETV
vector 47425  IntersectionExampleScenario.node[65].veinsmobility  posy  ETV
vector 47419  IntersectionExampleScenario.node[64].veinsmobility  speed  ETV
vector 47420  IntersectionExampleScenario.node[64].veinsmobility  acceleration  ETV
vector 47421  IntersectionExampleScenario.node[64].veinsmobility  co2emission  ETV
vector 47426  IntersectionExampleScenario.node[65].veinsmobility  speed  ETV
vector 47427  IntersectionExampleScenario.node[65].veinsmobility  acceleration  ETV
vector 47428  IntersectionExampleScenario.node[65].veinsmobility  co2emission  ETV
vector 47431  IntersectionExampleScenario.node[66].veinsmobility  posx  ETV
vector 47432  IntersectionExampleScenario.node[66].veinsmobility  posy  ETV
vector 47433  IntersectionExampleScenario.node[66].veinsmobility  speed  ETV
vector 47434  IntersectionExampleScenario.node[66].veinsmobility  acceleration  ETV
vector 47435  IntersectionExampleScenario.node[66].veinsmobility  co2emission  ETV
vector 47438  IntersectionExampleScenario.node[67].veinsmobility  posx  ETV
vector 47439  IntersectionExampleScenario.node[67].veinsmobility  posy  ETV
vector 47440  IntersectionExampleScenario.node[67].veinsmobility  speed  ETV
vector 47445  IntersectionExampleScenario.node[68].veinsmobility  posx  ETV
vector 47446  IntersectionExampleScenario.node[68].veinsmobility  posy  ETV
vector 47441  IntersectionExampleScenario.node[67].veinsmobility  acceleration  ETV
vector 47442  IntersectionExampleScenario.node[67].veinsmobility  co2emission  ETV
vector 47447  IntersectionExampleScenario.node[68].veinsmobility  speed  ETV
vector 47448  IntersectionExampleScenario.node[68].veinsmobility  acceleration  ETV
vector 47449  IntersectionExampleScenario.node[68].veinsmobility  co2emission  ETV
vector 47452  IntersectionExampleScenario.node[69].veinsmobility  posx  ETV
vector 47453  IntersectionExampleScenario.node[69].veinsmobility  posy  ETV
vector 47459  IntersectionExampleScenario.node[70].veinsmobility  posx  ETV
vector 47460  IntersectionExampleScenario.node[70].veinsmobility  posy  ETV
vector 47454  IntersectionExampleScenario.node[69].veinsmobility  speed  ETV
vector 47461  IntersectionExampleScenario.node[70].veinsmobility  speed  ETV
vector 47455  IntersectionExampleScenario.node[69].veinsmobility  acceleration  ETV
vector 47456  IntersectionExampleScenario.node[69].veinsmobility  co2emission  ETV
vector 47462  IntersectionExampleScenario.node[70].veinsmobility  acceleration  ETV
vector 47463  IntersectionExampleScenario.node[70].veinsmobility  co2emission  ETV
vector 47466  IntersectionExampleScenario.node[71].veinsmobility  posx  ETV
vector 47467  IntersectionExampleScenario.node[71].veinsmobility  posy  ETV
vector 47468  IntersectionExampleScenario.node[71].veinsmobility  speed  ETV
vector 47469  IntersectionExampleScenario.node[71].veinsmobility  acceleration  ETV
vector 47470  IntersectionExampleScenario.node[71].veinsmobility  co2emission  ETV
vector 47473  IntersectionExampleScenario.node[72].veinsmobility  posx  ETV
vector 47474  IntersectionExampleScenario.node[72].veinsmobility  posy  ETV
vector 47480  IntersectionExampleScenario.node[73].veinsmobility  posx  ETV
vector 47481  IntersectionExampleScenario.node[73].veinsmobility  posy  ETV
vector 47475  IntersectionExampleScenario.node[72].veinsmobility  speed  ETV
vector 47476  IntersectionExampleScenario.node[72].veinsmobility  acceleration  ETV
vector 47477  IntersectionExampleScenario.node[72].veinsmobility  co2emission  ETV
vector 47482  IntersectionExampleScenario.node[73].veinsmobility  speed  ETV
vector 47483  IntersectionExampleScenario.node[73].veinsmobility  acceleration  ETV
vector 47484  IntersectionExampleScenario.node[73].veinsmobility  co2emission  ETV
vector 47487  IntersectionExampleScenario.node[74].veinsmobility  posx  ETV
vector 47488  IntersectionExampleScenario.node[74].veinsmobility  posy  ETV
vector 47489  IntersectionExampleScenario.node[74].veinsmobility  speed  ETV
vector 47490  IntersectionExampleScenario.node[74].veinsmobility  acceleration  ETV
vector 47491  IntersectionExampleScenario.node[74].veinsmobility  co2emission  ETV
47323	1396897 5513 11419 15743 148.75 189 162 0.973 11.36141391502 498.04660962162 2605.702682659
47322	1402410 5011 11419 15743 148.75 189 162 -3.4964065551758 2.5 37.15309715271 266.39968955849
47321	1407421 5388 11406 15743 148.5 189 163 5.6500000953674 15.25 2185.2570877075 30545.53155198
47320	1412809 5734 11393 15743 148.25 189 164 486.85000610352 785.82187652588 93854.859733582 55474393.655254
47319	1418543 5735 11393 15743 148.25 189 164 236.24060058594 483.14999389648 70855.865905762 31560645.17558
47330	1424278 5570 11501 16027 150.25 191 164 0.973 11.200708441096 489.18991891622 2474.8953455387
47329	1429848 5008 11501 16027 150.25 191 164 -3.4310665130615 2.5 35.795072555542 256.38855581272
47328	1434856 5480 11486 16027 150 191 165 5.6500000953674 15.02499961853 2178.6426405907 29893.988256713
47327	1440336 5790 11471 16027 149.75 191 166 184.17810058594 483.14999389648 66009.311004639 28025662.868116
47326	1446126 5805 11471 16027 149.75 191 166 486.85000610352 731.95790100098 89258.782424927 48942191.996374
vector 47494  IntersectionExampleScenario.node[75].veinsmobility  posx  ETV
vector 47495  IntersectionExampleScenario.node[75].veinsmobility  posy  ETV
47337	1452085 5304 11625 16093 152.25 191.5 158 0.973 11.36141391502 524.63920361176 2780.0029473127
47336	1457389 5139 11625 16093 152.25 191.5 158 -4.5 2.5 41.566686630249 272.14712892811
47335	1462528 5231 11608 16093 152 191.5 159 5.6500000953674 16.080085754395 2216.2027125359 32493.939425455
47334	1467759 5593 11591 16093 151.75 191.5 160 486.81066894531 795.46562957764 92269.42199707 55068151.000215
47333	1473352 5597 11591 16093 151.75 191.5 160 238.85498046875 483.14999389648 69602.332214355 31152783.623095
vector 47496  IntersectionExampleScenario.node[75].veinsmobility  speed  ETV
vector 47497  IntersectionExampleScenario.node[75].veinsmobility  acceleration  ETV
vector 47498  IntersectionExampleScenario.node[75].veinsmobility  co2emission  ETV
vector 47501  IntersectionExampleScenario.node[76].veinsmobility  posx  ETV
vector 47502  IntersectionExampleScenario.node[76].veinsmobility  posy  ETV
vector 47503  IntersectionExampleScenario.node[76].veinsmobility  speed  ETV
47309	1479428 7086 10915 16627 139.75 195.5 224 0.973 11.36141391502 582.15998256408 2798.9231047943
47308	1486514 6438 10915 16627 139.75 195.5 224 -8.4870233535767 4 37.15309715271 476.36027920365
47307	1492952 6789 10897 16627 139.5 195.5 225 0 15.25 2176.74477458 30094.703439055
47306	1499741 7846 10878 16627 139.25 195.5 226 236.84155273438 483.14999389648 100854.56030273 46065429.732892
47305	1507587 7892 10878 16627 139.25 195.5 226 184.17810058594 483.36395263672 94428.792602539 41459808.995951
vector 47504  IntersectionExampleScenario.node[76].veinsmobility  acceleration  ETV
vector 47505  IntersectionExampleScenario.node[76].veinsmobility  co2emission  ETV
47351	1515648 5491 11856 16858 155.75 197.25 167 0.973 12.099024792222 556.81152493313 3314.6965164127
47350	1521139 5279 11856 16858 155.75 197.25 167 -2.6633644104004 2.5 41.057416915894 323.36838324632
47349	1526418 5585 11837 16858 155.5 197.25 168 5.6500000953674 16.27499961853 2208.5247631073 31003.846203505
47348	1532003 5902 11818 16858 155.25 197.25 169 483.14999389648 732.77209472656 89699.711959839 48562884.826054
47347	1537905 5890 11818 16858 155.25 197.25 169 184.17810058594 486.87518310547 67668.105224609 28849477.602329
47316	1543795 6985 11120 16858 143 197.25 218 0.973 11.648172402475 589.1393689374 2886.7252289038
47315	1550780 6650 11120 16858 143 197.25 218 -7.03919506073 4 38.341367721558 479.01309014665
47314	1557430 7017 11105 16858 142.75 197.25 219 0 15.64999961853 2197.57470553 30945.678934578
47313	1564447 7696 11090 16858 142.5 197.25 220 237.59631347656 486.85000610352 98731.01965332 45377367.030918
47312	1572143 7695 11090 16858 142.5 197.25 220 483.14999389648 785.82187652588 121365.61647797 68963465.38307
vector 47508  IntersectionExampleScenario.node[77].veinsmobility  posx  ETV
vector 47509  IntersectionExampleScenario.node[77].veinsmobility  posy  ETV
vector 47515  IntersectionExampleScenario.node[78].veinsmobility  posx  ETV
vector 47516  IntersectionExampleScenario.node[78].veinsmobility  posy  ETV
vector 47510  IntersectionExampleScenario.node[77].veinsmobility  speed  ETV
vector 47511  IntersectionExampleScenario.node[77].veinsmobility  acceleration  ETV
vector 47512  IntersectionExampleScenario.node[77].veinsmobility  co2emission  ETV
vector 47517  IntersectionExampleScenario.node[78].veinsmobility  speed  ETV
vector 47518  IntersectionExampleScenario.node[78].veinsmobility  acceleration  ETV
vector 47519  IntersectionExampleScenario.node[78].veinsmobility  co2emission  ETV
47358	1580640 5923 11936 17322 156.75 200.75 177 0.973 11.648172402475 600.93255063179 3405.9323845276
47357	1586563 5597 11936 17322 156.75 200.75 177 -4.5 2.5 39.699392318726 462.24473671964
47356	1592160 5925 11915 17322 156.5 200.75 178 5.2871975898743 15.64999961853 2274.4769368172 31264.168022912
47355	1598085 6259 11894 17322 156.25 200.75 179 236.51489257812 483.14999389648 78441.016723633 35330041.332116
47354	1604344 6232 11894 17322 156.25 200.75 179 162.00311279297 483.14999389648 69932.574035645 29404187.268628
47365	1610576 5586 12169 17388 160 201.25 166 0.973 11.200708441096 519.99525444379 2860.219868969
47364	1616162 5248 12169 17388 160 201.25 166 -3.4271354675293 2.5 35.795072555542 299.52749921658
47363	1621410 5548 12150 17388 159.75 201.25 167 5.6500000953674 15.02499961853 2192.551692009 29895.398314379
47362	1626958 5872 12131 17388 159.5 201.25 168 486.85000610352 735.41242980957 90466.794250488 49702881.148569
47361	1632830 5870 12131 17388 159.5 201.25 168 486.85000610352 785.82187652588 96083.814552307 56736434.402036
47379	1638700 5334 12444 17595 163.25 203 160 0.973 11.386387234908 508.1816244501 2922.398861077
47378	1644034 5031 12444 17595 163.25 203 160 -4.5 2.5 36.813589096069 251.12219213491
47377	1649065 5416 12421 17595 163 203 161 5.6500000953674 15.284911155701 2213.0100030899 30968.736092323
47376	1654481 5669 12398 17595 162.75 203 162 483.14999389648 483.14999389648 78270.29901123 37816294.489552
47375	1660150 5635 12398 17595 162.75 203 162 184.17810058594 732.61502075195 72592.253356934 36740529.935061
vector 47522  IntersectionExampleScenario.node[79].veinsmobility  posx  ETV
vector 47523  IntersectionExampleScenario.node[79].veinsmobility  posy  ETV
vector 47524  IntersectionExampleScenario.node[79].veinsmobility  speed  ETV
vector 47525  IntersectionExampleScenario.node[79].veinsmobility  acceleration  ETV
vector 47526  IntersectionExampleScenario.node[79].veinsmobility  co2emission  ETV
47386	1666186 5513 12678 17967 165.75 206.25 163 0.973 11.607574470627 525.5652967486 2843.6071409019
47385	1671699 5325 12678 17967 165.75 206.25 163 -4.5 2.5 37.662351608276 279.57061271399
47384	1677024 5468 12653 17967 165.5 206.25 164 5.6500000953674 15.593485832214 2267.6359920502 32204.38788068
47383	1682492 5771 12628 17967 165.25 206.25 165 483.14999389648 732.62979125977 88183.155197144 48101707.866227
47382	1688263 5749 12628 17967 165.25 206.25 165 168.58435058594 487.06701660156 64645.079803467 27355291.417998
47414	1694012 4886 13225 17967 170.5 206.25 144 0.94236564628846 12.099024792222 495.35100940175 2947.6394465292
47413	1698898 4549 13225 17967 170.5 206.25 144 -3.618465423584 2.5 41.227170944214 265.98764505258
47412	1703447 4771 13192 17967 170.25 206.25 145 5.6500000953674 16.27499961853 2080.9878368378 30973.087941421
47411	1708218 5105 13159 17967 170 206.25 146 236.52398681641 486.85000610352 63006.8465271 28088644.048023
47410	1713323 5090 13159 17967 170 206.25 146 483.14590454102 753.92188262939 81724.141899109 47054985.538938
47400	1718413 5257 12973 18083 168.5 207.25 156 0.973 11.779201190774 545.43348768263 3092.4490325535
47399	1723670 5152 12973 18083 168.5 207.25 156 -4.5 2.5 42.924703598022 332.36003096395
47398	1728822 5247 12944 18083 168.25 207.25 157 5.6500000953674 16.442726135254 2198.5428371429 32541.353971119
47397	1734069 5516 12915 18083 168 207.25 158 239.24700927734 486.85000610352 69204.764678955 31204023.999121
47396	1739585 5521 12915 18083 168 207.25 158 483.14999389648 785.82187652588 91535.875205994 54937758.896365
vector 47529  IntersectionExampleScenario.node[80].veinsmobility  posx  ETV
vector 47530  IntersectionExampleScenario.node[80].veinsmobility  posy  ETV
vector 47531  IntersectionExampleScenario.node[80].veinsmobility  speed  ETV
47407	1745338 5834 13035 18634 169 212.25 174 0.973 11.468132527359 523.93605346006 2713.9692569927
47406	1751172 5869 13035 18634 169 212.25 174 -3.380069732666 2.5 36.813589096069 270.64022712672
47405	1757041 5830 13004 18634 168.75 212.25 175 5.6500000953674 15.399085044861 2273.5833902359 30953.825686448
47404	1762871 6147 12973 18634 168.5 212.25 176 486.85000610352 732.08793640137 93992.967590332 51160469.860792
47403	1769018 6146 12973 18634 168.5 212.25 176 486.85000610352 809.56562805176 103453.55194855 63142116.92767
vector 47536  IntersectionExampleScenario.node[81].veinsmobility  posx  ETV
vector 47537  IntersectionExampleScenario.node[81].veinsmobility  posy  ETV
vector 47532  IntersectionExampleScenario.node[80].veinsmobility  acceleration  ETV
vector 47533  IntersectionExampleScenario.node[80].veinsmobility  co2emission  ETV
vector 47538  IntersectionExampleScenario.node[81].veinsmobility  speed  ETV
vector 47539  IntersectionExampleScenario.node[81].veinsmobility  acceleration  ETV
vector 47540  IntersectionExampleScenario.node[81].veinsmobility  co2emission  ETV
47372	1775734 6925 12230 18995 160.75 215.25 219 0.973 11.648172402475 587.89176329619 2948.740442959
47371	1782659 6443 12230 18995 160.75 215.25 219 -9.090446472168 4 38.341367721558 509.2173517795
47370	1789102 6633 12209 18995 160.5 215.25 220 0 15.64999961853 2176.3345777988 30665.798583624
47369	1795735 7707 12188 18995 160.25 215.25 221 184.17810058594 483.36395263672 92250.658477783 40485981.683983
47368	1803442 7667 12188 18995 160.25 215.25 221 486.85000610352 733.04777526855 115775.59916687 61687025.690782
47344	1811109 7729 11750 19024 154.25 215.5 246 0.973 11.450879080643 620.00358046235 2921.799231707
47343	1818838 6933 11750 19024 154.25 215.5 246 -40.093402862549 4 36.98334312439 1943.7562420121
47342	1825771 7303 11733 19024 154 215.5 247 0 15.375 2301.520904541 32665.755841503
47341	1833074 8671 11716 19024 153.75 215.5 248 237.32635498047 808.74375915527 129205.08431244 72106942.379104
47340	1841745 8680 11716 19024 153.75 215.5 248 483.14999389648 483.14999389648 119821.19848633 57891611.317339
vector 47543  IntersectionExampleScenario.node[82].veinsmobility  posx  ETV
vector 47544  IntersectionExampleScenario.node[82].veinsmobility  posy  ETV
vector 47545  IntersectionExampleScenario.node[82].veinsmobility  speed  ETV
vector 47546  IntersectionExampleScenario.node[82].veinsmobility  acceleration  ETV
vector 47547  IntersectionExampleScenario.node[82].veinsmobility  co2emission  ETV
47393	1850826 6457 12807 19268 167 217.5 203 0.973 11.200708441096 554.18411315627 2745.0506026445
47392	1857283 6796 12807 19268 167 217.5 203 -2.1043853759766 2.5 37.32285118103 299.97954911607
47391	1864079 7020 12780 19268 166.75 217.5 204 0.69633966684341 15.475954055786 2212.2926861644 29178.516411348
47390	1871099 7152 12753 19268 166.5 217.5 205 237.47283935547 785.82187652588 106742.19281769 59770659.852927
47389	1878251 7175 12753 19268 166.5 217.5 205 483.14999389648 483.14999389648 99045.748748779 47853952.903445
vector 47550  IntersectionExampleScenario.node[83].veinsmobility  posx  ETV
vector 47551  IntersectionExampleScenario.node[83].veinsmobility  posy  ETV
47435	1885580 5499 14062 19297 177 217.75 164 0.973 11.200708441096 530.08220843339 2948.6747557382
47434	1891079 5029 14062 19297 177 217.75 164 -3.4294853210449 2.5 37.492597579956 285.84449260134
47433	1896108 5552 14029 19297 176.75 217.75 165 5.6500000953674 15.094181060791 2216.8702278137 30711.581645452
47432	1901660 5780 13996 19297 176.5 217.75 166 184.17810058594 733.23512268066 74277.304504395 37428027.947156
47431	1907440 5811 13996 19297 176.5 217.75 166 486.85000610352 486.85000610352 80817.101013184 39345806.121537
vector 47552  IntersectionExampleScenario.node[83].veinsmobility  speed  ETV
vector 47553  IntersectionExampleScenario.node[83].veinsmobility  acceleration  ETV
vector 47554  IntersectionExampleScenario.node[83].veinsmobility  co2emission  ETV
47456	1913498 5419 14573 19656 180.75 221 162 0.973 11.36141391502 540.87877596865 3050.9802447715
47455	1918917 5275 14573 19656 180.75 221 162 -4.3813552856445 2.5 39.699392318726 330.07743077382
47454	1924192 5401 14534 19656 180.5 221 163 5.6500000953674 15.615881919861 2216.8501596451 31531.32581763
47453	1929593 5715 14495 19656 180.25 221 164 176.21716308594 483.14999389648 64670.547973633 27351076.924984
47452	1935308 5728 14495 19656 180.25 221 164 486.85000610352 733.33436584473 87875.463638306 48007304.155081
vector 47557  IntersectionExampleScenario.node[84].veinsmobility  posx  ETV
vector 47558  IntersectionExampleScenario.node[84].veinsmobility  posy  ETV
vector 47559  IntersectionExampleScenario.node[84].veinsmobility  speed  ETV
vector 47560  IntersectionExampleScenario.node[84].veinsmobility  acceleration  ETV
vector 47561  IntersectionExampleScenario.node[84].veinsmobility  co2emission  ETV
vector 47564  IntersectionExampleScenario.node[85].veinsmobility  posx  ETV
vector 47565  IntersectionExampleScenario.node[85].veinsmobility  posy  ETV
vector 47566  IntersectionExampleScenario.node[85].veinsmobility  speed  ETV
vector 47567  IntersectionExampleScenario.node[85].veinsmobility  acceleration  ETV
vector 47568  IntersectionExampleScenario.node[85].veinsmobility  co2emission  ETV
47470	1941838 5607 15007 20059 183.75 225.25 167 0.973 11.36141391502 500.53830825433 2649.0192059757
47469	1947445 5612 15007 20059 183.75 225.25 167 -3.7511386871338 2.5 36.643835067749 261.15916425541
47468	1953057 5562 14970 20059 183.5 225.25 168 5.6500000953674 15.25 2245.0759530067 31219.42302679
47467	1958619 5901 14933 20059 183.25 225.25 169 167.42266845703 483.14999389648 66076.138153076 27862837.070403
47466	1964520 5911 14933 20059 183.25 225.25 169 486.85000610352 731.99293518066 90604.801330566 49522809.545843
vector 47571  IntersectionExampleScenario.node[86].veinsmobility  posx  ETV
vector 47572  IntersectionExampleScenario.node[86].veinsmobility  posy  ETV
vector 47573  IntersectionExampleScenario.node[86].veinsmobility  speed  ETV
vector 47574  IntersectionExampleScenario.node[86].veinsmobility  acceleration  ETV
vector 47575  IntersectionExampleScenario.node[86].veinsmobility  co2emission  ETV
vector 47578  IntersectionExampleScenario.node[87].veinsmobility  posx  ETV
vector 47579  IntersectionExampleScenario.node[87].veinsmobility  posy  ETV
vector 47580  IntersectionExampleScenario.node[87].veinsmobility  speed  ETV
vector 47581  IntersectionExampleScenario.node[87].veinsmobility  acceleration  ETV
vector 47582  IntersectionExampleScenario.node[87].veinsmobility  co2emission  ETV
47498	1971233 5156 16163 20453 192 229.5 151 0.973 11.990504229548 479.97038738207 2615.9570576656
47497	1976389 4983 16163 20453 192 229.5 151 -3.2418899536133 2.5 39.869146347046 201.52515652447
47496	1981372 5062 16128 20453 191.75 229.5 152 5.6500000953674 16.125 2212.1604318619 32919.651218284
47495	1986434 5308 16093 20453 191.5 229.5 153 184.17810058594 731.92765808105 68436.005081177 34653791.968265
47494	1991742 5355 16093 20453 191.5 229.5 153 486.85000610352 486.85000610352 74488.050933838 36264508.051778
vector 47585  IntersectionExampleScenario.node[88].veinsmobility  posx  ETV
vector 47586  IntersectionExampleScenario.node[88].veinsmobility  posy  ETV
vector 47587  IntersectionExampleScenario.node[88].veinsmobility  speed  ETV
vector 47588  IntersectionExampleScenario.node[88].veinsmobility  acceleration  ETV
vector 47589  IntersectionExampleScenario.node[88].veinsmobility  co2emission  ETV
47449	1997498 6886 14460 20906 180 234.25 218 0.973 11.648172402475 603.73950283904 3156.5094099557
47448	2004384 6303 14460 20906 180 234.25 218 -7.7423119544983 4 38.171613693237 519.43072911433
47447	2010687 6632 14424 20906 179.75 234.25 219 0 15.64999961853 2174.3688625097 30474.444082796
47446	2017319 7625 14389 20906 179.5 234.25 220 237.46997070312 483.14999389648 98124.212249756 44795565.837994
47445	2024944 7671 14389 20906 179.5 234.25 220 184.17810058594 483.36395263672 91738.659088135 40229933.879677
47421	2032615 7548 13706 20931 174.25 234.5 242 0.973 11.36141391502 603.46268732636 2829.5898027286
47420	2040163 6629 13706 20931 174.25 234.5 242 -19.179718017578 4 37.492597579956 760.41654524501
47419	2046792 7175 13673 20931 174 234.5 243 0 15.25 2240.5934658051 31250.195280299
47418	2053967 8476 13641 20931 173.75 234.5 244 486.85000610352 734.21499633789 127155.71290588 67353655.923575
47417	2062443 8530 13641 20931 173.75 234.5 244 486.63604736328 800.51084899902 134974.8205719 76982486.345542
47463	2070973 6931 14573 20981 180.75 235 218 0.973 11.990504229548 607.49085780626 3166.8055119371
47462	2077904 6439 14573 20981 180.75 235 218 -4.5 2.5000038146973 39.529638290405 500.98359893942
47461	2084343 6742 14534 20981 180.5 235 219 0 16.125 2308.2996969223 32952.528224638
47460	2091085 7700 14495 20981 180.25 235 220 483.14999389648 483.14999389648 106292.99865723 51355461.652478
47459	2098785 7668 14495 20981 180.25 235 220 161.1796875 733.05033874512 97572.853225708 47941760.546516
vector 47592  IntersectionExampleScenario.node[89].veinsmobility  posx  ETV
vector 47593  IntersectionExampleScenario.node[89].veinsmobility  posy  ETV
vector 47594  IntersectionExampleScenario.node[89].veinsmobility  speed  ETV
vector 47595  IntersectionExampleScenario.node[89].veinsmobility  acceleration  ETV
vector 47596  IntersectionExampleScenario.node[89].veinsmobility  co2emission  ETV
47428	2106854 7886 13739 21155 174.5 236.75 250 0.973 11.36141391502 652.58415160897 3023.6430842726
47427	2114740 7250 13739 21155 174.5 236.75 250 -4.5 2.5 39.699392318726 494.63461472932
47426	2121990 7609 13706 21155 174.25 236.75 251 0 15.598464012146 2316.4101991728 32435.416936588
47425	2129599 8812 13673 21155 174 236.75 252 486.85000610352 734.6519317627 130813.79187012 68979660.402358
47424	2138411 8798 13673 21155 174 236.75 252 486.75021362305 817.57730102539 141465.45108032 82139337.444546
47491	2147209 6197 15743 21230 189 237.5 195 0.973 11.648172402475 557.72087513854 2930.0640342149
47490	2153406 6365 15743 21230 189 237.5 195 -2.2168998718262 2.5 40.038900375366 310.9832071484
47489	2159771 6553 15706 21230 188.75 237.5 196 1.7911635637283 15.723450660706 2190.0678163767 29155.419672976
47488	2166324 6892 15669 21230 188.5 237.5 197 235.69366455078 483.14999389648 87125.140563965 39525886.693709
47487	2173216 6866 15669 21230 188.5 237.5 197 184.17810058594 483.14999389648 79928.176971436 34224969.970093
47442	2180082 7882 14389 21424 179.5 239.75 242 0.973 11.200708441096 591.44338174315 2750.9772628141
47441	2187964 8225 14389 21424 179.5 239.75 242 -3.8188214302063 2.5 35.964826583862 339.22940853217
47440	2196189 8181 14356 21424 179.25 239.75 243 0 15.207799911499 2259.7486316655 29385.171104176
47439	2204370 8523 14323 21424 179 239.75 244 486.85000610352 733.14363098145 127280.80549622 67491845.134996
47438	2212893 8522 14323 21424 179 239.75 244 486.85000610352 804.79309082031 136803.50091553 78994758.547612
vector 47599  IntersectionExampleScenario.node[90].veinsmobility  posx  ETV
vector 47600  IntersectionExampleScenario.node[90].veinsmobility  posy  ETV
vector 47601  IntersectionExampleScenario.node[90].veinsmobility  speed  ETV
vector 47602  IntersectionExampleScenario.node[90].veinsmobility  acceleration  ETV
vector 47603  IntersectionExampleScenario.node[90].veinsmobility  co2emission  ETV
47477	2221816 7246 15349 21658 186.25 242.75 227 0.973 11.200708441096 562.38204620604 2616.8695155144
47476	2229062 7470 15349 21658 186.25 242.75 227 -3.9461643695831 2.5000009536743 35.625318527222 329.31473188217
47475	2236532 7668 15312 21658 186 242.75 228 0 15.02499961853 2190.0254908875 27023.799814146
47474	2244200 8004 15277 21658 185.75 242.75 229 486.85000610352 734.69250488281 120137.78059387 64126764.050049
47473	2252204 8003 15277 21658 185.75 242.75 229 486.67501831055 785.82187652588 128501.80574799 73991483.36392
vector 47606  IntersectionExampleScenario.node[91].veinsmobility  posx  ETV
vector 47607  IntersectionExampleScenario.node[91].veinsmobility  posy  ETV
47484	2260361 7694 15386 21803 186.5 244.75 234 0.973 10.361594330347 588.6894485591 2502.0346894298
47483	2268055 7958 15386 21803 186.5 244.75 234 -4.5 2.5 36.474081039429 346.55484448198
47482	2276013 7983 15349 21803 186.25 244.75 235 1.679759979248 14.828481674194 2287.4933598042 28195.922211057
47481	2283996 8250 15312 21803 186 244.75 236 486.85000610352 734.4845123291 123417.27952576 65637512.489767
47480	2292246 8244 15312 21803 186 244.75 236 486.85000610352 810.23281097412 135002.06171417 79527266.630268
vector 47608  IntersectionExampleScenario.node[91].veinsmobility  speed  ETV
47519	2300568 5882 17157 21822 199.5 245 183 0.973 11.648172402475 535.14075952959 2864.7642529136
47518	2306450 5903 17157 21822 199.5 245 183 -2.0939903259277 2.5 39.020376205444 251.76348976601
47517	2312353 6204 17123 21822 199.25 245 184 5.325553894043 15.64999961853 2222.8180942535 29240.133513615
47516	2318557 6473 17088 21822 199 245 185 486.85000610352 486.85000610352 90067.25112915 43849241.761954
47515	2325030 6460 17088 21822 199 245 185 235.32135009766 785.82187652588 97384.526908875 55461218.092159
vector 47609  IntersectionExampleScenario.node[91].veinsmobility  acceleration  ETV
vector 47610  IntersectionExampleScenario.node[91].veinsmobility  co2emission  ETV
vector 47613  IntersectionExampleScenario.node[92].veinsmobility  posx  ETV
vector 47614  IntersectionExampleScenario.node[92].veinsmobility  posy  ETV
vector 47615  IntersectionExampleScenario.node[92].veinsmobility  speed  ETV
vector 47616  IntersectionExampleScenario.node[92].veinsmobility  acceleration  ETV
vector 47617  IntersectionExampleScenario.node[92].veinsmobility  co2emission  ETV
vector 47620  IntersectionExampleScenario.node[93].veinsmobility  posx  ETV
vector 47621  IntersectionExampleScenario.node[93].veinsmobility  posy  ETV
vector 47622  IntersectionExampleScenario.node[93].veinsmobility  speed  ETV
vector 47623  IntersectionExampleScenario.node[93].veinsmobility  acceleration  ETV
vector 47624  IntersectionExampleScenario.node[93].veinsmobility  co2emission  ETV
vector 47627  IntersectionExampleScenario.node[94].veinsmobility  posx  ETV
vector 47628  IntersectionExampleScenario.node[94].veinsmobility  posy  ETV
vector 47629  IntersectionExampleScenario.node[94].veinsmobility  speed  ETV
vector 47630  IntersectionExampleScenario.node[94].veinsmobility  acceleration  ETV
vector 47631  IntersectionExampleScenario.node[94].veinsmobility  co2emission  ETV
47540	2332862 5272 18725 22320 213 251.25 154 0.973 11.648172402475 472.77029157523 2476.2918181128
47539	2338134 5098 18725 22320 213 251.25 154 -3.616397857666 2.5 38.511121749878 196.0936979891
[...]
vector 51387  IntersectionExampleScenario.node[631].veinsmobility  posy  ETV
vector 51381  IntersectionExampleScenario.node[630].veinsmobility  speed  ETV
vector 51382  IntersectionExampleScenario.node[630].veinsmobility  acceleration  ETV
vector 51383  IntersectionExampleScenario.node[630].veinsmobility  co2emission  ETV
vector 51388  IntersectionExampleScenario.node[631].veinsmobility  speed  ETV
vector 51389  IntersectionExampleScenario.node[631].veinsmobility  acceleration  ETV
vector 51390  IntersectionExampleScenario.node[631].veinsmobility  co2emission  ETV
vector 51393  IntersectionExampleScenario.node[632].veinsmobility  posx  ETV
vector 51394  IntersectionExampleScenario.node[632].veinsmobility  posy  ETV
vector 51395  IntersectionExampleScenario.node[632].veinsmobility  speed  ETV
vector 51396  IntersectionExampleScenario.node[632].veinsmobility  acceleration  ETV
vector 51397  IntersectionExampleScenario.node[632].veinsmobility  co2emission  ETV
vector 51400  IntersectionExampleScenario.node[633].veinsmobility  posx  ETV
vector 51401  IntersectionExampleScenario.node[633].veinsmobility  posy  ETV
51257	19752877 6918 155208 159402 1725.75 1775.75 201 0.973 11.450879080643 559.55531549776 2808.2966883368
51256	19759795 6512 155208 159402 1725.75 1775.75 201 -7.0918092727661 4 36.474081039429 464.68080838225
51255	19766307 6785 155177 159402 1725.5 1775.75 202 0 15.375 2216.6214025021 30657.768950612
51254	19773092 7491 155146 159402 1725.25 1775.75 203 184.17810058594 734.68363952637 92229.813766479 46184476.988043
51253	19780583 7513 155146 159402 1725.25 1775.75 203 486.85000610352 486.85000610352 98830.551239014 48115654.473927
vector 51402  IntersectionExampleScenario.node[633].veinsmobility  speed  ETV
vector 51403  IntersectionExampleScenario.node[633].veinsmobility  acceleration  ETV
vector 51404  IntersectionExampleScenario.node[633].veinsmobility  co2emission  ETV
51264	19788346 6947 155410 159507 1727.5 1776.5 197 0.973 11.810082123732 576.92547591669 2958.0335276023
51263	19795293 6804 155410 159507 1727.5 1776.5 197 -4.5 2.5 39.020376205444 444.2556405718
51262	19802097 7037 155382 159507 1727.25 1776.5 198 0 15.875 2257.0962691624 31609.622256854
51261	19809134 7329 155353 159507 1727 1776.5 199 164.94219970703 483.14999389648 79995.872528076 34339303.856494
51260	19816463 7359 155353 159507 1727 1776.5 199 486.85000610352 731.89239501953 104896.30128479 56275179.313494
51299	19823822 5253 156879 160264 1746.5 1782.75 146 0.96997852711604 12.553400930962 500.07528890332 3042.5637318576
51298	19829075 4978 156879 160264 1746.5 1782.75 146 -3.3901557922363 2.5 42.585195541382 233.38468607585
51297	19834053 5182 156862 160264 1746.25 1782.75 147 5.6500000953674 16.89999961853 2210.9946861267 34146.540630747
51296	19839235 5447 156845 160264 1746 1782.75 148 184.17810058594 731.46829223633 66050.750518799 33386510.150891
51295	19844682 5476 156845 160264 1746 1782.75 148 486.85000610352 486.85000610352 72053.80090332 35079393.409563
vector 51407  IntersectionExampleScenario.node[634].veinsmobility  posx  ETV
vector 51408  IntersectionExampleScenario.node[634].veinsmobility  posy  ETV
vector 51409  IntersectionExampleScenario.node[634].veinsmobility  speed  ETV
vector 51410  IntersectionExampleScenario.node[634].veinsmobility  acceleration  ETV
vector 51411  IntersectionExampleScenario.node[634].veinsmobility  co2emission  ETV
51292	19850564 6127 156800 160807 1745.25 1787.5 170 0.973 10.756497587458 477.23820805269 2236.5225957213
51291	19856691 5450 156800 160807 1745.25 1787.5 170 -3.4978923797607 2.5 33.248777389526 242.01929719827
51290	19862141 6030 156785 160807 1745 1787.5 171 5.6500000953674 14.39999961853 2186.0014119148 28889.161899057
51289	19868171 6356 156770 160807 1744.75 1787.5 172 486.8278503418 785.82187652588 98351.74118042 58062892.554038
51288	19874527 6358 156770 160807 1744.75 1787.5 172 235.84552001953 483.14999389648 74135.187683105 32962684.371747
vector 51414  IntersectionExampleScenario.node[635].veinsmobility  posx  ETV
vector 51415  IntersectionExampleScenario.node[635].veinsmobility  posy  ETV
vector 51416  IntersectionExampleScenario.node[635].veinsmobility  speed  ETV
vector 51421  IntersectionExampleScenario.node[636].veinsmobility  posx  ETV
vector 51422  IntersectionExampleScenario.node[636].veinsmobility  posy  ETV
vector 51417  IntersectionExampleScenario.node[635].veinsmobility  acceleration  ETV
vector 51418  IntersectionExampleScenario.node[635].veinsmobility  co2emission  ETV
vector 51423  IntersectionExampleScenario.node[636].veinsmobility  speed  ETV
vector 51424  IntersectionExampleScenario.node[636].veinsmobility  acceleration  ETV
vector 51425  IntersectionExampleScenario.node[636].veinsmobility  co2emission  ETV
vector 51428  IntersectionExampleScenario.node[637].veinsmobility  posx  ETV
vector 51429  IntersectionExampleScenario.node[637].veinsmobility  posy  ETV
vector 51430  IntersectionExampleScenario.node[637].veinsmobility  speed  ETV
51306	19881932 5652 157188 161157 1751.5 1790.25 156 0.973 11.54047740176 464.63231158543 2336.4085283449
51305	19887584 5085 157188 161157 1751.5 1790.25 156 -2.906135559082 2.5 37.32285118103 179.22973075835
51304	19892669 5574 157169 161157 1751.25 1790.25 157 5.6500000953674 15.5 2216.590294838 31875.992361842
51303	19898243 5772 157152 161157 1751 1790.25 158 184.17810058594 733.22798156738 70908.541702271 36014724.094117
51302	19904015 5845 157152 161157 1751 1790.25 158 486.85000610352 486.85000610352 76922.300964355 37449622.693993
vector 51431  IntersectionExampleScenario.node[637].veinsmobility  acceleration  ETV
vector 51432  IntersectionExampleScenario.node[637].veinsmobility  co2emission  ETV
vector 51435  IntersectionExampleScenario.node[638].veinsmobility  posx  ETV
vector 51436  IntersectionExampleScenario.node[638].veinsmobility  posy  ETV
vector 51437  IntersectionExampleScenario.node[638].veinsmobility  speed  ETV
vector 51438  IntersectionExampleScenario.node[638].veinsmobility  acceleration  ETV
vector 51439  IntersectionExampleScenario.node[638].veinsmobility  co2emission  ETV
51313	19910437 5971 157207 161547 1751.75 1793.25 167 0.973 11.810082123732 520.47237863705 2780.5289033953
51312	19916408 5546 157207 161547 1751.75 1793.25 167 -3.2642211914062 2.5 38.511121749878 266.75382182026
51311	19921954 5889 157188 161547 1751.5 1793.25 168 5.6500000953674 15.875 2276.2065420151 32295.58054088
51310	19927843 6238 157169 161547 1751.25 1793.25 169 159.76721191406 483.29089355469 65299.447479248 27407322.045684
51309	19934081 6235 157169 161547 1751.25 1793.25 169 486.85000610352 731.68206787109 90346.97253418 49226410.586933
vector 51442  IntersectionExampleScenario.node[639].veinsmobility  posx  ETV
vector 51443  IntersectionExampleScenario.node[639].veinsmobility  posy  ETV
vector 51444  IntersectionExampleScenario.node[639].veinsmobility  speed  ETV
vector 51445  IntersectionExampleScenario.node[639].veinsmobility  acceleration  ETV
vector 51446  IntersectionExampleScenario.node[639].veinsmobility  co2emission  ETV
51271	19940722 7661 156283 161675 1737.25 1794.25 229 0.973 11.648172402475 601.48916623926 2957.7240159635
51270	19948383 6918 156283 161675 1737.25 1794.25 229 -9.365062713623 4 38.511121749878 549.65762450545
51269	19955301 7291 156262 161675 1737 1794.25 230 0 15.64999961853 2178.82918787 30862.599525465
51268	19962592 8482 156241 161675 1736.75 1794.25 231 486.85000610352 733.63510131836 120660.45915222 64079034.753419
51267	19971074 8538 156241 161675 1736.75 1794.25 231 486.63604736328 785.82187652588 127076.9431839 71913833.089772
51278	19979612 7214 156661 161835 1742.75 1795.5 212 0.973 11.648172402475 593.24298993242 2885.5934939753
51277	19986826 6797 156661 161835 1742.75 1795.5 212 -6.9388580322266 4 39.869146347046 473.72944377414
51276	19993623 7257 156647 161835 1742.5 1795.5 213 0 15.64999961853 2182.5622266233 31257.306973728
51275	20000880 7907 156632 161835 1742.25 1795.5 214 483.14999389648 731.83428955078 111550.13516235 59182689.820768
51274	20008787 7891 156632 161835 1742.25 1795.5 214 184.17810058594 486.85000610352 89336.627929688 39275195.871528
vector 51449  IntersectionExampleScenario.node[640].veinsmobility  posx  ETV
vector 51450  IntersectionExampleScenario.node[640].veinsmobility  posy  ETV
vector 51451  IntersectionExampleScenario.node[640].veinsmobility  speed  ETV
vector 51452  IntersectionExampleScenario.node[640].veinsmobility  acceleration  ETV
vector 51453  IntersectionExampleScenario.node[640].veinsmobility  co2emission  ETV
51285	20017084 7314 156756 162183 1744.5 1798.25 216 0.973 11.810082123732 596.65245038993 3102.7037428095
51284	20024398 7633 156756 162183 1744.5 1798.25 216 -22.598665237427 4 39.699392318726 934.16047196825
51283	20032031 7655 156741 162183 1744.25 1798.25 217 0 15.875 2178.6371485367 29321.396242771
51282	20039686 8058 156726 162183 1744 1798.25 218 486.85000610352 732.60966491699 114112.19337463 60742795.157184
51281	20047744 8043 156726 162183 1744 1798.25 218 486.75073242188 785.82187652588 121412.00888824 69505382.926762
51320	20055787 5151 157894 162383 1761 1800 157 0.973 11.200708441096 421.28205476653 2108.0675244005
51319	20060938 4434 157894 162383 1761 1800 157 -6.998438835144 4 28.39999961853 439.0501207713
51318	20065372 4927 157877 162383 1760.75 1800 158 0 15.02499961853 1312.5908718109 17287.562007354
51317	20070299 5872 157860 162383 1760.5 1800 159 486.63604736328 785.82187652588 92022.127876282 54875652.424223
51316	20076171 5841 157860 162383 1760.5 1800 159 452.2109375 483.14999389648 76595.370513916 36902518.973186
51327	20082012 5011 157983 162383 1762.25 1800 152 0.973 11.200708441096 400.88044274096 1863.8442706895
51326	20087023 4743 157983 162383 1762.25 1800 152 -4.5 2.5 18.89999961853 430.97401789891
51325	20091766 4843 157964 162383 1762 1800 153 0 15.720937728882 1358.0884610415 18432.237201534
51324	20096609 5643 157945 162383 1761.75 1800 154 482.93896484375 807.09531402588 91413.6459198 56043764.920014
51323	20102252 5689 157945 162383 1761.75 1800 154 483.14999389648 501.82632446289 74500.807647705 36042475.894119
51334	20107941 4794 158101 162383 1763.75 1800 146 0.973 11.648172402475 471.69048518164 3013.7279981184
51333	20112735 4516 158101 162383 1763.75 1800 146 -7.060950756073 4 38.89999961853 512.07708562817
51332	20117251 4677 158080 162383 1763.5 1800 147 0 15.64999961853 1343.9285935163 18162.74545374
51331	20121928 5433 158059 162383 1763.25 1800 148 184.17810058594 516.24063110352 57341.923522949 23798640.145119
51330	20127361 5476 158059 162383 1763.25 1800 148 486.85000610352 486.85000610352 72053.80090332 35079393.409563
51341	20132837 4465 158357 162383 1766.75 1800 134 0.973 11.648172402475 373.57622863424 1971.080958656
51340	20137302 4752 158357 162383 1766.75 1800 134 -3.8431255817413 2.5 21.39999961853 314.53285763349
51339	20142054 4944 158334 162383 1766.5 1800 135 0 15.779323577881 1249.6260570474 16046.897104763
51338	20146998 5019 158311 162383 1766.25 1800 136 489.81875610352 798.93699645996 82432.285476685 51349910.680303
51337	20152017 5032 158311 162383 1766.25 1800 136 483.14999389648 483.14999389648 65708.399169922 31747012.657895
51348	20157049 4672 158430 162383 1767.5 1800 131 0.973 11.36141391502 438.91159256057 2357.5938091944
51347	20161721 4471 158430 162383 1767.5 1800 131 -4.5 2.5 37.833902359009 276.03962491729
51346	20166192 4592 158405 162383 1767.25 1800 132 5.6500000953674 15.25 1677.8448672295 22710.074439805
51345	20170784 4918 158380 162383 1767 1800 133 486.85000610352 606.87457275391 66813.723114014 33694111.211188
51344	20175702 4902 158380 162383 1767 1800 133 486.85000610352 785.82187652588 79690.405815125 49294940.784356
51355	20180604 4642 158483 162383 1768 1800 129 0.973 11.115314527596 464.00148416134 2541.6537069495
51354	20185246 4535 158483 162383 1768 1800 129 -4.5 2.5 41.396486282349 302.99290836502
51353	20189781 4727 158457 162383 1767.75 1800 130 5.6500000953674 16.258279800415 1688.0975637436 23629.853254509
51352	20194508 4845 158430 162383 1767.5 1800 131 486.85000610352 585.36001586914 65192.830932617 32517202.658079
51351	20199353 4838 158430 162383 1767.5 1800 131 486.85000610352 809.56562805176 80474.148674011 51211377.639583
51362	20204191 4565 158537 162383 1768.5 1800 127 0.973 11.54047740176 399.70837283616 2192.7659691157
51361	20208756 4326 158537 162383 1768.5 1800 127 -3.0209617614746 2.5 36.983442306519 178.46661095464
51360	20213082 4496 158510 162383 1768.25 1800 128 5.6500000953674 15.5 1774.4561185837 25140.980534083
51359	20217578 4771 158483 162383 1768 1800 129 486.85000610352 486.85000610352 62803.650787354 30575957.769146
51358	20222349 4742 158483 162383 1768 1800 129 319.03656005859 757.99687957764 70544.924179077 40795441.741137
51369	20227091 4286 158725 162383 1770.25 1800 120 0.973 11.574530223235 443.68156996346 2674.2180990913
51368	20231377 4057 158725 162383 1770.25 1800 120 -4.5 2.5 41.254873275757 261.7488011586
51367	20235434 4241 158698 162383 1770 1800 121 5.6500000953674 16.011510848999 1689.0827388763 24373.890553177
51366	20239675 4513 158671 162383 1769.75 1800 122 486.85000610352 486.85000610352 59395.700744629 28916797.270045
51365	20244188 4481 158671 162383 1769.75 1800 122 399.05743408203 815.43738555908 74772.410087585 47790451.52367
51376	20248669 3965 158783 162383 1770.75 1800 118 0.973 10.756497587458 310.17793640878 1464.4546107036
51375	20252634 4156 158783 162383 1770.75 1800 118 -29.990755081177 4 -4.8504161834717 1169.0519042339
51374	20256790 4354 158754 162383 1770.5 1800 119 0 14.39999961853 1168.0856554508 13760.357581402
51373	20261144 4412 158725 162383 1770.25 1800 120 184.17810058594 475.14767456055 42479.830352783 16139332.193521
51372	20265556 4440 158725 162383 1770.25 1800 120 486.85000610352 488.02319335938 58424.825805664 28445504.451281
51383	20269996 3598 159079 162383 1773.25 1800 108 0.973 11.648172402475 294.69576680069 1589.4218574905
51382	20273594 3637 159079 162383 1773.25 1800 108 -17.545993804932 2.5 -22.60000038147 593.78549201077
51381	20277231 3789 159046 162383 1773 1800 109 0 15.64999961853 1258.4240264893 17745.767153826
51380	20281020 4069 159015 162383 1772.75 1800 110 486.85000610352 486.85000610352 53553.500671387 26072522.128729
51379	20285089 4059 159015 162383 1772.75 1800 110 498.39999389648 813.43966674805 70077.397247314 45923809.142807
51390	20289148 3683 159112 162383 1773.5 1800 107 0.973 9.7751390310557 310.87508229825 1451.5275117505
51389	20292831 3724 159112 162383 1773.5 1800 107 -4.5 2.5 2.7349529266357 307.96479965681
51388	20296555 3984 159079 162383 1773.25 1800 108 4.1093735694885 15.287602424622 1122.8471674919 13361.986125325
51387	20300539 4008 159046 162383 1773 1800 109 169.95465087891 449.33193969727 34804.873260498 12058710.740555
51386	20304547 4031 159046 162383 1773 1800 109 486.85000610352 486.85000610352 53066.650665283 25835499.200286
51397	20308578 3372 159369 162383 1775.5 1800 99 0.973 10.756497587458 293.96999413516 1448.3290554559
51396	20311950 3388 159369 162383 1775.5 1800 99 -4.5 2.5000019073486 -9.3283462524414 374.8094378283
51395	20315338 3685 159336 162383 1775.25 1800 100 3.3179135322571 15.566102981567 1019.4325218201 12325.805145145
51394	20319023 3724 159303 162383 1775 1800 101 208.96636962891 463.48947143555 35682.376922607 13289825.341996
51393	20322747 3735 159303 162383 1775 1800 101 486.85000610352 486.85000610352 49171.850616455 23939315.772742
51404	20326482 3207 159472 162383 1776.25 1800 96 0.973 12.099024792222 308.2077483071 1847.0442889504
51403	20329689 3284 159472 162383 1776.25 1800 96 -3.2474555969238 2.5 11.348783493042 239.46237702007
51402	20332973 3570 159437 162383 1776 1800 97 5.3182377815247 16.27499961853 1110.7180447578 14135.604788354
51401	20336543 3619 159402 162383 1775.75 1800 98 510.45257568359 785.82187652588 62300.834098816 40379449.967118
51400	20340162 3625 159402 162383 1775.75 1800 98 483.14999389648 483.14999389648 47348.699401855 22876523.827013
51411	20343787 2212 160430 162383 1784.25 1800 64 0.973 11.200708441096 219.36445778984 1383.2280900263
51410	20345999 2309 160430 162383 1784.25 1800 64 -0.54909896850586 2.5 34.183179855347 105.88862489796
51409	20348308 2388 160401 162383 1784 1800 65 5.6500000953674 15.068452835083 878.42508411407 12220.813708525
51408	20350696 2433 160372 162383 1783.75 1800 66 570.95071411133 785.82187652588 45353.938652039 31460131.227205
51407	20353129 2441 160372 162383 1783.75 1800 66 483.14999389648 483.14999389648 31887.899597168 15406638.495743
51418	20355570 1768 160898 162383 1788.25 1800 48 1.390673059791 11.200708441096 191.84510743118 1211.5487472675
51417	20357338 1717 160898 162383 1788.25 1800 48 -0.20965576171875 2.5 37.132593154907 94.736730071501
51416	20359055 1798 160867 162383 1788 1800 49 5.6500000953674 15.105489730835 658.05628108978 9197.5741950192
51415	20360853 1824 160836 162383 1787.75 1800 50 184.17810058594 343.7119140625 12749.770629883 3376500.242735
51414	20362677 1849 160836 162383 1787.75 1800 50 486.85000610352 486.85000610352 24342.500305176 11851146.42215
51425	20364526 1686 160964 162383 1788.75 1800 46 0.973 11.438180752188 209.71280402572 1329.5606363627
51424	20366212 1573 160964 162383 1788.75 1800 46 -1.0131950378418 2.5 41.633306503296 96.385551175455
51423	20367785 1732 160931 162383 1788.5 1800 47 5.6500000953674 16.094259262085 650.70348167419 9477.681757123
51422	20369517 1755 160898 162383 1788.25 1800 48 160.43438720703 317.74609375 10968.122375488 2623538.6296142
51421	20371272 1776 160898 162383 1788.25 1800 48 486.85000610352 486.85000610352 23368.800292969 11377100.565264
51432	20373048 1418 161190 162383 1790.5 1800 39 0.973 11.648172402475 178.00338679441 1275.296738432
51431	20374466 1335 161190 162383 1790.5 1800 39 -0.45709991455078 2.5 38.17405128479 100.47756494092
51430	20375801 1466 161157 162383 1790.25 1800 40 5.6500000953674 15.64999961853 531.85618591309 7438.3959287807
51429	20377267 1515 161124 162383 1790 1800 41 483.14999389648 483.14999389648 19809.149749756 9570790.5806891
51428	20378782 1498 161124 162383 1790 1800 41 184.17810058594 312.03961181641 9817.3698730469 2417843.9181045
51439	20380280 1085 161482 162383 1792.75 1800 30 0.973 11.200708441096 147.85283895996 1097.9638886707
51438	20381365 966 161482 162383 1792.75 1800 30 -0.5 2.5 35.483076095581 94.340637124118
51437	20382331 1134 161449 162383 1792.5 1800 31 5.6500000953674 15.02499961853 384.63214588165 5047.0031719312
51436	20383465 1181 161416 162383 1792.25 1800 32 165.52752685547 256.86029052734 6531.9139404297 1360253.016303
51435	20384646 1184 161416 162383 1792.25 1800 32 486.85000610352 486.85000610352 15579.200195312 7584733.7101758
51446	20385830 884 161675 162383 1794.25 1800 24 1.7373410990981 10.756497587458 130.84943059224 965.63396909367
51445	20386714 763 161675 162383 1794.25 1800 24 -0.098300933837891 2.5 34.628934860229 87.522007576747
51444	20387477 915 161642 162383 1794 1800 25 5.6500000953674 14.39999961853 293.67027664185 3670.2426652537
51443	20388392 961 161609 162383 1793.75 1800 26 483.14999389648 483.14999389648 12561.899841309 6069281.8316565
51442	20389353 947 161609 162383 1793.75 1800 26 176.21716308594 244.89471435547 5318.4873046875 1100286.8719813
51453	20390300 441 162056 162383 1797.25 1800 12 5.2162187258585 9.8772939209111 90.329754123875 705.60800469607
51452	20390741 312 162056 162383 1797.25 1800 12 2.4999980926514 2.5 29.999998092651 74.99999046326
51451	20391053 473 162023 162383 1797 1800 13 5.6500000953674 13.14999961853 122.19999694824 1219.7736818981
51450	20391526 517 161990 162383 1796.75 1800 14 486.85000610352 486.85000610352 6815.9000854492 3318320.9982019
51449	20392043 517 161990 162383 1796.75 1800 14 759.49688720703 785.82187652588 10852.737617493 8414003.5481247
46965	20392560 633 0 162382 0 1800 31 0 27 506 9092
46966	20393193 648 0 162382 0 1800 31 0 183 2819 343139
