version 2
run nodebug-35-20200606-21:57:52-21964
attr configname nodebug
attr datetime 20200606-21:57:52
attr experiment nodebug
attr inifile omnetpp.ini
attr iterationvars ""
attr iterationvars2 $repetition=35
attr measurement ""
attr network "\"org.car2x.veins.modules.application.ExtTraCIScenarioManagerLaunchd.IntersectionExampleScenario\""
attr processid 21964
attr repetition 35
attr replication #35
attr resultdir results
attr runnumber 35
attr seedset 35
param **.coreDebug false
param **.debug false
param *.**.nic.mac1609_4.bitrate 18Mbps
param *.**.nic.mac1609_4.txPower 20mW
param *.**.nic.mac1609_4.useServiceChannel false
param *.**.nic.phy80211p.analogueModels "xmldoc(\"config.xml\")"
param *.**.nic.phy80211p.decider "xmldoc(\"config.xml\")"
param *.**.nic.phy80211p.sensitivity -89dBm
param *.**.nic.phy80211p.thermalNoise -110dBm
param *.**.nic.phy80211p.usePropagationDelay true
param *.**.nic.phy80211p.useThermalNoise true
param *.annotations.draw false
param *.connectionManager.alpha 2.0
param *.connectionManager.carrierFrequency "5.890e9 Hz"
param *.connectionManager.pMax 20mW
param *.connectionManager.sat -89dBm
param *.connectionManager.sendDirect true
param *.manager.autoShutdown true
param *.manager.host "\"localhost\""
param *.manager.launchConfig "xmldoc(\"paramics.launchd.xml\")"
param *.manager.margin 25
param *.manager.moduleDisplayString "\"\""
param *.manager.moduleName "\"node\""
param *.manager.moduleType "\"org.car2x.veins.nodes.Car\""
param *.manager.port 9999
param *.manager.updateInterval 250ms
param *.node[*0].veinsmobility.accidentCount 0
param *.node[*0].veinsmobility.accidentDuration 30s
param *.node[*0].veinsmobility.accidentStart 75s
param *.node[*].appl.LiderSelectZoneRadio 55.0
param *.node[*].appl.ShareDataZoneRadio 110.0
param *.node[*].appl.TiempoSemaforo 30.0
param *.node[*].appl.beaconInterval 1s
param *.node[*].appl.beaconPriority 3
param *.node[*].appl.dataOnSch false
param *.node[*].appl.dataPriority 2
param *.node[*].appl.debug false
param *.node[*].appl.headerLength "256 bit"
param *.node[*].appl.maxOffset 0.005s
param *.node[*].appl.sendBeacons false
param *.node[*].appl.sendData true
param *.node[*].applType "\"Dummy\""
param *.node[*].mobilityType "\"TraCIMobility\""
param *.node[*].mobilityType.debug true
param *.node[*].veinsmobility.x 0
param *.node[*].veinsmobility.y 0
param *.node[*].veinsmobility.z 1.895
param *.node[*].veinsmobilityType "\"org.car2x.veins.modules.mobility.traci.TraCIMobility\""
param *.node[*].veinsmobilityType.debug true
param *.playgroundSizeX 8500m
param *.playgroundSizeY 8500m
param *.playgroundSizeZ 50m
param *.world.use2D false
param *.world.useTorus false

scalar IntersectionExampleScenario.node[1].appl 	VehicleRemoved 	0
scalar IntersectionExampleScenario.node[1].appl 	ArrivedAtDest 	1
scalar IntersectionExampleScenario.node[1].appl 	IntersectionEnterTime 	10.75
scalar IntersectionExampleScenario.node[1].appl 	IntersectionExitTime 	32.784598486294
scalar IntersectionExampleScenario.node[1].appl 	NumberOfCollisions 	0
scalar IntersectionExampleScenario.node[1].nic.phy80211p 	busyTime 	0
scalar IntersectionExampleScenario.node[1].nic.mac1609_4 	ReceivedUnicastPackets 	0
scalar IntersectionExampleScenario.node[1].nic.mac1609_4 	ReceivedBroadcasts 	0
scalar IntersectionExampleScenario.node[1].nic.mac1609_4 	SentPackets 	0
scalar IntersectionExampleScenario.node[1].nic.mac1609_4 	SNIRLostPackets 	0
scalar IntersectionExampleScenario.node[1].nic.mac1609_4 	RXTXLostPackets 	0
scalar IntersectionExampleScenario.node[1].nic.mac1609_4 	TotalLostPackets 	0
scalar IntersectionExampleScenario.node[1].nic.mac1609_4 	DroppedPacketsInMac 	0
scalar IntersectionExampleScenario.node[1].nic.mac1609_4 	TooLittleTime 	0
scalar IntersectionExampleScenario.node[1].nic.mac1609_4 	TimesIntoBackoff 	0
scalar IntersectionExampleScenario.node[1].nic.mac1609_4 	SlotsBackoff 	0
scalar IntersectionExampleScenario.node[1].nic.mac1609_4 	NumInternalContention 	0
scalar IntersectionExampleScenario.node[1].nic.mac1609_4 	totalBusyTime 	0
scalar IntersectionExampleScenario.node[1].veinsmobility 	startTime 	10.75
scalar IntersectionExampleScenario.node[1].veinsmobility 	totalTime 	37
scalar IntersectionExampleScenario.node[1].veinsmobility 	stopTime 	48
scalar IntersectionExampleScenario.node[1].veinsmobility 	minSpeed 	5.6500000953674
scalar IntersectionExampleScenario.node[1].veinsmobility 	maxSpeed 	16.75
scalar IntersectionExampleScenario.node[1].veinsmobility 	totalDistance 	552.55528259277
scalar IntersectionExampleScenario.node[1].veinsmobility 	totalCO2Emission 	124.62722998781
scalar IntersectionExampleScenario.node[2].appl 	VehicleRemoved 	0
scalar IntersectionExampleScenario.node[2].appl 	ArrivedAtDest 	1
scalar IntersectionExampleScenario.node[2].appl 	IntersectionEnterTime 	16.75
scalar IntersectionExampleScenario.node[2].appl 	IntersectionExitTime 	39.505725270137
scalar IntersectionExampleScenario.node[2].appl 	NumberOfCollisions 	0
scalar IntersectionExampleScenario.node[2].nic.phy80211p 	busyTime 	0
scalar IntersectionExampleScenario.node[2].nic.mac1609_4 	ReceivedUnicastPackets 	0
scalar IntersectionExampleScenario.node[2].nic.mac1609_4 	ReceivedBroadcasts 	0
scalar IntersectionExampleScenario.node[2].nic.mac1609_4 	SentPackets 	0
scalar IntersectionExampleScenario.node[2].nic.mac1609_4 	SNIRLostPackets 	0
scalar IntersectionExampleScenario.node[2].nic.mac1609_4 	RXTXLostPackets 	0
scalar IntersectionExampleScenario.node[2].nic.mac1609_4 	TotalLostPackets 	0
scalar IntersectionExampleScenario.node[2].nic.mac1609_4 	DroppedPacketsInMac 	0
scalar IntersectionExampleScenario.node[2].nic.mac1609_4 	TooLittleTime 	0
scalar IntersectionExampleScenario.node[2].nic.mac1609_4 	TimesIntoBackoff 	0
scalar IntersectionExampleScenario.node[2].nic.mac1609_4 	SlotsBackoff 	0
scalar IntersectionExampleScenario.node[2].nic.mac1609_4 	NumInternalContention 	0
scalar IntersectionExampleScenario.node[2].nic.mac1609_4 	totalBusyTime 	0
scalar IntersectionExampleScenario.node[2].veinsmobility 	startTime 	16.75
scalar IntersectionExampleScenario.node[2].veinsmobility 	totalTime 	38.5
scalar IntersectionExampleScenario.node[2].veinsmobility 	stopTime 	55.5
scalar IntersectionExampleScenario.node[2].veinsmobility 	minSpeed 	5.6500000953674
scalar IntersectionExampleScenario.node[2].veinsmobility 	maxSpeed 	15.64999961853
scalar IntersectionExampleScenario.node[2].veinsmobility 	totalDistance 	551.24000549316
scalar IntersectionExampleScenario.node[2].veinsmobility 	totalCO2Emission 	117.95031274191
scalar IntersectionExampleScenario.node[0].appl 	VehicleRemoved 	0
scalar IntersectionExampleScenario.node[0].appl 	ArrivedAtDest 	1
scalar IntersectionExampleScenario.node[0].appl 	IntersectionEnterTime 	1.75
scalar IntersectionExampleScenario.node[0].appl 	IntersectionExitTime 	42.534678069846
scalar IntersectionExampleScenario.node[0].appl 	NumberOfCollisions 	0
scalar IntersectionExampleScenario.node[0].nic.phy80211p 	busyTime 	0
scalar IntersectionExampleScenario.node[0].nic.mac1609_4 	ReceivedUnicastPackets 	0
scalar IntersectionExampleScenario.node[0].nic.mac1609_4 	ReceivedBroadcasts 	0
scalar IntersectionExampleScenario.node[0].nic.mac1609_4 	SentPackets 	0
scalar IntersectionExampleScenario.node[0].nic.mac1609_4 	SNIRLostPackets 	0
scalar IntersectionExampleScenario.node[0].nic.mac1609_4 	RXTXLostPackets 	0
scalar IntersectionExampleScenario.node[0].nic.mac1609_4 	TotalLostPackets 	0
scalar IntersectionExampleScenario.node[0].nic.mac1609_4 	DroppedPacketsInMac 	0
scalar IntersectionExampleScenario.node[0].nic.mac1609_4 	TooLittleTime 	0
scalar IntersectionExampleScenario.node[0].nic.mac1609_4 	TimesIntoBackoff 	0
scalar IntersectionExampleScenario.node[0].nic.mac1609_4 	SlotsBackoff 	0
scalar IntersectionExampleScenario.node[0].nic.mac1609_4 	NumInternalContention 	0
scalar IntersectionExampleScenario.node[0].nic.mac1609_4 	totalBusyTime 	0
scalar IntersectionExampleScenario.node[0].veinsmobility 	startTime 	1.75
scalar IntersectionExampleScenario.node[0].veinsmobility 	totalTime 	57.25
scalar IntersectionExampleScenario.node[0].veinsmobility 	stopTime 	59.25
scalar IntersectionExampleScenario.node[0].veinsmobility 	minSpeed 	0
scalar IntersectionExampleScenario.node[0].veinsmobility 	maxSpeed 	15.875
scalar IntersectionExampleScenario.node[0].veinsmobility 	totalDistance 	544.83437253386
scalar IntersectionExampleScenario.node[0].veinsmobility 	totalCO2Emission 	151.29995034678
scalar IntersectionExampleScenario.node[3].appl 	VehicleRemoved 	0
scalar IntersectionExampleScenario.node[3].appl 	ArrivedAtDest 	1
scalar IntersectionExampleScenario.node[3].appl 	IntersectionEnterTime 	19.75
scalar IntersectionExampleScenario.node[3].appl 	IntersectionExitTime 	46.373632953124
scalar IntersectionExampleScenario.node[3].appl 	NumberOfCollisions 	0
scalar IntersectionExampleScenario.node[3].nic.phy80211p 	busyTime 	0
scalar IntersectionExampleScenario.node[3].nic.mac1609_4 	ReceivedUnicastPackets 	0
scalar IntersectionExampleScenario.node[3].nic.mac1609_4 	ReceivedBroadcasts 	0
scalar IntersectionExampleScenario.node[3].nic.mac1609_4 	SentPackets 	0
scalar IntersectionExampleScenario.node[3].nic.mac1609_4 	SNIRLostPackets 	0
scalar IntersectionExampleScenario.node[3].nic.mac1609_4 	RXTXLostPackets 	0
scalar IntersectionExampleScenario.node[3].nic.mac1609_4 	TotalLostPackets 	0
scalar IntersectionExampleScenario.node[3].nic.mac1609_4 	DroppedPacketsInMac 	0
scalar IntersectionExampleScenario.node[3].nic.mac1609_4 	TooLittleTime 	0
scalar IntersectionExampleScenario.node[3].nic.mac1609_4 	TimesIntoBackoff 	0
scalar IntersectionExampleScenario.node[3].nic.mac1609_4 	SlotsBackoff 	0
scalar IntersectionExampleScenario.node[3].nic.mac1609_4 	NumInternalContention 	0
scalar IntersectionExampleScenario.node[3].nic.mac1609_4 	totalBusyTime 	0
scalar IntersectionExampleScenario.node[3].veinsmobility 	startTime 	19.75
scalar IntersectionExampleScenario.node[3].veinsmobility 	totalTime 	43.5
scalar IntersectionExampleScenario.node[3].veinsmobility 	stopTime 	63.5
scalar IntersectionExampleScenario.node[3].veinsmobility 	minSpeed 	5.6500000953674
scalar IntersectionExampleScenario.node[3].veinsmobility 	maxSpeed 	15.25
scalar IntersectionExampleScenario.node[3].veinsmobility 	totalDistance 	544.94730116188
scalar IntersectionExampleScenario.node[3].veinsmobility 	totalCO2Emission 	133.58357720418
scalar IntersectionExampleScenario.node[5].appl 	VehicleRemoved 	0
scalar IntersectionExampleScenario.node[5].appl 	ArrivedAtDest 	1
scalar IntersectionExampleScenario.node[5].appl 	IntersectionEnterTime 	26
scalar IntersectionExampleScenario.node[5].appl 	IntersectionExitTime 	49.758735015785
scalar IntersectionExampleScenario.node[5].appl 	NumberOfCollisions 	0
scalar IntersectionExampleScenario.node[5].nic.phy80211p 	busyTime 	0
scalar IntersectionExampleScenario.node[5].nic.mac1609_4 	ReceivedUnicastPackets 	0
scalar IntersectionExampleScenario.node[5].nic.mac1609_4 	ReceivedBroadcasts 	0
scalar IntersectionExampleScenario.node[5].nic.mac1609_4 	SentPackets 	0
scalar IntersectionExampleScenario.node[5].nic.mac1609_4 	SNIRLostPackets 	0
scalar IntersectionExampleScenario.node[5].nic.mac1609_4 	RXTXLostPackets 	0
scalar IntersectionExampleScenario.node[5].nic.mac1609_4 	TotalLostPackets 	0
scalar IntersectionExampleScenario.node[5].nic.mac1609_4 	DroppedPacketsInMac 	0
scalar IntersectionExampleScenario.node[5].nic.mac1609_4 	TooLittleTime 	0
scalar IntersectionExampleScenario.node[5].nic.mac1609_4 	TimesIntoBackoff 	0
scalar IntersectionExampleScenario.node[5].nic.mac1609_4 	SlotsBackoff 	0
scalar IntersectionExampleScenario.node[5].nic.mac1609_4 	NumInternalContention 	0
scalar IntersectionExampleScenario.node[5].nic.mac1609_4 	totalBusyTime 	0
scalar IntersectionExampleScenario.node[5].veinsmobility 	startTime 	26
scalar IntersectionExampleScenario.node[5].veinsmobility 	totalTime 	40.5
scalar IntersectionExampleScenario.node[5].veinsmobility 	stopTime 	66.75
scalar IntersectionExampleScenario.node[5].veinsmobility 	minSpeed 	5.6500000953674
scalar IntersectionExampleScenario.node[5].veinsmobility 	maxSpeed 	14.875
scalar IntersectionExampleScenario.node[5].veinsmobility 	totalDistance 	551.49179840088
scalar IntersectionExampleScenario.node[5].veinsmobility 	totalCO2Emission 	112.35568227965
scalar IntersectionExampleScenario.node[6].appl 	VehicleRemoved 	0
scalar IntersectionExampleScenario.node[6].appl 	ArrivedAtDest 	1
scalar IntersectionExampleScenario.node[6].appl 	IntersectionEnterTime 	26.5
scalar IntersectionExampleScenario.node[6].appl 	IntersectionExitTime 	61.609340265917
scalar IntersectionExampleScenario.node[6].appl 	NumberOfCollisions 	0
scalar IntersectionExampleScenario.node[6].nic.phy80211p 	busyTime 	0
scalar IntersectionExampleScenario.node[6].nic.mac1609_4 	ReceivedUnicastPackets 	0
scalar IntersectionExampleScenario.node[6].nic.mac1609_4 	ReceivedBroadcasts 	0
scalar IntersectionExampleScenario.node[6].nic.mac1609_4 	SentPackets 	0
scalar IntersectionExampleScenario.node[6].nic.mac1609_4 	SNIRLostPackets 	0
scalar IntersectionExampleScenario.node[6].nic.mac1609_4 	RXTXLostPackets 	0
scalar IntersectionExampleScenario.node[6].nic.mac1609_4 	TotalLostPackets 	0
scalar IntersectionExampleScenario.node[6].nic.mac1609_4 	DroppedPacketsInMac 	0
scalar IntersectionExampleScenario.node[6].nic.mac1609_4 	TooLittleTime 	0
scalar IntersectionExampleScenario.node[6].nic.mac1609_4 	TimesIntoBackoff 	0
scalar IntersectionExampleScenario.node[6].nic.mac1609_4 	SlotsBackoff 	0
scalar IntersectionExampleScenario.node[6].nic.mac1609_4 	NumInternalContention 	0
scalar IntersectionExampleScenario.node[6].nic.mac1609_4 	totalBusyTime 	0
scalar IntersectionExampleScenario.node[6].veinsmobility 	startTime 	26.5
scalar IntersectionExampleScenario.node[6].veinsmobility 	totalTime 	51.25
scalar IntersectionExampleScenario.node[6].veinsmobility 	stopTime 	78
scalar IntersectionExampleScenario.node[6].veinsmobility 	minSpeed 	0
scalar IntersectionExampleScenario.node[6].veinsmobility 	maxSpeed 	16.27499961853
scalar IntersectionExampleScenario.node[6].veinsmobility 	totalDistance 	542.93443967254
scalar IntersectionExampleScenario.node[6].veinsmobility 	totalCO2Emission 	146.975408079
scalar IntersectionExampleScenario.node[4].appl 	VehicleRemoved 	0
scalar IntersectionExampleScenario.node[4].appl 	ArrivedAtDest 	1
scalar IntersectionExampleScenario.node[4].appl 	IntersectionEnterTime 	26
scalar IntersectionExampleScenario.node[4].appl 	IntersectionExitTime 	61.527798255673
scalar IntersectionExampleScenario.node[4].appl 	NumberOfCollisions 	0
scalar IntersectionExampleScenario.node[4].nic.phy80211p 	busyTime 	0
scalar IntersectionExampleScenario.node[4].nic.mac1609_4 	ReceivedUnicastPackets 	0
scalar IntersectionExampleScenario.node[4].nic.mac1609_4 	ReceivedBroadcasts 	0
scalar IntersectionExampleScenario.node[4].nic.mac1609_4 	SentPackets 	0
scalar IntersectionExampleScenario.node[4].nic.mac1609_4 	SNIRLostPackets 	0
scalar IntersectionExampleScenario.node[4].nic.mac1609_4 	RXTXLostPackets 	0
scalar IntersectionExampleScenario.node[4].nic.mac1609_4 	TotalLostPackets 	0
scalar IntersectionExampleScenario.node[4].nic.mac1609_4 	DroppedPacketsInMac 	0
scalar IntersectionExampleScenario.node[4].nic.mac1609_4 	TooLittleTime 	0
scalar IntersectionExampleScenario.node[4].nic.mac1609_4 	TimesIntoBackoff 	0
scalar IntersectionExampleScenario.node[4].nic.mac1609_4 	SlotsBackoff 	0
scalar IntersectionExampleScenario.node[4].nic.mac1609_4 	NumInternalContention 	0
scalar IntersectionExampleScenario.node[4].nic.mac1609_4 	totalBusyTime 	0
scalar IntersectionExampleScenario.node[4].veinsmobility 	startTime 	26
scalar IntersectionExampleScenario.node[4].veinsmobility 	totalTime 	52
scalar IntersectionExampleScenario.node[4].veinsmobility 	stopTime 	78.25
scalar IntersectionExampleScenario.node[4].veinsmobility 	minSpeed 	0
scalar IntersectionExampleScenario.node[4].veinsmobility 	maxSpeed 	15.875
scalar IntersectionExampleScenario.node[4].veinsmobility 	totalDistance 	545.8471517697
scalar IntersectionExampleScenario.node[4].veinsmobility 	totalCO2Emission 	147.05523147963
scalar IntersectionExampleScenario.node[10].appl 	VehicleRemoved 	0
scalar IntersectionExampleScenario.node[10].appl 	ArrivedAtDest 	1
scalar IntersectionExampleScenario.node[10].appl 	IntersectionEnterTime 	36
scalar IntersectionExampleScenario.node[10].appl 	IntersectionExitTime 	60.616249521147
scalar IntersectionExampleScenario.node[10].appl 	NumberOfCollisions 	0
scalar IntersectionExampleScenario.node[10].nic.phy80211p 	busyTime 	0
scalar IntersectionExampleScenario.node[10].nic.mac1609_4 	ReceivedUnicastPackets 	0
scalar IntersectionExampleScenario.node[10].nic.mac1609_4 	ReceivedBroadcasts 	0
scalar IntersectionExampleScenario.node[10].nic.mac1609_4 	SentPackets 	0
scalar IntersectionExampleScenario.node[10].nic.mac1609_4 	SNIRLostPackets 	0
scalar IntersectionExampleScenario.node[10].nic.mac1609_4 	RXTXLostPackets 	0
scalar IntersectionExampleScenario.node[10].nic.mac1609_4 	TotalLostPackets 	0
scalar IntersectionExampleScenario.node[10].nic.mac1609_4 	DroppedPacketsInMac 	0
scalar IntersectionExampleScenario.node[10].nic.mac1609_4 	TooLittleTime 	0
scalar IntersectionExampleScenario.node[10].nic.mac1609_4 	TimesIntoBackoff 	0
scalar IntersectionExampleScenario.node[10].nic.mac1609_4 	SlotsBackoff 	0
scalar IntersectionExampleScenario.node[10].nic.mac1609_4 	NumInternalContention 	0
scalar IntersectionExampleScenario.node[10].nic.mac1609_4 	totalBusyTime 	0
scalar IntersectionExampleScenario.node[10].veinsmobility 	startTime 	36
scalar IntersectionExampleScenario.node[10].veinsmobility 	totalTime 	42
scalar IntersectionExampleScenario.node[10].veinsmobility 	stopTime 	78.25
scalar IntersectionExampleScenario.node[10].veinsmobility 	minSpeed 	5.6500000953674
scalar IntersectionExampleScenario.node[10].veinsmobility 	maxSpeed 	14.625
scalar IntersectionExampleScenario.node[10].veinsmobility 	totalDistance 	544.21891235702
scalar IntersectionExampleScenario.node[10].veinsmobility 	totalCO2Emission 	120.83558288635
scalar IntersectionExampleScenario.node[8].appl 	VehicleRemoved 	0
scalar IntersectionExampleScenario.node[8].appl 	ArrivedAtDest 	1
scalar IntersectionExampleScenario.node[8].appl 	IntersectionEnterTime 	28.5
scalar IntersectionExampleScenario.node[8].appl 	IntersectionExitTime 	63.854015817982
scalar IntersectionExampleScenario.node[8].appl 	NumberOfCollisions 	0
scalar IntersectionExampleScenario.node[8].nic.phy80211p 	busyTime 	0
scalar IntersectionExampleScenario.node[8].nic.mac1609_4 	ReceivedUnicastPackets 	0
scalar IntersectionExampleScenario.node[8].nic.mac1609_4 	ReceivedBroadcasts 	0
scalar IntersectionExampleScenario.node[8].nic.mac1609_4 	SentPackets 	0
scalar IntersectionExampleScenario.node[8].nic.mac1609_4 	SNIRLostPackets 	0
scalar IntersectionExampleScenario.node[8].nic.mac1609_4 	RXTXLostPackets 	0
scalar IntersectionExampleScenario.node[8].nic.mac1609_4 	TotalLostPackets 	0
scalar IntersectionExampleScenario.node[8].nic.mac1609_4 	DroppedPacketsInMac 	0
scalar IntersectionExampleScenario.node[8].nic.mac1609_4 	TooLittleTime 	0
scalar IntersectionExampleScenario.node[8].nic.mac1609_4 	TimesIntoBackoff 	0
scalar IntersectionExampleScenario.node[8].nic.mac1609_4 	SlotsBackoff 	0
scalar IntersectionExampleScenario.node[8].nic.mac1609_4 	NumInternalContention 	0
scalar IntersectionExampleScenario.node[8].nic.mac1609_4 	totalBusyTime 	0
scalar IntersectionExampleScenario.node[8].veinsmobility 	startTime 	28.5
scalar IntersectionExampleScenario.node[8].veinsmobility 	totalTime 	51.75
scalar IntersectionExampleScenario.node[8].veinsmobility 	stopTime 	80.5
scalar IntersectionExampleScenario.node[8].veinsmobility 	minSpeed 	0
scalar IntersectionExampleScenario.node[8].veinsmobility 	maxSpeed 	15.128887176514
scalar IntersectionExampleScenario.node[8].veinsmobility 	totalDistance 	567.69982731239
scalar IntersectionExampleScenario.node[8].veinsmobility 	totalCO2Emission 	142.02137453037
scalar IntersectionExampleScenario.node[7].appl 	VehicleRemoved 	0
scalar IntersectionExampleScenario.node[7].appl 	ArrivedAtDest 	1
scalar IntersectionExampleScenario.node[7].appl 	IntersectionEnterTime 	27.75
scalar IntersectionExampleScenario.node[7].appl 	IntersectionExitTime 	63.563072649209
scalar IntersectionExampleScenario.node[7].appl 	NumberOfCollisions 	0
scalar IntersectionExampleScenario.node[7].nic.phy80211p 	busyTime 	0
scalar IntersectionExampleScenario.node[7].nic.mac1609_4 	ReceivedUnicastPackets 	0
scalar IntersectionExampleScenario.node[7].nic.mac1609_4 	ReceivedBroadcasts 	0
scalar IntersectionExampleScenario.node[7].nic.mac1609_4 	SentPackets 	0
scalar IntersectionExampleScenario.node[7].nic.mac1609_4 	SNIRLostPackets 	0
scalar IntersectionExampleScenario.node[7].nic.mac1609_4 	RXTXLostPackets 	0
scalar IntersectionExampleScenario.node[7].nic.mac1609_4 	TotalLostPackets 	0
scalar IntersectionExampleScenario.node[7].nic.mac1609_4 	DroppedPacketsInMac 	0
scalar IntersectionExampleScenario.node[7].nic.mac1609_4 	TooLittleTime 	0
scalar IntersectionExampleScenario.node[7].nic.mac1609_4 	TimesIntoBackoff 	0
scalar IntersectionExampleScenario.node[7].nic.mac1609_4 	SlotsBackoff 	0
scalar IntersectionExampleScenario.node[7].nic.mac1609_4 	NumInternalContention 	0
scalar IntersectionExampleScenario.node[7].nic.mac1609_4 	totalBusyTime 	0
scalar IntersectionExampleScenario.node[7].veinsmobility 	startTime 	27.75
scalar IntersectionExampleScenario.node[7].veinsmobility 	totalTime 	52.5
scalar IntersectionExampleScenario.node[7].veinsmobility 	stopTime 	80.5
scalar IntersectionExampleScenario.node[7].veinsmobility 	minSpeed 	0
scalar IntersectionExampleScenario.node[7].veinsmobility 	maxSpeed 	14.875
scalar IntersectionExampleScenario.node[7].veinsmobility 	totalDistance 	572.09243011475
scalar IntersectionExampleScenario.node[7].veinsmobility 	totalCO2Emission 	137.99234453713
scalar IntersectionExampleScenario.node[9].appl 	VehicleRemoved 	0
scalar IntersectionExampleScenario.node[9].appl 	ArrivedAtDest 	1
scalar IntersectionExampleScenario.node[9].appl 	IntersectionEnterTime 	28.75
scalar IntersectionExampleScenario.node[9].appl 	IntersectionExitTime 	65.781109612988
scalar IntersectionExampleScenario.node[9].appl 	NumberOfCollisions 	0
scalar IntersectionExampleScenario.node[9].nic.phy80211p 	busyTime 	0
scalar IntersectionExampleScenario.node[9].nic.mac1609_4 	ReceivedUnicastPackets 	0
scalar IntersectionExampleScenario.node[9].nic.mac1609_4 	ReceivedBroadcasts 	0
scalar IntersectionExampleScenario.node[9].nic.mac1609_4 	SentPackets 	0
scalar IntersectionExampleScenario.node[9].nic.mac1609_4 	SNIRLostPackets 	0
scalar IntersectionExampleScenario.node[9].nic.mac1609_4 	RXTXLostPackets 	0
scalar IntersectionExampleScenario.node[9].nic.mac1609_4 	TotalLostPackets 	0
scalar IntersectionExampleScenario.node[9].nic.mac1609_4 	DroppedPacketsInMac 	0
scalar IntersectionExampleScenario.node[9].nic.mac1609_4 	TooLittleTime 	0
scalar IntersectionExampleScenario.node[9].nic.mac1609_4 	TimesIntoBackoff 	0
scalar IntersectionExampleScenario.node[9].nic.mac1609_4 	SlotsBackoff 	0
scalar IntersectionExampleScenario.node[9].nic.mac1609_4 	NumInternalContention 	0
scalar IntersectionExampleScenario.node[9].nic.mac1609_4 	totalBusyTime 	0
scalar IntersectionExampleScenario.node[9].veinsmobility 	startTime 	28.75
scalar IntersectionExampleScenario.node[9].veinsmobility 	totalTime 	53
scalar IntersectionExampleScenario.node[9].veinsmobility 	stopTime 	82
scalar IntersectionExampleScenario.node[9].veinsmobility 	minSpeed 	0.85663706064224
scalar IntersectionExampleScenario.node[9].veinsmobility 	maxSpeed 	15.375
scalar IntersectionExampleScenario.node[9].veinsmobility 	totalDistance 	580.87702232722
scalar IntersectionExampleScenario.node[9].veinsmobility 	totalCO2Emission 	149.38358797821
scalar IntersectionExampleScenario.node[11].appl 	VehicleRemoved 	0
scalar IntersectionExampleScenario.node[11].appl 	ArrivedAtDest 	1
scalar IntersectionExampleScenario.node[11].appl 	IntersectionEnterTime 	40.25
scalar IntersectionExampleScenario.node[11].appl 	IntersectionExitTime 	66.504045656795
scalar IntersectionExampleScenario.node[11].appl 	NumberOfCollisions 	0
scalar IntersectionExampleScenario.node[11].nic.phy80211p 	busyTime 	0
scalar IntersectionExampleScenario.node[11].nic.mac1609_4 	ReceivedUnicastPackets 	0
scalar IntersectionExampleScenario.node[11].nic.mac1609_4 	ReceivedBroadcasts 	0
scalar IntersectionExampleScenario.node[11].nic.mac1609_4 	SentPackets 	0
scalar IntersectionExampleScenario.node[11].nic.mac1609_4 	SNIRLostPackets 	0
scalar IntersectionExampleScenario.node[11].nic.mac1609_4 	RXTXLostPackets 	0
scalar IntersectionExampleScenario.node[11].nic.mac1609_4 	TotalLostPackets 	0
scalar IntersectionExampleScenario.node[11].nic.mac1609_4 	DroppedPacketsInMac 	0
scalar IntersectionExampleScenario.node[11].nic.mac1609_4 	TooLittleTime 	0
scalar IntersectionExampleScenario.node[11].nic.mac1609_4 	TimesIntoBackoff 	0
scalar IntersectionExampleScenario.node[11].nic.mac1609_4 	SlotsBackoff 	0
scalar IntersectionExampleScenario.node[11].nic.mac1609_4 	NumInternalContention 	0
scalar IntersectionExampleScenario.node[11].nic.mac1609_4 	totalBusyTime 	0
scalar IntersectionExampleScenario.node[11].veinsmobility 	startTime 	40.25
scalar IntersectionExampleScenario.node[11].veinsmobility 	totalTime 	43.25
scalar IntersectionExampleScenario.node[11].veinsmobility 	stopTime 	83.75
scalar IntersectionExampleScenario.node[11].veinsmobility 	minSpeed 	5.6500000953674
scalar IntersectionExampleScenario.node[11].veinsmobility 	maxSpeed 	15.02499961853
scalar IntersectionExampleScenario.node[11].veinsmobility 	totalDistance 	551.54940806492
scalar IntersectionExampleScenario.node[11].veinsmobility 	totalCO2Emission 	127.16616810047
scalar IntersectionExampleScenario.node[15].appl 	VehicleRemoved 	0
scalar IntersectionExampleScenario.node[15].appl 	ArrivedAtDest 	1
scalar IntersectionExampleScenario.node[15].appl 	IntersectionEnterTime 	47
scalar IntersectionExampleScenario.node[15].appl 	IntersectionExitTime 	69.608060634608
scalar IntersectionExampleScenario.node[15].appl 	NumberOfCollisions 	0
scalar IntersectionExampleScenario.node[15].nic.phy80211p 	busyTime 	0
scalar IntersectionExampleScenario.node[15].nic.mac1609_4 	ReceivedUnicastPackets 	0
scalar IntersectionExampleScenario.node[15].nic.mac1609_4 	ReceivedBroadcasts 	0
scalar IntersectionExampleScenario.node[15].nic.mac1609_4 	SentPackets 	0
scalar IntersectionExampleScenario.node[15].nic.mac1609_4 	SNIRLostPackets 	0
scalar IntersectionExampleScenario.node[15].nic.mac1609_4 	RXTXLostPackets 	0
scalar IntersectionExampleScenario.node[15].nic.mac1609_4 	TotalLostPackets 	0
scalar IntersectionExampleScenario.node[15].nic.mac1609_4 	DroppedPacketsInMac 	0
scalar IntersectionExampleScenario.node[15].nic.mac1609_4 	TooLittleTime 	0
scalar IntersectionExampleScenario.node[15].nic.mac1609_4 	TimesIntoBackoff 	0
scalar IntersectionExampleScenario.node[15].nic.mac1609_4 	SlotsBackoff 	0
scalar IntersectionExampleScenario.node[15].nic.mac1609_4 	NumInternalContention 	0
scalar IntersectionExampleScenario.node[15].nic.mac1609_4 	totalBusyTime 	0
scalar IntersectionExampleScenario.node[15].veinsmobility 	startTime 	47
scalar IntersectionExampleScenario.node[15].veinsmobility 	totalTime 	38
scalar IntersectionExampleScenario.node[15].veinsmobility 	stopTime 	85.25
scalar IntersectionExampleScenario.node[15].veinsmobility 	minSpeed 	5.6500000953674
scalar IntersectionExampleScenario.node[15].veinsmobility 	maxSpeed 	16.125
scalar IntersectionExampleScenario.node[15].veinsmobility 	totalDistance 	552.03747558594
scalar IntersectionExampleScenario.node[15].veinsmobility 	totalCO2Emission 	120.77471595457
scalar IntersectionExampleScenario.node[16].appl 	VehicleRemoved 	0
scalar IntersectionExampleScenario.node[16].appl 	ArrivedAtDest 	1
scalar IntersectionExampleScenario.node[16].appl 	IntersectionEnterTime 	47.25
scalar IntersectionExampleScenario.node[16].appl 	IntersectionExitTime 	70.548413441604
scalar IntersectionExampleScenario.node[16].appl 	NumberOfCollisions 	0
scalar IntersectionExampleScenario.node[16].nic.phy80211p 	busyTime 	0
scalar IntersectionExampleScenario.node[16].nic.mac1609_4 	ReceivedUnicastPackets 	0
scalar IntersectionExampleScenario.node[16].nic.mac1609_4 	ReceivedBroadcasts 	0
scalar IntersectionExampleScenario.node[16].nic.mac1609_4 	SentPackets 	0
scalar IntersectionExampleScenario.node[16].nic.mac1609_4 	SNIRLostPackets 	0
scalar IntersectionExampleScenario.node[16].nic.mac1609_4 	RXTXLostPackets 	0
scalar IntersectionExampleScenario.node[16].nic.mac1609_4 	TotalLostPackets 	0
scalar IntersectionExampleScenario.node[16].nic.mac1609_4 	DroppedPacketsInMac 	0
scalar IntersectionExampleScenario.node[16].nic.mac1609_4 	TooLittleTime 	0
scalar IntersectionExampleScenario.node[16].nic.mac1609_4 	TimesIntoBackoff 	0
scalar IntersectionExampleScenario.node[16].nic.mac1609_4 	SlotsBackoff 	0
scalar IntersectionExampleScenario.node[16].nic.mac1609_4 	NumInternalContention 	0
scalar IntersectionExampleScenario.node[16].nic.mac1609_4 	totalBusyTime 	0
scalar IntersectionExampleScenario.node[16].veinsmobility 	startTime 	47.25
scalar IntersectionExampleScenario.node[16].veinsmobility 	totalTime 	39.75
scalar IntersectionExampleScenario.node[16].veinsmobility 	stopTime 	87.25
scalar IntersectionExampleScenario.node[16].veinsmobility 	minSpeed 	5.6500000953674
scalar IntersectionExampleScenario.node[16].veinsmobility 	maxSpeed 	16.27499961853
scalar IntersectionExampleScenario.node[16].veinsmobility 	totalDistance 	545.73596516389
scalar IntersectionExampleScenario.node[16].veinsmobility 	totalCO2Emission 	133.11277468806
scalar IntersectionExampleScenario.node[17].appl 	VehicleRemoved 	0
scalar IntersectionExampleScenario.node[17].appl 	ArrivedAtDest 	1
scalar IntersectionExampleScenario.node[17].appl 	IntersectionEnterTime 	49.25
scalar IntersectionExampleScenario.node[17].appl 	IntersectionExitTime 	73.865781839093
scalar IntersectionExampleScenario.node[17].appl 	NumberOfCollisions 	0
scalar IntersectionExampleScenario.node[17].nic.phy80211p 	busyTime 	0
scalar IntersectionExampleScenario.node[17].nic.mac1609_4 	ReceivedUnicastPackets 	0
scalar IntersectionExampleScenario.node[17].nic.mac1609_4 	ReceivedBroadcasts 	0
scalar IntersectionExampleScenario.node[17].nic.mac1609_4 	SentPackets 	0
scalar IntersectionExampleScenario.node[17].nic.mac1609_4 	SNIRLostPackets 	0
scalar IntersectionExampleScenario.node[17].nic.mac1609_4 	RXTXLostPackets 	0
scalar IntersectionExampleScenario.node[17].nic.mac1609_4 	TotalLostPackets 	0
scalar IntersectionExampleScenario.node[17].nic.mac1609_4 	DroppedPacketsInMac 	0
scalar IntersectionExampleScenario.node[17].nic.mac1609_4 	TooLittleTime 	0
scalar IntersectionExampleScenario.node[17].nic.mac1609_4 	TimesIntoBackoff 	0
scalar IntersectionExampleScenario.node[17].nic.mac1609_4 	SlotsBackoff 	0
scalar IntersectionExampleScenario.node[17].nic.mac1609_4 	NumInternalContention 	0
scalar IntersectionExampleScenario.node[17].nic.mac1609_4 	totalBusyTime 	0
scalar IntersectionExampleScenario.node[17].veinsmobility 	startTime 	49.25
scalar IntersectionExampleScenario.node[17].veinsmobility 	totalTime 	40.5
scalar IntersectionExampleScenario.node[17].veinsmobility 	stopTime 	90
scalar IntersectionExampleScenario.node[17].veinsmobility 	minSpeed 	5.6500000953674
scalar IntersectionExampleScenario.node[17].veinsmobility 	maxSpeed 	16.27499961853
scalar IntersectionExampleScenario.node[17].veinsmobility 	totalDistance 	561.70443747249
scalar IntersectionExampleScenario.node[17].veinsmobility 	totalCO2Emission 	132.76769929725
scalar IntersectionExampleScenario.node[19].appl 	VehicleRemoved 	0
scalar IntersectionExampleScenario.node[19].appl 	ArrivedAtDest 	1
scalar IntersectionExampleScenario.node[19].appl 	IntersectionEnterTime 	50.75
scalar IntersectionExampleScenario.node[19].appl 	IntersectionExitTime 	77.004040406639
scalar IntersectionExampleScenario.node[19].appl 	NumberOfCollisions 	0
scalar IntersectionExampleScenario.node[19].nic.phy80211p 	busyTime 	0
scalar IntersectionExampleScenario.node[19].nic.mac1609_4 	ReceivedUnicastPackets 	0
scalar IntersectionExampleScenario.node[19].nic.mac1609_4 	ReceivedBroadcasts 	0
scalar IntersectionExampleScenario.node[19].nic.mac1609_4 	SentPackets 	0
scalar IntersectionExampleScenario.node[19].nic.mac1609_4 	SNIRLostPackets 	0
scalar IntersectionExampleScenario.node[19].nic.mac1609_4 	RXTXLostPackets 	0
scalar IntersectionExampleScenario.node[19].nic.mac1609_4 	TotalLostPackets 	0
scalar IntersectionExampleScenario.node[19].nic.mac1609_4 	DroppedPacketsInMac 	0
scalar IntersectionExampleScenario.node[19].nic.mac1609_4 	TooLittleTime 	0
scalar IntersectionExampleScenario.node[19].nic.mac1609_4 	TimesIntoBackoff 	0
scalar IntersectionExampleScenario.node[19].nic.mac1609_4 	SlotsBackoff 	0
scalar IntersectionExampleScenario.node[19].nic.mac1609_4 	NumInternalContention 	0
scalar IntersectionExampleScenario.node[19].nic.mac1609_4 	totalBusyTime 	0
scalar IntersectionExampleScenario.node[19].veinsmobility 	startTime 	50.75
scalar IntersectionExampleScenario.node[19].veinsmobility 	totalTime 	43.5
scalar IntersectionExampleScenario.node[19].veinsmobility 	stopTime 	94.5
scalar IntersectionExampleScenario.node[19].veinsmobility 	minSpeed 	5.6500000953674
scalar IntersectionExampleScenario.node[19].veinsmobility 	maxSpeed 	14.39999961853
scalar IntersectionExampleScenario.node[19].veinsmobility 	totalDistance 	581.76689147949
scalar IntersectionExampleScenario.node[19].veinsmobility 	totalCO2Emission 	114.92626891101
scalar IntersectionExampleScenario.node[20].appl 	VehicleRemoved 	0
scalar IntersectionExampleScenario.node[20].appl 	ArrivedAtDest 	1
scalar IntersectionExampleScenario.node[20].appl 	IntersectionEnterTime 	55.5
scalar IntersectionExampleScenario.node[20].appl 	IntersectionExitTime 	79.79335409106
scalar IntersectionExampleScenario.node[20].appl 	NumberOfCollisions 	0
scalar IntersectionExampleScenario.node[20].nic.phy80211p 	busyTime 	0
scalar IntersectionExampleScenario.node[20].nic.mac1609_4 	ReceivedUnicastPackets 	0
scalar IntersectionExampleScenario.node[20].nic.mac1609_4 	ReceivedBroadcasts 	0
scalar IntersectionExampleScenario.node[20].nic.mac1609_4 	SentPackets 	0
scalar IntersectionExampleScenario.node[20].nic.mac1609_4 	SNIRLostPackets 	0
scalar IntersectionExampleScenario.node[20].nic.mac1609_4 	RXTXLostPackets 	0
scalar IntersectionExampleScenario.node[20].nic.mac1609_4 	TotalLostPackets 	0
scalar IntersectionExampleScenario.node[20].nic.mac1609_4 	DroppedPacketsInMac 	0
scalar IntersectionExampleScenario.node[20].nic.mac1609_4 	TooLittleTime 	0
scalar IntersectionExampleScenario.node[20].nic.mac1609_4 	TimesIntoBackoff 	0
scalar IntersectionExampleScenario.node[20].nic.mac1609_4 	SlotsBackoff 	0
scalar IntersectionExampleScenario.node[20].nic.mac1609_4 	NumInternalContention 	0
scalar IntersectionExampleScenario.node[20].nic.mac1609_4 	totalBusyTime 	0
scalar IntersectionExampleScenario.node[20].veinsmobility 	startTime 	55.5
scalar IntersectionExampleScenario.node[20].veinsmobility 	totalTime 	40.75
scalar IntersectionExampleScenario.node[20].veinsmobility 	stopTime 	96.5
scalar IntersectionExampleScenario.node[20].veinsmobility 	minSpeed 	5.6500000953674
scalar IntersectionExampleScenario.node[20].veinsmobility 	maxSpeed 	15.875
scalar IntersectionExampleScenario.node[20].veinsmobility 	totalDistance 	560.0461221348
scalar IntersectionExampleScenario.node[20].veinsmobility 	totalCO2Emission 	130.03173449643
scalar IntersectionExampleScenario.node[12].appl 	VehicleRemoved 	0
scalar IntersectionExampleScenario.node[12].appl 	ArrivedAtDest 	1
scalar IntersectionExampleScenario.node[12].appl 	IntersectionEnterTime 	41.75
scalar IntersectionExampleScenario.node[12].appl 	IntersectionExitTime 	81.521892064076
scalar IntersectionExampleScenario.node[12].appl 	NumberOfCollisions 	0
scalar IntersectionExampleScenario.node[12].nic.phy80211p 	busyTime 	0
scalar IntersectionExampleScenario.node[12].nic.mac1609_4 	ReceivedUnicastPackets 	0
scalar IntersectionExampleScenario.node[12].nic.mac1609_4 	ReceivedBroadcasts 	0
scalar IntersectionExampleScenario.node[12].nic.mac1609_4 	SentPackets 	0
scalar IntersectionExampleScenario.node[12].nic.mac1609_4 	SNIRLostPackets 	0
scalar IntersectionExampleScenario.node[12].nic.mac1609_4 	RXTXLostPackets 	0
scalar IntersectionExampleScenario.node[12].nic.mac1609_4 	TotalLostPackets 	0
scalar IntersectionExampleScenario.node[12].nic.mac1609_4 	DroppedPacketsInMac 	0
scalar IntersectionExampleScenario.node[12].nic.mac1609_4 	TooLittleTime 	0
scalar IntersectionExampleScenario.node[12].nic.mac1609_4 	TimesIntoBackoff 	0
scalar IntersectionExampleScenario.node[12].nic.mac1609_4 	SlotsBackoff 	0
scalar IntersectionExampleScenario.node[12].nic.mac1609_4 	NumInternalContention 	0
scalar IntersectionExampleScenario.node[12].nic.mac1609_4 	totalBusyTime 	0
scalar IntersectionExampleScenario.node[12].veinsmobility 	startTime 	41.75
scalar IntersectionExampleScenario.node[12].veinsmobility 	totalTime 	56
scalar IntersectionExampleScenario.node[12].veinsmobility 	stopTime 	98
scalar IntersectionExampleScenario.node[12].veinsmobility 	minSpeed 	0
scalar IntersectionExampleScenario.node[12].veinsmobility 	maxSpeed 	16.5
scalar IntersectionExampleScenario.node[12].veinsmobility 	totalDistance 	546.1083135739
scalar IntersectionExampleScenario.node[12].veinsmobility 	totalCO2Emission 	155.98392837807
scalar IntersectionExampleScenario.node[18].appl 	VehicleRemoved 	0
scalar IntersectionExampleScenario.node[18].appl 	ArrivedAtDest 	1
scalar IntersectionExampleScenario.node[18].appl 	IntersectionEnterTime 	49.5
scalar IntersectionExampleScenario.node[18].appl 	IntersectionExitTime 	83.25740653422
scalar IntersectionExampleScenario.node[18].appl 	NumberOfCollisions 	0
scalar IntersectionExampleScenario.node[18].nic.phy80211p 	busyTime 	0
scalar IntersectionExampleScenario.node[18].nic.mac1609_4 	ReceivedUnicastPackets 	0
scalar IntersectionExampleScenario.node[18].nic.mac1609_4 	ReceivedBroadcasts 	0
scalar IntersectionExampleScenario.node[18].nic.mac1609_4 	SentPackets 	0
scalar IntersectionExampleScenario.node[18].nic.mac1609_4 	SNIRLostPackets 	0
scalar IntersectionExampleScenario.node[18].nic.mac1609_4 	RXTXLostPackets 	0
scalar IntersectionExampleScenario.node[18].nic.mac1609_4 	TotalLostPackets 	0
scalar IntersectionExampleScenario.node[18].nic.mac1609_4 	DroppedPacketsInMac 	0
scalar IntersectionExampleScenario.node[18].nic.mac1609_4 	TooLittleTime 	0
scalar IntersectionExampleScenario.node[18].nic.mac1609_4 	TimesIntoBackoff 	0
scalar IntersectionExampleScenario.node[18].nic.mac1609_4 	SlotsBackoff 	0
scalar IntersectionExampleScenario.node[18].nic.mac1609_4 	NumInternalContention 	0
scalar IntersectionExampleScenario.node[18].nic.mac1609_4 	totalBusyTime 	0
scalar IntersectionExampleScenario.node[18].veinsmobility 	startTime 	49.5
scalar IntersectionExampleScenario.node[18].veinsmobility 	totalTime 	50.25
scalar IntersectionExampleScenario.node[18].veinsmobility 	stopTime 	100
scalar IntersectionExampleScenario.node[18].veinsmobility 	minSpeed 	1.0079801082611
scalar IntersectionExampleScenario.node[18].veinsmobility 	maxSpeed 	15.64999961853
scalar IntersectionExampleScenario.node[18].veinsmobility 	totalDistance 	549.02787710809
scalar IntersectionExampleScenario.node[18].veinsmobility 	totalCO2Emission 	137.28331375189
scalar IntersectionExampleScenario.node[13].appl 	VehicleRemoved 	0
scalar IntersectionExampleScenario.node[13].appl 	ArrivedAtDest 	1
scalar IntersectionExampleScenario.node[13].appl 	IntersectionEnterTime 	46
scalar IntersectionExampleScenario.node[13].appl 	IntersectionExitTime 	84.066380892764
scalar IntersectionExampleScenario.node[13].appl 	NumberOfCollisions 	0
scalar IntersectionExampleScenario.node[13].nic.phy80211p 	busyTime 	0
scalar IntersectionExampleScenario.node[13].nic.mac1609_4 	ReceivedUnicastPackets 	0
scalar IntersectionExampleScenario.node[13].nic.mac1609_4 	ReceivedBroadcasts 	0
scalar IntersectionExampleScenario.node[13].nic.mac1609_4 	SentPackets 	0
scalar IntersectionExampleScenario.node[13].nic.mac1609_4 	SNIRLostPackets 	0
scalar IntersectionExampleScenario.node[13].nic.mac1609_4 	RXTXLostPackets 	0
scalar IntersectionExampleScenario.node[13].nic.mac1609_4 	TotalLostPackets 	0
scalar IntersectionExampleScenario.node[13].nic.mac1609_4 	DroppedPacketsInMac 	0
scalar IntersectionExampleScenario.node[13].nic.mac1609_4 	TooLittleTime 	0
scalar IntersectionExampleScenario.node[13].nic.mac1609_4 	TimesIntoBackoff 	0
scalar IntersectionExampleScenario.node[13].nic.mac1609_4 	SlotsBackoff 	0
scalar IntersectionExampleScenario.node[13].nic.mac1609_4 	NumInternalContention 	0
scalar IntersectionExampleScenario.node[13].nic.mac1609_4 	totalBusyTime 	0
scalar IntersectionExampleScenario.node[13].veinsmobility 	startTime 	46
scalar IntersectionExampleScenario.node[13].veinsmobility 	totalTime 	54.75
scalar IntersectionExampleScenario.node[13].veinsmobility 	stopTime 	101
scalar IntersectionExampleScenario.node[13].veinsmobility 	minSpeed 	0
scalar IntersectionExampleScenario.node[13].veinsmobility 	maxSpeed 	15.300715446472
scalar IntersectionExampleScenario.node[13].veinsmobility 	totalDistance 	550.85133641527
scalar IntersectionExampleScenario.node[13].veinsmobility 	totalCO2Emission 	144.48810973132
scalar IntersectionExampleScenario.node[14].appl 	VehicleRemoved 	0
scalar IntersectionExampleScenario.node[14].appl 	ArrivedAtDest 	1
scalar IntersectionExampleScenario.node[14].appl 	IntersectionEnterTime 	46.75
scalar IntersectionExampleScenario.node[14].appl 	IntersectionExitTime 	86.540793925669
scalar IntersectionExampleScenario.node[14].appl 	NumberOfCollisions 	0
scalar IntersectionExampleScenario.node[14].nic.phy80211p 	busyTime 	0
scalar IntersectionExampleScenario.node[14].nic.mac1609_4 	ReceivedUnicastPackets 	0
scalar IntersectionExampleScenario.node[14].nic.mac1609_4 	ReceivedBroadcasts 	0
scalar IntersectionExampleScenario.node[14].nic.mac1609_4 	SentPackets 	0
scalar IntersectionExampleScenario.node[14].nic.mac1609_4 	SNIRLostPackets 	0
scalar IntersectionExampleScenario.node[14].nic.mac1609_4 	RXTXLostPackets 	0
scalar IntersectionExampleScenario.node[14].nic.mac1609_4 	TotalLostPackets 	0
scalar IntersectionExampleScenario.node[14].nic.mac1609_4 	DroppedPacketsInMac 	0
scalar IntersectionExampleScenario.node[14].nic.mac1609_4 	TooLittleTime 	0
scalar IntersectionExampleScenario.node[14].nic.mac1609_4 	TimesIntoBackoff 	0
scalar IntersectionExampleScenario.node[14].nic.mac1609_4 	SlotsBackoff 	0
scalar IntersectionExampleScenario.node[14].nic.mac1609_4 	NumInternalContention 	0
scalar IntersectionExampleScenario.node[14].nic.mac1609_4 	totalBusyTime 	0
scalar IntersectionExampleScenario.node[14].veinsmobility 	startTime 	46.75
scalar IntersectionExampleScenario.node[14].veinsmobility 	totalTime 	56
scalar IntersectionExampleScenario.node[14].veinsmobility 	stopTime 	103
scalar IntersectionExampleScenario.node[14].veinsmobility 	minSpeed 	0
scalar IntersectionExampleScenario.node[14].veinsmobility 	maxSpeed 	15.375
scalar IntersectionExampleScenario.node[14].veinsmobility 	totalDistance 	574.12035018665
scalar IntersectionExampleScenario.node[14].veinsmobility 	totalCO2Emission 	149.79605963742
scalar IntersectionExampleScenario.node[21].appl 	VehicleRemoved 	0
scalar IntersectionExampleScenario.node[21].appl 	ArrivedAtDest 	1
scalar IntersectionExampleScenario.node[21].appl 	IntersectionEnterTime 	59.25
scalar IntersectionExampleScenario.node[21].appl 	IntersectionExitTime 	89.046998389036
scalar IntersectionExampleScenario.node[21].appl 	NumberOfCollisions 	0
scalar IntersectionExampleScenario.node[21].nic.phy80211p 	busyTime 	0
scalar IntersectionExampleScenario.node[21].nic.mac1609_4 	ReceivedUnicastPackets 	0
scalar IntersectionExampleScenario.node[21].nic.mac1609_4 	ReceivedBroadcasts 	0
scalar IntersectionExampleScenario.node[21].nic.mac1609_4 	SentPackets 	0
scalar IntersectionExampleScenario.node[21].nic.mac1609_4 	SNIRLostPackets 	0
scalar IntersectionExampleScenario.node[21].nic.mac1609_4 	RXTXLostPackets 	0
scalar IntersectionExampleScenario.node[21].nic.mac1609_4 	TotalLostPackets 	0
scalar IntersectionExampleScenario.node[21].nic.mac1609_4 	DroppedPacketsInMac 	0
scalar IntersectionExampleScenario.node[21].nic.mac1609_4 	TooLittleTime 	0
scalar IntersectionExampleScenario.node[21].nic.mac1609_4 	TimesIntoBackoff 	0
scalar IntersectionExampleScenario.node[21].nic.mac1609_4 	SlotsBackoff 	0
scalar IntersectionExampleScenario.node[21].nic.mac1609_4 	NumInternalContention 	0
scalar IntersectionExampleScenario.node[21].nic.mac1609_4 	totalBusyTime 	0
scalar IntersectionExampleScenario.node[21].veinsmobility 	startTime 	59.25
scalar IntersectionExampleScenario.node[21].veinsmobility 	totalTime 	46.5
scalar IntersectionExampleScenario.node[21].veinsmobility 	stopTime 	106
scalar IntersectionExampleScenario.node[21].veinsmobility 	minSpeed 	0
scalar IntersectionExampleScenario.node[21].veinsmobility 	maxSpeed 	15.25
scalar IntersectionExampleScenario.node[21].veinsmobility 	totalDistance 	544.21326839649
scalar IntersectionExampleScenario.node[21].veinsmobility 	totalCO2Emission 	149.55544240273
scalar IntersectionExampleScenario.node[22].appl 	VehicleRemoved 	0
scalar IntersectionExampleScenario.node[22].appl 	ArrivedAtDest 	1
scalar IntersectionExampleScenario.node[22].appl 	IntersectionEnterTime 	61
scalar IntersectionExampleScenario.node[22].appl 	IntersectionExitTime 	90.357018931274
scalar IntersectionExampleScenario.node[22].appl 	NumberOfCollisions 	0
scalar IntersectionExampleScenario.node[22].nic.phy80211p 	busyTime 	0
scalar IntersectionExampleScenario.node[22].nic.mac1609_4 	ReceivedUnicastPackets 	0
scalar IntersectionExampleScenario.node[22].nic.mac1609_4 	ReceivedBroadcasts 	0
scalar IntersectionExampleScenario.node[22].nic.mac1609_4 	SentPackets 	0
scalar IntersectionExampleScenario.node[22].nic.mac1609_4 	SNIRLostPackets 	0
scalar IntersectionExampleScenario.node[22].nic.mac1609_4 	RXTXLostPackets 	0
scalar IntersectionExampleScenario.node[22].nic.mac1609_4 	TotalLostPackets 	0
scalar IntersectionExampleScenario.node[22].nic.mac1609_4 	DroppedPacketsInMac 	0
scalar IntersectionExampleScenario.node[22].nic.mac1609_4 	TooLittleTime 	0
scalar IntersectionExampleScenario.node[22].nic.mac1609_4 	TimesIntoBackoff 	0
scalar IntersectionExampleScenario.node[22].nic.mac1609_4 	SlotsBackoff 	0
scalar IntersectionExampleScenario.node[22].nic.mac1609_4 	NumInternalContention 	0
scalar IntersectionExampleScenario.node[22].nic.mac1609_4 	totalBusyTime 	0
scalar IntersectionExampleScenario.node[22].veinsmobility 	startTime 	61
scalar IntersectionExampleScenario.node[22].veinsmobility 	totalTime 	45.5
scalar IntersectionExampleScenario.node[22].veinsmobility 	stopTime 	106.75
scalar IntersectionExampleScenario.node[22].veinsmobility 	minSpeed 	2.2804670333862
scalar IntersectionExampleScenario.node[22].veinsmobility 	maxSpeed 	15.5
scalar IntersectionExampleScenario.node[22].veinsmobility 	totalDistance 	573.87512207031
scalar IntersectionExampleScenario.node[22].veinsmobility 	totalCO2Emission 	141.09576380587
scalar IntersectionExampleScenario.node[24].appl 	VehicleRemoved 	0
scalar IntersectionExampleScenario.node[24].appl 	ArrivedAtDest 	1
scalar IntersectionExampleScenario.node[24].appl 	IntersectionEnterTime 	65.5
scalar IntersectionExampleScenario.node[24].appl 	IntersectionExitTime 	92.290793199645
scalar IntersectionExampleScenario.node[24].appl 	NumberOfCollisions 	0
scalar IntersectionExampleScenario.node[24].nic.phy80211p 	busyTime 	0
scalar IntersectionExampleScenario.node[24].nic.mac1609_4 	ReceivedUnicastPackets 	0
scalar IntersectionExampleScenario.node[24].nic.mac1609_4 	ReceivedBroadcasts 	0
scalar IntersectionExampleScenario.node[24].nic.mac1609_4 	SentPackets 	0
scalar IntersectionExampleScenario.node[24].nic.mac1609_4 	SNIRLostPackets 	0
scalar IntersectionExampleScenario.node[24].nic.mac1609_4 	RXTXLostPackets 	0
scalar IntersectionExampleScenario.node[24].nic.mac1609_4 	TotalLostPackets 	0
scalar IntersectionExampleScenario.node[24].nic.mac1609_4 	DroppedPacketsInMac 	0
scalar IntersectionExampleScenario.node[24].nic.mac1609_4 	TooLittleTime 	0
scalar IntersectionExampleScenario.node[24].nic.mac1609_4 	TimesIntoBackoff 	0
scalar IntersectionExampleScenario.node[24].nic.mac1609_4 	SlotsBackoff 	0
scalar IntersectionExampleScenario.node[24].nic.mac1609_4 	NumInternalContention 	0
scalar IntersectionExampleScenario.node[24].nic.mac1609_4 	totalBusyTime 	0
scalar IntersectionExampleScenario.node[24].veinsmobility 	startTime 	65.5
scalar IntersectionExampleScenario.node[24].veinsmobility 	totalTime 	43.5
scalar IntersectionExampleScenario.node[24].veinsmobility 	stopTime 	109.25
scalar IntersectionExampleScenario.node[24].veinsmobility 	minSpeed 	5.6500000953674
scalar IntersectionExampleScenario.node[24].veinsmobility 	maxSpeed 	15.02499961853
scalar IntersectionExampleScenario.node[24].veinsmobility 	totalDistance 	566.34591674805
scalar IntersectionExampleScenario.node[24].veinsmobility 	totalCO2Emission 	123.93471315022
scalar IntersectionExampleScenario.node[27].appl 	VehicleRemoved 	0
scalar IntersectionExampleScenario.node[27].appl 	ArrivedAtDest 	1
scalar IntersectionExampleScenario.node[27].appl 	IntersectionEnterTime 	71.25
scalar IntersectionExampleScenario.node[27].appl 	IntersectionExitTime 	95.028616946656
scalar IntersectionExampleScenario.node[27].appl 	NumberOfCollisions 	0
scalar IntersectionExampleScenario.node[27].nic.phy80211p 	busyTime 	0
scalar IntersectionExampleScenario.node[27].nic.mac1609_4 	ReceivedUnicastPackets 	0
scalar IntersectionExampleScenario.node[27].nic.mac1609_4 	ReceivedBroadcasts 	0
scalar IntersectionExampleScenario.node[27].nic.mac1609_4 	SentPackets 	0
scalar IntersectionExampleScenario.node[27].nic.mac1609_4 	SNIRLostPackets 	0
scalar IntersectionExampleScenario.node[27].nic.mac1609_4 	RXTXLostPackets 	0
scalar IntersectionExampleScenario.node[27].nic.mac1609_4 	TotalLostPackets 	0
scalar IntersectionExampleScenario.node[27].nic.mac1609_4 	DroppedPacketsInMac 	0
scalar IntersectionExampleScenario.node[27].nic.mac1609_4 	TooLittleTime 	0
scalar IntersectionExampleScenario.node[27].nic.mac1609_4 	TimesIntoBackoff 	0
scalar IntersectionExampleScenario.node[27].nic.mac1609_4 	SlotsBackoff 	0
scalar IntersectionExampleScenario.node[27].nic.mac1609_4 	NumInternalContention 	0
scalar IntersectionExampleScenario.node[27].nic.mac1609_4 	totalBusyTime 	0
scalar IntersectionExampleScenario.node[27].veinsmobility 	startTime 	71.25
scalar IntersectionExampleScenario.node[27].veinsmobility 	totalTime 	40.5
scalar IntersectionExampleScenario.node[27].veinsmobility 	stopTime 	112
scalar IntersectionExampleScenario.node[27].veinsmobility 	minSpeed 	5.6500000953674
scalar IntersectionExampleScenario.node[27].veinsmobility 	maxSpeed 	15.25
scalar IntersectionExampleScenario.node[27].veinsmobility 	totalDistance 	543.14953633273
scalar IntersectionExampleScenario.node[27].veinsmobility 	totalCO2Emission 	124.83509642737
scalar IntersectionExampleScenario.node[28].appl 	VehicleRemoved 	0
scalar IntersectionExampleScenario.node[28].appl 	ArrivedAtDest 	1
scalar IntersectionExampleScenario.node[28].appl 	IntersectionEnterTime 	73
scalar IntersectionExampleScenario.node[28].appl 	IntersectionExitTime 	96.866258159163
scalar IntersectionExampleScenario.node[28].appl 	NumberOfCollisions 	0
scalar IntersectionExampleScenario.node[28].nic.phy80211p 	busyTime 	0
scalar IntersectionExampleScenario.node[28].nic.mac1609_4 	ReceivedUnicastPackets 	0
scalar IntersectionExampleScenario.node[28].nic.mac1609_4 	ReceivedBroadcasts 	0
scalar IntersectionExampleScenario.node[28].nic.mac1609_4 	SentPackets 	0
scalar IntersectionExampleScenario.node[28].nic.mac1609_4 	SNIRLostPackets 	0
scalar IntersectionExampleScenario.node[28].nic.mac1609_4 	RXTXLostPackets 	0
scalar IntersectionExampleScenario.node[28].nic.mac1609_4 	TotalLostPackets 	0
scalar IntersectionExampleScenario.node[28].nic.mac1609_4 	DroppedPacketsInMac 	0
scalar IntersectionExampleScenario.node[28].nic.mac1609_4 	TooLittleTime 	0
scalar IntersectionExampleScenario.node[28].nic.mac1609_4 	TimesIntoBackoff 	0
scalar IntersectionExampleScenario.node[28].nic.mac1609_4 	SlotsBackoff 	0
scalar IntersectionExampleScenario.node[28].nic.mac1609_4 	NumInternalContention 	0
scalar IntersectionExampleScenario.node[28].nic.mac1609_4 	totalBusyTime 	0
scalar IntersectionExampleScenario.node[28].veinsmobility 	startTime 	73
scalar IntersectionExampleScenario.node[28].veinsmobility 	totalTime 	39.5
scalar IntersectionExampleScenario.node[28].veinsmobility 	stopTime 	112.75
scalar IntersectionExampleScenario.node[28].veinsmobility 	minSpeed 	5.6500000953674
scalar IntersectionExampleScenario.node[28].veinsmobility 	maxSpeed 	15.588316917419
scalar IntersectionExampleScenario.node[28].veinsmobility 	totalDistance 	566.59083557129
scalar IntersectionExampleScenario.node[28].veinsmobility 	totalCO2Emission 	120.43212514981
scalar IntersectionExampleScenario.node[26].appl 	VehicleRemoved 	0
scalar IntersectionExampleScenario.node[26].appl 	ArrivedAtDest 	1
scalar IntersectionExampleScenario.node[26].appl 	IntersectionEnterTime 	69.25
scalar IntersectionExampleScenario.node[26].appl 	IntersectionExitTime 	95.3000724226
scalar IntersectionExampleScenario.node[26].appl 	NumberOfCollisions 	0
scalar IntersectionExampleScenario.node[26].nic.phy80211p 	busyTime 	0
scalar IntersectionExampleScenario.node[26].nic.mac1609_4 	ReceivedUnicastPackets 	0
scalar IntersectionExampleScenario.node[26].nic.mac1609_4 	ReceivedBroadcasts 	0
scalar IntersectionExampleScenario.node[26].nic.mac1609_4 	SentPackets 	0
scalar IntersectionExampleScenario.node[26].nic.mac1609_4 	SNIRLostPackets 	0
scalar IntersectionExampleScenario.node[26].nic.mac1609_4 	RXTXLostPackets 	0
scalar IntersectionExampleScenario.node[26].nic.mac1609_4 	TotalLostPackets 	0
scalar IntersectionExampleScenario.node[26].nic.mac1609_4 	DroppedPacketsInMac 	0
scalar IntersectionExampleScenario.node[26].nic.mac1609_4 	TooLittleTime 	0
scalar IntersectionExampleScenario.node[26].nic.mac1609_4 	TimesIntoBackoff 	0
scalar IntersectionExampleScenario.node[26].nic.mac1609_4 	SlotsBackoff 	0
scalar IntersectionExampleScenario.node[26].nic.mac1609_4 	NumInternalContention 	0
scalar IntersectionExampleScenario.node[26].nic.mac1609_4 	totalBusyTime 	0
scalar IntersectionExampleScenario.node[26].veinsmobility 	startTime 	69.25
scalar IntersectionExampleScenario.node[26].veinsmobility 	totalTime 	43.25
scalar IntersectionExampleScenario.node[26].veinsmobility 	stopTime 	112.75
scalar IntersectionExampleScenario.node[26].veinsmobility 	minSpeed 	5.6500000953674
scalar IntersectionExampleScenario.node[26].veinsmobility 	maxSpeed 	15.25
scalar IntersectionExampleScenario.node[26].veinsmobility 	totalDistance 	560.95727190569
scalar IntersectionExampleScenario.node[26].veinsmobility 	totalCO2Emission 	133.52975974717
scalar IntersectionExampleScenario.node[31].appl 	VehicleRemoved 	0
scalar IntersectionExampleScenario.node[31].appl 	ArrivedAtDest 	1
scalar IntersectionExampleScenario.node[31].appl 	IntersectionEnterTime 	77.5
scalar IntersectionExampleScenario.node[31].appl 	IntersectionExitTime 	101.80578630927
scalar IntersectionExampleScenario.node[31].appl 	NumberOfCollisions 	0
scalar IntersectionExampleScenario.node[31].nic.phy80211p 	busyTime 	0
scalar IntersectionExampleScenario.node[31].nic.mac1609_4 	ReceivedUnicastPackets 	0
scalar IntersectionExampleScenario.node[31].nic.mac1609_4 	ReceivedBroadcasts 	0
scalar IntersectionExampleScenario.node[31].nic.mac1609_4 	SentPackets 	0
scalar IntersectionExampleScenario.node[31].nic.mac1609_4 	SNIRLostPackets 	0
scalar IntersectionExampleScenario.node[31].nic.mac1609_4 	RXTXLostPackets 	0
scalar IntersectionExampleScenario.node[31].nic.mac1609_4 	TotalLostPackets 	0
scalar IntersectionExampleScenario.node[31].nic.mac1609_4 	DroppedPacketsInMac 	0
scalar IntersectionExampleScenario.node[31].nic.mac1609_4 	TooLittleTime 	0
scalar IntersectionExampleScenario.node[31].nic.mac1609_4 	TimesIntoBackoff 	0
scalar IntersectionExampleScenario.node[31].nic.mac1609_4 	SlotsBackoff 	0
scalar IntersectionExampleScenario.node[31].nic.mac1609_4 	NumInternalContention 	0
scalar IntersectionExampleScenario.node[31].nic.mac1609_4 	totalBusyTime 	0
scalar IntersectionExampleScenario.node[31].veinsmobility 	startTime 	77.5
scalar IntersectionExampleScenario.node[31].veinsmobility 	totalTime 	39.25
scalar IntersectionExampleScenario.node[31].veinsmobility 	stopTime 	117
scalar IntersectionExampleScenario.node[31].veinsmobility 	minSpeed 	5.6500000953674
scalar IntersectionExampleScenario.node[31].veinsmobility 	maxSpeed 	16.705007553101
scalar IntersectionExampleScenario.node[31].veinsmobility 	totalDistance 	574.04513549805
scalar IntersectionExampleScenario.node[31].veinsmobility 	totalCO2Emission 	138.85365600016
scalar IntersectionExampleScenario.node[23].appl 	VehicleRemoved 	0
scalar IntersectionExampleScenario.node[23].appl 	ArrivedAtDest 	1
scalar IntersectionExampleScenario.node[23].appl 	IntersectionEnterTime 	61.25
scalar IntersectionExampleScenario.node[23].appl 	IntersectionExitTime 	100.50183175947
scalar IntersectionExampleScenario.node[23].appl 	NumberOfCollisions 	0
scalar IntersectionExampleScenario.node[23].nic.phy80211p 	busyTime 	0
scalar IntersectionExampleScenario.node[23].nic.mac1609_4 	ReceivedUnicastPackets 	0
scalar IntersectionExampleScenario.node[23].nic.mac1609_4 	ReceivedBroadcasts 	0
scalar IntersectionExampleScenario.node[23].nic.mac1609_4 	SentPackets 	0
scalar IntersectionExampleScenario.node[23].nic.mac1609_4 	SNIRLostPackets 	0
scalar IntersectionExampleScenario.node[23].nic.mac1609_4 	RXTXLostPackets 	0
scalar IntersectionExampleScenario.node[23].nic.mac1609_4 	TotalLostPackets 	0
scalar IntersectionExampleScenario.node[23].nic.mac1609_4 	DroppedPacketsInMac 	0
scalar IntersectionExampleScenario.node[23].nic.mac1609_4 	TooLittleTime 	0
scalar IntersectionExampleScenario.node[23].nic.mac1609_4 	TimesIntoBackoff 	0
scalar IntersectionExampleScenario.node[23].nic.mac1609_4 	SlotsBackoff 	0
scalar IntersectionExampleScenario.node[23].nic.mac1609_4 	NumInternalContention 	0
scalar IntersectionExampleScenario.node[23].nic.mac1609_4 	totalBusyTime 	0
scalar IntersectionExampleScenario.node[23].veinsmobility 	startTime 	61.25
scalar IntersectionExampleScenario.node[23].veinsmobility 	totalTime 	56.25
scalar IntersectionExampleScenario.node[23].veinsmobility 	stopTime 	117.75
scalar IntersectionExampleScenario.node[23].veinsmobility 	minSpeed 	0
scalar IntersectionExampleScenario.node[23].veinsmobility 	maxSpeed 	15.25
scalar IntersectionExampleScenario.node[23].veinsmobility 	totalDistance 	543.92479611785
scalar IntersectionExampleScenario.node[23].veinsmobility 	totalCO2Emission 	145.14010192622
scalar IntersectionExampleScenario.node[25].appl 	VehicleRemoved 	0
scalar IntersectionExampleScenario.node[25].appl 	ArrivedAtDest 	1
scalar IntersectionExampleScenario.node[25].appl 	IntersectionEnterTime 	67.25
scalar IntersectionExampleScenario.node[25].appl 	IntersectionExitTime 	102.54769288766
scalar IntersectionExampleScenario.node[25].appl 	NumberOfCollisions 	0
scalar IntersectionExampleScenario.node[25].nic.phy80211p 	busyTime 	0
scalar IntersectionExampleScenario.node[25].nic.mac1609_4 	ReceivedUnicastPackets 	0
scalar IntersectionExampleScenario.node[25].nic.mac1609_4 	ReceivedBroadcasts 	0
scalar IntersectionExampleScenario.node[25].nic.mac1609_4 	SentPackets 	0
scalar IntersectionExampleScenario.node[25].nic.mac1609_4 	SNIRLostPackets 	0
scalar IntersectionExampleScenario.node[25].nic.mac1609_4 	RXTXLostPackets 	0
scalar IntersectionExampleScenario.node[25].nic.mac1609_4 	TotalLostPackets 	0
scalar IntersectionExampleScenario.node[25].nic.mac1609_4 	DroppedPacketsInMac 	0
scalar IntersectionExampleScenario.node[25].nic.mac1609_4 	TooLittleTime 	0
scalar IntersectionExampleScenario.node[25].nic.mac1609_4 	TimesIntoBackoff 	0
scalar IntersectionExampleScenario.node[25].nic.mac1609_4 	SlotsBackoff 	0
scalar IntersectionExampleScenario.node[25].nic.mac1609_4 	NumInternalContention 	0
scalar IntersectionExampleScenario.node[25].nic.mac1609_4 	totalBusyTime 	0
scalar IntersectionExampleScenario.node[25].veinsmobility 	startTime 	67.25
scalar IntersectionExampleScenario.node[25].veinsmobility 	totalTime 	51
scalar IntersectionExampleScenario.node[25].veinsmobility 	stopTime 	118.5
scalar IntersectionExampleScenario.node[25].veinsmobility 	minSpeed 	0
scalar IntersectionExampleScenario.node[25].veinsmobility 	maxSpeed 	15.678329467773
scalar IntersectionExampleScenario.node[25].veinsmobility 	totalDistance 	554.97132873535
scalar IntersectionExampleScenario.node[25].veinsmobility 	totalCO2Emission 	144.9531157831
scalar IntersectionExampleScenario.node[29].appl 	VehicleRemoved 	0
scalar IntersectionExampleScenario.node[29].appl 	ArrivedAtDest 	1
scalar IntersectionExampleScenario.node[29].appl 	IntersectionEnterTime 	76
scalar IntersectionExampleScenario.node[29].appl 	IntersectionExitTime 	102.54003868945
scalar IntersectionExampleScenario.node[29].appl 	NumberOfCollisions 	0
scalar IntersectionExampleScenario.node[29].nic.phy80211p 	busyTime 	0
scalar IntersectionExampleScenario.node[29].nic.mac1609_4 	ReceivedUnicastPackets 	0
scalar IntersectionExampleScenario.node[29].nic.mac1609_4 	ReceivedBroadcasts 	0
scalar IntersectionExampleScenario.node[29].nic.mac1609_4 	SentPackets 	0
scalar IntersectionExampleScenario.node[29].nic.mac1609_4 	SNIRLostPackets 	0
scalar IntersectionExampleScenario.node[29].nic.mac1609_4 	RXTXLostPackets 	0
scalar IntersectionExampleScenario.node[29].nic.mac1609_4 	TotalLostPackets 	0
scalar IntersectionExampleScenario.node[29].nic.mac1609_4 	DroppedPacketsInMac 	0
scalar IntersectionExampleScenario.node[29].nic.mac1609_4 	TooLittleTime 	0
scalar IntersectionExampleScenario.node[29].nic.mac1609_4 	TimesIntoBackoff 	0
scalar IntersectionExampleScenario.node[29].nic.mac1609_4 	SlotsBackoff 	0
scalar IntersectionExampleScenario.node[29].nic.mac1609_4 	NumInternalContention 	0
scalar IntersectionExampleScenario.node[29].nic.mac1609_4 	totalBusyTime 	0
scalar IntersectionExampleScenario.node[29].veinsmobility 	startTime 	76
scalar IntersectionExampleScenario.node[29].veinsmobility 	totalTime 	43.5
scalar IntersectionExampleScenario.node[29].veinsmobility 	stopTime 	119.75
scalar IntersectionExampleScenario.node[29].veinsmobility 	minSpeed 	3.2038471698761
scalar IntersectionExampleScenario.node[29].veinsmobility 	maxSpeed 	15.02499961853
scalar IntersectionExampleScenario.node[29].veinsmobility 	totalDistance 	547.87871305359
scalar IntersectionExampleScenario.node[29].veinsmobility 	totalCO2Emission 	132.52598406609
scalar IntersectionExampleScenario.node[32].appl 	VehicleRemoved 	0
scalar IntersectionExampleScenario.node[32].appl 	ArrivedAtDest 	1
scalar IntersectionExampleScenario.node[32].appl 	IntersectionEnterTime 	77.75
scalar IntersectionExampleScenario.node[32].appl 	IntersectionExitTime 	104.80988430552
scalar IntersectionExampleScenario.node[32].appl 	NumberOfCollisions 	0
scalar IntersectionExampleScenario.node[32].nic.phy80211p 	busyTime 	0
scalar IntersectionExampleScenario.node[32].nic.mac1609_4 	ReceivedUnicastPackets 	0
scalar IntersectionExampleScenario.node[32].nic.mac1609_4 	ReceivedBroadcasts 	0
scalar IntersectionExampleScenario.node[32].nic.mac1609_4 	SentPackets 	0
scalar IntersectionExampleScenario.node[32].nic.mac1609_4 	SNIRLostPackets 	0
scalar IntersectionExampleScenario.node[32].nic.mac1609_4 	RXTXLostPackets 	0
scalar IntersectionExampleScenario.node[32].nic.mac1609_4 	TotalLostPackets 	0
scalar IntersectionExampleScenario.node[32].nic.mac1609_4 	DroppedPacketsInMac 	0
scalar IntersectionExampleScenario.node[32].nic.mac1609_4 	TooLittleTime 	0
scalar IntersectionExampleScenario.node[32].nic.mac1609_4 	TimesIntoBackoff 	0
scalar IntersectionExampleScenario.node[32].nic.mac1609_4 	SlotsBackoff 	0
scalar IntersectionExampleScenario.node[32].nic.mac1609_4 	NumInternalContention 	0
scalar IntersectionExampleScenario.node[32].nic.mac1609_4 	totalBusyTime 	0
scalar IntersectionExampleScenario.node[32].veinsmobility 	startTime 	77.75
scalar IntersectionExampleScenario.node[32].veinsmobility 	totalTime 	43.5
scalar IntersectionExampleScenario.node[32].veinsmobility 	stopTime 	121.5
scalar IntersectionExampleScenario.node[32].veinsmobility 	minSpeed 	5.6500000953674
scalar IntersectionExampleScenario.node[32].veinsmobility 	maxSpeed 	15.64999961853
scalar IntersectionExampleScenario.node[32].veinsmobility 	totalDistance 	546.19775954552
scalar IntersectionExampleScenario.node[32].veinsmobility 	totalCO2Emission 	140.34913951049
scalar IntersectionExampleScenario.node[33].appl 	VehicleRemoved 	0
scalar IntersectionExampleScenario.node[33].appl 	ArrivedAtDest 	1
scalar IntersectionExampleScenario.node[33].appl 	IntersectionEnterTime 	82.5
scalar IntersectionExampleScenario.node[33].appl 	IntersectionExitTime 	106.7530739012
scalar IntersectionExampleScenario.node[33].appl 	NumberOfCollisions 	0
scalar IntersectionExampleScenario.node[33].nic.phy80211p 	busyTime 	0
scalar IntersectionExampleScenario.node[33].nic.mac1609_4 	ReceivedUnicastPackets 	0
scalar IntersectionExampleScenario.node[33].nic.mac1609_4 	ReceivedBroadcasts 	0
scalar IntersectionExampleScenario.node[33].nic.mac1609_4 	SentPackets 	0
scalar IntersectionExampleScenario.node[33].nic.mac1609_4 	SNIRLostPackets 	0
scalar IntersectionExampleScenario.node[33].nic.mac1609_4 	RXTXLostPackets 	0
scalar IntersectionExampleScenario.node[33].nic.mac1609_4 	TotalLostPackets 	0
scalar IntersectionExampleScenario.node[33].nic.mac1609_4 	DroppedPacketsInMac 	0
scalar IntersectionExampleScenario.node[33].nic.mac1609_4 	TooLittleTime 	0
scalar IntersectionExampleScenario.node[33].nic.mac1609_4 	TimesIntoBackoff 	0
scalar IntersectionExampleScenario.node[33].nic.mac1609_4 	SlotsBackoff 	0
scalar IntersectionExampleScenario.node[33].nic.mac1609_4 	NumInternalContention 	0
scalar IntersectionExampleScenario.node[33].nic.mac1609_4 	totalBusyTime 	0
scalar IntersectionExampleScenario.node[33].veinsmobility 	startTime 	82.5
scalar IntersectionExampleScenario.node[33].veinsmobility 	totalTime 	39.75
scalar IntersectionExampleScenario.node[33].veinsmobility 	stopTime 	122.5
scalar IntersectionExampleScenario.node[33].veinsmobility 	minSpeed 	5.6500000953674
scalar IntersectionExampleScenario.node[33].veinsmobility 	maxSpeed 	16.625
scalar IntersectionExampleScenario.node[33].veinsmobility 	totalDistance 	552.49136007985
scalar IntersectionExampleScenario.node[33].veinsmobility 	totalCO2Emission 	139.51360808603
scalar IntersectionExampleScenario.node[35].appl 	VehicleRemoved 	0
scalar IntersectionExampleScenario.node[35].appl 	ArrivedAtDest 	1
scalar IntersectionExampleScenario.node[35].appl 	IntersectionEnterTime 	83.75
scalar IntersectionExampleScenario.node[35].appl 	IntersectionExitTime 	109.57710639198
scalar IntersectionExampleScenario.node[35].appl 	NumberOfCollisions 	0
scalar IntersectionExampleScenario.node[35].nic.phy80211p 	busyTime 	0
scalar IntersectionExampleScenario.node[35].nic.mac1609_4 	ReceivedUnicastPackets 	0
scalar IntersectionExampleScenario.node[35].nic.mac1609_4 	ReceivedBroadcasts 	0
scalar IntersectionExampleScenario.node[35].nic.mac1609_4 	SentPackets 	0
scalar IntersectionExampleScenario.node[35].nic.mac1609_4 	SNIRLostPackets 	0
scalar IntersectionExampleScenario.node[35].nic.mac1609_4 	RXTXLostPackets 	0
scalar IntersectionExampleScenario.node[35].nic.mac1609_4 	TotalLostPackets 	0
scalar IntersectionExampleScenario.node[35].nic.mac1609_4 	DroppedPacketsInMac 	0
scalar IntersectionExampleScenario.node[35].nic.mac1609_4 	TooLittleTime 	0
scalar IntersectionExampleScenario.node[35].nic.mac1609_4 	TimesIntoBackoff 	0
scalar IntersectionExampleScenario.node[35].nic.mac1609_4 	SlotsBackoff 	0
scalar IntersectionExampleScenario.node[35].nic.mac1609_4 	NumInternalContention 	0
scalar IntersectionExampleScenario.node[35].nic.mac1609_4 	totalBusyTime 	0
scalar IntersectionExampleScenario.node[35].veinsmobility 	startTime 	83.75
scalar IntersectionExampleScenario.node[35].veinsmobility 	totalTime 	42.25
scalar IntersectionExampleScenario.node[35].veinsmobility 	stopTime 	126.25
scalar IntersectionExampleScenario.node[35].veinsmobility 	minSpeed 	5.6500000953674
scalar IntersectionExampleScenario.node[35].veinsmobility 	maxSpeed 	15.875
scalar IntersectionExampleScenario.node[35].veinsmobility 	totalDistance 	564.75319134457
scalar IntersectionExampleScenario.node[35].veinsmobility 	totalCO2Emission 	134.18180749911
scalar IntersectionExampleScenario.node[36].appl 	VehicleRemoved 	0
scalar IntersectionExampleScenario.node[36].appl 	ArrivedAtDest 	1
scalar IntersectionExampleScenario.node[36].appl 	IntersectionEnterTime 	85.25
scalar IntersectionExampleScenario.node[36].appl 	IntersectionExitTime 	111.01972147438
scalar IntersectionExampleScenario.node[36].appl 	NumberOfCollisions 	0
scalar IntersectionExampleScenario.node[36].nic.phy80211p 	busyTime 	0
scalar IntersectionExampleScenario.node[36].nic.mac1609_4 	ReceivedUnicastPackets 	0
scalar IntersectionExampleScenario.node[36].nic.mac1609_4 	ReceivedBroadcasts 	0
scalar IntersectionExampleScenario.node[36].nic.mac1609_4 	SentPackets 	0
scalar IntersectionExampleScenario.node[36].nic.mac1609_4 	SNIRLostPackets 	0
scalar IntersectionExampleScenario.node[36].nic.mac1609_4 	RXTXLostPackets 	0
scalar IntersectionExampleScenario.node[36].nic.mac1609_4 	TotalLostPackets 	0
scalar IntersectionExampleScenario.node[36].nic.mac1609_4 	DroppedPacketsInMac 	0
scalar IntersectionExampleScenario.node[36].nic.mac1609_4 	TooLittleTime 	0
scalar IntersectionExampleScenario.node[36].nic.mac1609_4 	TimesIntoBackoff 	0
scalar IntersectionExampleScenario.node[36].nic.mac1609_4 	SlotsBackoff 	0
scalar IntersectionExampleScenario.node[36].nic.mac1609_4 	NumInternalContention 	0
scalar IntersectionExampleScenario.node[36].nic.mac1609_4 	totalBusyTime 	0
scalar IntersectionExampleScenario.node[36].veinsmobility 	startTime 	85.25
scalar IntersectionExampleScenario.node[36].veinsmobility 	totalTime 	41.75
scalar IntersectionExampleScenario.node[36].veinsmobility 	stopTime 	127.25
scalar IntersectionExampleScenario.node[36].veinsmobility 	minSpeed 	5.6500000953674
scalar IntersectionExampleScenario.node[36].veinsmobility 	maxSpeed 	15.723797798157
scalar IntersectionExampleScenario.node[36].veinsmobility 	totalDistance 	583.59881591797
scalar IntersectionExampleScenario.node[36].veinsmobility 	totalCO2Emission 	129.49729096489
scalar IntersectionExampleScenario.node[30].appl 	VehicleRemoved 	0
scalar IntersectionExampleScenario.node[30].appl 	ArrivedAtDest 	1
scalar IntersectionExampleScenario.node[30].appl 	IntersectionEnterTime 	76.5
scalar IntersectionExampleScenario.node[30].appl 	IntersectionExitTime 	121.29413200455
scalar IntersectionExampleScenario.node[30].appl 	NumberOfCollisions 	0
scalar IntersectionExampleScenario.node[30].nic.phy80211p 	busyTime 	0
scalar IntersectionExampleScenario.node[30].nic.mac1609_4 	ReceivedUnicastPackets 	0
scalar IntersectionExampleScenario.node[30].nic.mac1609_4 	ReceivedBroadcasts 	0
scalar IntersectionExampleScenario.node[30].nic.mac1609_4 	SentPackets 	0
scalar IntersectionExampleScenario.node[30].nic.mac1609_4 	SNIRLostPackets 	0
scalar IntersectionExampleScenario.node[30].nic.mac1609_4 	RXTXLostPackets 	0
scalar IntersectionExampleScenario.node[30].nic.mac1609_4 	TotalLostPackets 	0
scalar IntersectionExampleScenario.node[30].nic.mac1609_4 	DroppedPacketsInMac 	0
scalar IntersectionExampleScenario.node[30].nic.mac1609_4 	TooLittleTime 	0
scalar IntersectionExampleScenario.node[30].nic.mac1609_4 	TimesIntoBackoff 	0
scalar IntersectionExampleScenario.node[30].nic.mac1609_4 	SlotsBackoff 	0
scalar IntersectionExampleScenario.node[30].nic.mac1609_4 	NumInternalContention 	0
scalar IntersectionExampleScenario.node[30].nic.mac1609_4 	totalBusyTime 	0
scalar IntersectionExampleScenario.node[30].veinsmobility 	startTime 	76.5
scalar IntersectionExampleScenario.node[30].veinsmobility 	totalTime 	61
scalar IntersectionExampleScenario.node[30].veinsmobility 	stopTime 	137.75
scalar IntersectionExampleScenario.node[30].veinsmobility 	minSpeed 	0
scalar IntersectionExampleScenario.node[30].veinsmobility 	maxSpeed 	15.375
scalar IntersectionExampleScenario.node[30].veinsmobility 	totalDistance 	549.86316026797
scalar IntersectionExampleScenario.node[30].veinsmobility 	totalCO2Emission 	153.18931912312
scalar IntersectionExampleScenario.node[34].appl 	VehicleRemoved 	0
scalar IntersectionExampleScenario.node[34].appl 	ArrivedAtDest 	1
scalar IntersectionExampleScenario.node[34].appl 	IntersectionEnterTime 	82.75
scalar IntersectionExampleScenario.node[34].appl 	IntersectionExitTime 	122.36897531105
scalar IntersectionExampleScenario.node[34].appl 	NumberOfCollisions 	0
scalar IntersectionExampleScenario.node[34].nic.phy80211p 	busyTime 	0
scalar IntersectionExampleScenario.node[34].nic.mac1609_4 	ReceivedUnicastPackets 	0
scalar IntersectionExampleScenario.node[34].nic.mac1609_4 	ReceivedBroadcasts 	0
scalar IntersectionExampleScenario.node[34].nic.mac1609_4 	SentPackets 	0
scalar IntersectionExampleScenario.node[34].nic.mac1609_4 	SNIRLostPackets 	0
scalar IntersectionExampleScenario.node[34].nic.mac1609_4 	RXTXLostPackets 	0
scalar IntersectionExampleScenario.node[34].nic.mac1609_4 	TotalLostPackets 	0
scalar IntersectionExampleScenario.node[34].nic.mac1609_4 	DroppedPacketsInMac 	0
scalar IntersectionExampleScenario.node[34].nic.mac1609_4 	TooLittleTime 	0
scalar IntersectionExampleScenario.node[34].nic.mac1609_4 	TimesIntoBackoff 	0
scalar IntersectionExampleScenario.node[34].nic.mac1609_4 	SlotsBackoff 	0
scalar IntersectionExampleScenario.node[34].nic.mac1609_4 	NumInternalContention 	0
scalar IntersectionExampleScenario.node[34].nic.mac1609_4 	totalBusyTime 	0
scalar IntersectionExampleScenario.node[34].veinsmobility 	startTime 	82.75
scalar IntersectionExampleScenario.node[34].veinsmobility 	totalTime 	56.25
scalar IntersectionExampleScenario.node[34].veinsmobility 	stopTime 	139.25
scalar IntersectionExampleScenario.node[34].veinsmobility 	minSpeed 	0
scalar IntersectionExampleScenario.node[34].veinsmobility 	maxSpeed 	15.25
scalar IntersectionExampleScenario.node[34].veinsmobility 	totalDistance 	545.89381193622
scalar IntersectionExampleScenario.node[34].veinsmobility 	totalCO2Emission 	145.69678507753
scalar IntersectionExampleScenario.node[37].appl 	VehicleRemoved 	0
scalar IntersectionExampleScenario.node[37].appl 	ArrivedAtDest 	1
scalar IntersectionExampleScenario.node[37].appl 	IntersectionEnterTime 	85.75
scalar IntersectionExampleScenario.node[37].appl 	IntersectionExitTime 	123.56283741421
scalar IntersectionExampleScenario.node[37].appl 	NumberOfCollisions 	0
scalar IntersectionExampleScenario.node[37].nic.phy80211p 	busyTime 	0
scalar IntersectionExampleScenario.node[37].nic.mac1609_4 	ReceivedUnicastPackets 	0
scalar IntersectionExampleScenario.node[37].nic.mac1609_4 	ReceivedBroadcasts 	0
scalar IntersectionExampleScenario.node[37].nic.mac1609_4 	SentPackets 	0
scalar IntersectionExampleScenario.node[37].nic.mac1609_4 	SNIRLostPackets 	0
scalar IntersectionExampleScenario.node[37].nic.mac1609_4 	RXTXLostPackets 	0
scalar IntersectionExampleScenario.node[37].nic.mac1609_4 	TotalLostPackets 	0
scalar IntersectionExampleScenario.node[37].nic.mac1609_4 	DroppedPacketsInMac 	0
scalar IntersectionExampleScenario.node[37].nic.mac1609_4 	TooLittleTime 	0
scalar IntersectionExampleScenario.node[37].nic.mac1609_4 	TimesIntoBackoff 	0
scalar IntersectionExampleScenario.node[37].nic.mac1609_4 	SlotsBackoff 	0
scalar IntersectionExampleScenario.node[37].nic.mac1609_4 	NumInternalContention 	0
scalar IntersectionExampleScenario.node[37].nic.mac1609_4 	totalBusyTime 	0
scalar IntersectionExampleScenario.node[37].veinsmobility 	startTime 	85.75
scalar IntersectionExampleScenario.node[37].veinsmobility 	totalTime 	54.75
scalar IntersectionExampleScenario.node[37].veinsmobility 	stopTime 	140.75
scalar IntersectionExampleScenario.node[37].veinsmobility 	minSpeed 	0
scalar IntersectionExampleScenario.node[37].veinsmobility 	maxSpeed 	15.25
scalar IntersectionExampleScenario.node[37].veinsmobility 	totalDistance 	546.31401209192
scalar IntersectionExampleScenario.node[37].veinsmobility 	totalCO2Emission 	144.16533523574
scalar IntersectionExampleScenario.node[38].appl 	VehicleRemoved 	0
scalar IntersectionExampleScenario.node[38].appl 	ArrivedAtDest 	1
scalar IntersectionExampleScenario.node[38].appl 	IntersectionEnterTime 	88
scalar IntersectionExampleScenario.node[38].appl 	IntersectionExitTime 	124.55043881747
scalar IntersectionExampleScenario.node[38].appl 	NumberOfCollisions 	0
scalar IntersectionExampleScenario.node[38].nic.phy80211p 	busyTime 	0
scalar IntersectionExampleScenario.node[38].nic.mac1609_4 	ReceivedUnicastPackets 	0
scalar IntersectionExampleScenario.node[38].nic.mac1609_4 	ReceivedBroadcasts 	0
scalar IntersectionExampleScenario.node[38].nic.mac1609_4 	SentPackets 	0
scalar IntersectionExampleScenario.node[38].nic.mac1609_4 	SNIRLostPackets 	0
scalar IntersectionExampleScenario.node[38].nic.mac1609_4 	RXTXLostPackets 	0
scalar IntersectionExampleScenario.node[38].nic.mac1609_4 	TotalLostPackets 	0
scalar IntersectionExampleScenario.node[38].nic.mac1609_4 	DroppedPacketsInMac 	0
scalar IntersectionExampleScenario.node[38].nic.mac1609_4 	TooLittleTime 	0
scalar IntersectionExampleScenario.node[38].nic.mac1609_4 	TimesIntoBackoff 	0
scalar IntersectionExampleScenario.node[38].nic.mac1609_4 	SlotsBackoff 	0
scalar IntersectionExampleScenario.node[38].nic.mac1609_4 	NumInternalContention 	0
scalar IntersectionExampleScenario.node[38].nic.mac1609_4 	totalBusyTime 	0
scalar IntersectionExampleScenario.node[38].veinsmobility 	startTime 	88
scalar IntersectionExampleScenario.node[38].veinsmobility 	totalTime 	53.25
scalar IntersectionExampleScenario.node[38].veinsmobility 	stopTime 	141.5
scalar IntersectionExampleScenario.node[38].veinsmobility 	minSpeed 	1.322585105896
scalar IntersectionExampleScenario.node[38].veinsmobility 	maxSpeed 	14.875
scalar IntersectionExampleScenario.node[38].veinsmobility 	totalDistance 	551.4172744751
scalar IntersectionExampleScenario.node[38].veinsmobility 	totalCO2Emission 	134.13292492747
scalar IntersectionExampleScenario.node[39].appl 	VehicleRemoved 	0
scalar IntersectionExampleScenario.node[39].appl 	ArrivedAtDest 	1
scalar IntersectionExampleScenario.node[39].appl 	IntersectionEnterTime 	91.5
scalar IntersectionExampleScenario.node[39].appl 	IntersectionExitTime 	127.0730966721
scalar IntersectionExampleScenario.node[39].appl 	NumberOfCollisions 	0
scalar IntersectionExampleScenario.node[39].nic.phy80211p 	busyTime 	0
scalar IntersectionExampleScenario.node[39].nic.mac1609_4 	ReceivedUnicastPackets 	0
scalar IntersectionExampleScenario.node[39].nic.mac1609_4 	ReceivedBroadcasts 	0
scalar IntersectionExampleScenario.node[39].nic.mac1609_4 	SentPackets 	0
scalar IntersectionExampleScenario.node[39].nic.mac1609_4 	SNIRLostPackets 	0
scalar IntersectionExampleScenario.node[39].nic.mac1609_4 	RXTXLostPackets 	0
scalar IntersectionExampleScenario.node[39].nic.mac1609_4 	TotalLostPackets 	0
scalar IntersectionExampleScenario.node[39].nic.mac1609_4 	DroppedPacketsInMac 	0
scalar IntersectionExampleScenario.node[39].nic.mac1609_4 	TooLittleTime 	0
scalar IntersectionExampleScenario.node[39].nic.mac1609_4 	TimesIntoBackoff 	0
scalar IntersectionExampleScenario.node[39].nic.mac1609_4 	SlotsBackoff 	0
[...]
scalar IntersectionExampleScenario.node[670].veinsmobility 	totalCO2Emission 	103.24188737171
scalar IntersectionExampleScenario.node[671].appl 	VehicleRemoved 	0
scalar IntersectionExampleScenario.node[671].appl 	ArrivedAtDest 	0
scalar IntersectionExampleScenario.node[671].appl 	IntersectionEnterTime 	1775.25
scalar IntersectionExampleScenario.node[671].appl 	IntersectionExitTime 	-1
scalar IntersectionExampleScenario.node[671].appl 	NumberOfCollisions 	0
scalar IntersectionExampleScenario.node[671].nic.phy80211p 	busyTime 	0
scalar IntersectionExampleScenario.node[671].nic.mac1609_4 	ReceivedUnicastPackets 	0
scalar IntersectionExampleScenario.node[671].nic.mac1609_4 	ReceivedBroadcasts 	0
scalar IntersectionExampleScenario.node[671].nic.mac1609_4 	SentPackets 	0
scalar IntersectionExampleScenario.node[671].nic.mac1609_4 	SNIRLostPackets 	0
scalar IntersectionExampleScenario.node[671].nic.mac1609_4 	RXTXLostPackets 	0
scalar IntersectionExampleScenario.node[671].nic.mac1609_4 	TotalLostPackets 	0
scalar IntersectionExampleScenario.node[671].nic.mac1609_4 	DroppedPacketsInMac 	0
scalar IntersectionExampleScenario.node[671].nic.mac1609_4 	TooLittleTime 	0
scalar IntersectionExampleScenario.node[671].nic.mac1609_4 	TimesIntoBackoff 	0
scalar IntersectionExampleScenario.node[671].nic.mac1609_4 	SlotsBackoff 	0
scalar IntersectionExampleScenario.node[671].nic.mac1609_4 	NumInternalContention 	0
scalar IntersectionExampleScenario.node[671].nic.mac1609_4 	totalBusyTime 	0
scalar IntersectionExampleScenario.node[671].veinsmobility 	startTime 	1775.25
scalar IntersectionExampleScenario.node[671].veinsmobility 	totalTime 	24.75
scalar IntersectionExampleScenario.node[671].veinsmobility 	stopTime 	1800
scalar IntersectionExampleScenario.node[671].veinsmobility 	minSpeed 	0
scalar IntersectionExampleScenario.node[671].veinsmobility 	maxSpeed 	15.493929862976
scalar IntersectionExampleScenario.node[671].veinsmobility 	totalDistance 	287.42188262939
scalar IntersectionExampleScenario.node[671].veinsmobility 	totalCO2Emission 	68.755947907162
scalar IntersectionExampleScenario.node[672].appl 	VehicleRemoved 	0
scalar IntersectionExampleScenario.node[672].appl 	ArrivedAtDest 	0
scalar IntersectionExampleScenario.node[672].appl 	IntersectionEnterTime 	1777.75
scalar IntersectionExampleScenario.node[672].appl 	IntersectionExitTime 	-1
scalar IntersectionExampleScenario.node[672].appl 	NumberOfCollisions 	0
scalar IntersectionExampleScenario.node[672].nic.phy80211p 	busyTime 	0
scalar IntersectionExampleScenario.node[672].nic.mac1609_4 	ReceivedUnicastPackets 	0
scalar IntersectionExampleScenario.node[672].nic.mac1609_4 	ReceivedBroadcasts 	0
scalar IntersectionExampleScenario.node[672].nic.mac1609_4 	SentPackets 	0
scalar IntersectionExampleScenario.node[672].nic.mac1609_4 	SNIRLostPackets 	0
scalar IntersectionExampleScenario.node[672].nic.mac1609_4 	RXTXLostPackets 	0
scalar IntersectionExampleScenario.node[672].nic.mac1609_4 	TotalLostPackets 	0
scalar IntersectionExampleScenario.node[672].nic.mac1609_4 	DroppedPacketsInMac 	0
scalar IntersectionExampleScenario.node[672].nic.mac1609_4 	TooLittleTime 	0
scalar IntersectionExampleScenario.node[672].nic.mac1609_4 	TimesIntoBackoff 	0
scalar IntersectionExampleScenario.node[672].nic.mac1609_4 	SlotsBackoff 	0
scalar IntersectionExampleScenario.node[672].nic.mac1609_4 	NumInternalContention 	0
scalar IntersectionExampleScenario.node[672].nic.mac1609_4 	totalBusyTime 	0
scalar IntersectionExampleScenario.node[672].veinsmobility 	startTime 	1777.75
scalar IntersectionExampleScenario.node[672].veinsmobility 	totalTime 	22.25
scalar IntersectionExampleScenario.node[672].veinsmobility 	stopTime 	1800
scalar IntersectionExampleScenario.node[672].veinsmobility 	minSpeed 	2.2232947349548
scalar IntersectionExampleScenario.node[672].veinsmobility 	maxSpeed 	15.02499961853
scalar IntersectionExampleScenario.node[672].veinsmobility 	totalDistance 	286.7839050293
scalar IntersectionExampleScenario.node[672].veinsmobility 	totalCO2Emission 	64.236288048085
scalar IntersectionExampleScenario.node[673].appl 	VehicleRemoved 	0
scalar IntersectionExampleScenario.node[673].appl 	ArrivedAtDest 	0
scalar IntersectionExampleScenario.node[673].appl 	IntersectionEnterTime 	1779.75
scalar IntersectionExampleScenario.node[673].appl 	IntersectionExitTime 	-1
scalar IntersectionExampleScenario.node[673].appl 	NumberOfCollisions 	0
scalar IntersectionExampleScenario.node[673].nic.phy80211p 	busyTime 	0
scalar IntersectionExampleScenario.node[673].nic.mac1609_4 	ReceivedUnicastPackets 	0
scalar IntersectionExampleScenario.node[673].nic.mac1609_4 	ReceivedBroadcasts 	0
scalar IntersectionExampleScenario.node[673].nic.mac1609_4 	SentPackets 	0
scalar IntersectionExampleScenario.node[673].nic.mac1609_4 	SNIRLostPackets 	0
scalar IntersectionExampleScenario.node[673].nic.mac1609_4 	RXTXLostPackets 	0
scalar IntersectionExampleScenario.node[673].nic.mac1609_4 	TotalLostPackets 	0
scalar IntersectionExampleScenario.node[673].nic.mac1609_4 	DroppedPacketsInMac 	0
scalar IntersectionExampleScenario.node[673].nic.mac1609_4 	TooLittleTime 	0
scalar IntersectionExampleScenario.node[673].nic.mac1609_4 	TimesIntoBackoff 	0
scalar IntersectionExampleScenario.node[673].nic.mac1609_4 	SlotsBackoff 	0
scalar IntersectionExampleScenario.node[673].nic.mac1609_4 	NumInternalContention 	0
scalar IntersectionExampleScenario.node[673].nic.mac1609_4 	totalBusyTime 	0
scalar IntersectionExampleScenario.node[673].veinsmobility 	startTime 	1779.75
scalar IntersectionExampleScenario.node[673].veinsmobility 	totalTime 	20.25
scalar IntersectionExampleScenario.node[673].veinsmobility 	stopTime 	1800
scalar IntersectionExampleScenario.node[673].veinsmobility 	minSpeed 	3.9476017951965
scalar IntersectionExampleScenario.node[673].veinsmobility 	maxSpeed 	16.006896972656
scalar IntersectionExampleScenario.node[673].veinsmobility 	totalDistance 	272.8743057251
scalar IntersectionExampleScenario.node[673].veinsmobility 	totalCO2Emission 	64.114573790611
scalar IntersectionExampleScenario.node[674].appl 	VehicleRemoved 	0
scalar IntersectionExampleScenario.node[674].appl 	ArrivedAtDest 	0
scalar IntersectionExampleScenario.node[674].appl 	IntersectionEnterTime 	1783
scalar IntersectionExampleScenario.node[674].appl 	IntersectionExitTime 	-1
scalar IntersectionExampleScenario.node[674].appl 	NumberOfCollisions 	0
scalar IntersectionExampleScenario.node[674].nic.phy80211p 	busyTime 	0
scalar IntersectionExampleScenario.node[674].nic.mac1609_4 	ReceivedUnicastPackets 	0
scalar IntersectionExampleScenario.node[674].nic.mac1609_4 	ReceivedBroadcasts 	0
scalar IntersectionExampleScenario.node[674].nic.mac1609_4 	SentPackets 	0
scalar IntersectionExampleScenario.node[674].nic.mac1609_4 	SNIRLostPackets 	0
scalar IntersectionExampleScenario.node[674].nic.mac1609_4 	RXTXLostPackets 	0
scalar IntersectionExampleScenario.node[674].nic.mac1609_4 	TotalLostPackets 	0
scalar IntersectionExampleScenario.node[674].nic.mac1609_4 	DroppedPacketsInMac 	0
scalar IntersectionExampleScenario.node[674].nic.mac1609_4 	TooLittleTime 	0
scalar IntersectionExampleScenario.node[674].nic.mac1609_4 	TimesIntoBackoff 	0
scalar IntersectionExampleScenario.node[674].nic.mac1609_4 	SlotsBackoff 	0
scalar IntersectionExampleScenario.node[674].nic.mac1609_4 	NumInternalContention 	0
scalar IntersectionExampleScenario.node[674].nic.mac1609_4 	totalBusyTime 	0
scalar IntersectionExampleScenario.node[674].veinsmobility 	startTime 	1783
scalar IntersectionExampleScenario.node[674].veinsmobility 	totalTime 	17
scalar IntersectionExampleScenario.node[674].veinsmobility 	stopTime 	1800
scalar IntersectionExampleScenario.node[674].veinsmobility 	minSpeed 	5.6500000953674
scalar IntersectionExampleScenario.node[674].veinsmobility 	maxSpeed 	15.02499961853
scalar IntersectionExampleScenario.node[674].veinsmobility 	totalDistance 	223.18152618408
scalar IntersectionExampleScenario.node[674].veinsmobility 	totalCO2Emission 	55.046757295681
scalar IntersectionExampleScenario.node[675].appl 	VehicleRemoved 	0
scalar IntersectionExampleScenario.node[675].appl 	ArrivedAtDest 	0
scalar IntersectionExampleScenario.node[675].appl 	IntersectionEnterTime 	1788
scalar IntersectionExampleScenario.node[675].appl 	IntersectionExitTime 	-1
scalar IntersectionExampleScenario.node[675].appl 	NumberOfCollisions 	0
scalar IntersectionExampleScenario.node[675].nic.phy80211p 	busyTime 	0
scalar IntersectionExampleScenario.node[675].nic.mac1609_4 	ReceivedUnicastPackets 	0
scalar IntersectionExampleScenario.node[675].nic.mac1609_4 	ReceivedBroadcasts 	0
scalar IntersectionExampleScenario.node[675].nic.mac1609_4 	SentPackets 	0
scalar IntersectionExampleScenario.node[675].nic.mac1609_4 	SNIRLostPackets 	0
scalar IntersectionExampleScenario.node[675].nic.mac1609_4 	RXTXLostPackets 	0
scalar IntersectionExampleScenario.node[675].nic.mac1609_4 	TotalLostPackets 	0
scalar IntersectionExampleScenario.node[675].nic.mac1609_4 	DroppedPacketsInMac 	0
scalar IntersectionExampleScenario.node[675].nic.mac1609_4 	TooLittleTime 	0
scalar IntersectionExampleScenario.node[675].nic.mac1609_4 	TimesIntoBackoff 	0
scalar IntersectionExampleScenario.node[675].nic.mac1609_4 	SlotsBackoff 	0
scalar IntersectionExampleScenario.node[675].nic.mac1609_4 	NumInternalContention 	0
scalar IntersectionExampleScenario.node[675].nic.mac1609_4 	totalBusyTime 	0
scalar IntersectionExampleScenario.node[675].veinsmobility 	startTime 	1788
scalar IntersectionExampleScenario.node[675].veinsmobility 	totalTime 	12
scalar IntersectionExampleScenario.node[675].veinsmobility 	stopTime 	1800
scalar IntersectionExampleScenario.node[675].veinsmobility 	minSpeed 	5.6500000953674
scalar IntersectionExampleScenario.node[675].veinsmobility 	maxSpeed 	15.64999961853
scalar IntersectionExampleScenario.node[675].veinsmobility 	totalDistance 	162.20837402344
scalar IntersectionExampleScenario.node[675].veinsmobility 	totalCO2Emission 	49.042288594196
scalar IntersectionExampleScenario.node[676].appl 	VehicleRemoved 	0
scalar IntersectionExampleScenario.node[676].appl 	ArrivedAtDest 	0
scalar IntersectionExampleScenario.node[676].appl 	IntersectionEnterTime 	1788.25
scalar IntersectionExampleScenario.node[676].appl 	IntersectionExitTime 	-1
scalar IntersectionExampleScenario.node[676].appl 	NumberOfCollisions 	0
scalar IntersectionExampleScenario.node[676].nic.phy80211p 	busyTime 	0
scalar IntersectionExampleScenario.node[676].nic.mac1609_4 	ReceivedUnicastPackets 	0
scalar IntersectionExampleScenario.node[676].nic.mac1609_4 	ReceivedBroadcasts 	0
scalar IntersectionExampleScenario.node[676].nic.mac1609_4 	SentPackets 	0
scalar IntersectionExampleScenario.node[676].nic.mac1609_4 	SNIRLostPackets 	0
scalar IntersectionExampleScenario.node[676].nic.mac1609_4 	RXTXLostPackets 	0
scalar IntersectionExampleScenario.node[676].nic.mac1609_4 	TotalLostPackets 	0
scalar IntersectionExampleScenario.node[676].nic.mac1609_4 	DroppedPacketsInMac 	0
scalar IntersectionExampleScenario.node[676].nic.mac1609_4 	TooLittleTime 	0
scalar IntersectionExampleScenario.node[676].nic.mac1609_4 	TimesIntoBackoff 	0
scalar IntersectionExampleScenario.node[676].nic.mac1609_4 	SlotsBackoff 	0
scalar IntersectionExampleScenario.node[676].nic.mac1609_4 	NumInternalContention 	0
scalar IntersectionExampleScenario.node[676].nic.mac1609_4 	totalBusyTime 	0
scalar IntersectionExampleScenario.node[676].veinsmobility 	startTime 	1788.25
scalar IntersectionExampleScenario.node[676].veinsmobility 	totalTime 	11.75
scalar IntersectionExampleScenario.node[676].veinsmobility 	stopTime 	1800
scalar IntersectionExampleScenario.node[676].veinsmobility 	minSpeed 	5.6500000953674
scalar IntersectionExampleScenario.node[676].veinsmobility 	maxSpeed 	16.257677078247
scalar IntersectionExampleScenario.node[676].veinsmobility 	totalDistance 	163.17154693604
scalar IntersectionExampleScenario.node[676].veinsmobility 	totalCO2Emission 	51.827045861138
scalar IntersectionExampleScenario.node[677].appl 	VehicleRemoved 	0
scalar IntersectionExampleScenario.node[677].appl 	ArrivedAtDest 	0
scalar IntersectionExampleScenario.node[677].appl 	IntersectionEnterTime 	1791.5
scalar IntersectionExampleScenario.node[677].appl 	IntersectionExitTime 	-1
scalar IntersectionExampleScenario.node[677].appl 	NumberOfCollisions 	0
scalar IntersectionExampleScenario.node[677].nic.phy80211p 	busyTime 	0
scalar IntersectionExampleScenario.node[677].nic.mac1609_4 	ReceivedUnicastPackets 	0
scalar IntersectionExampleScenario.node[677].nic.mac1609_4 	ReceivedBroadcasts 	0
scalar IntersectionExampleScenario.node[677].nic.mac1609_4 	SentPackets 	0
scalar IntersectionExampleScenario.node[677].nic.mac1609_4 	SNIRLostPackets 	0
scalar IntersectionExampleScenario.node[677].nic.mac1609_4 	RXTXLostPackets 	0
scalar IntersectionExampleScenario.node[677].nic.mac1609_4 	TotalLostPackets 	0
scalar IntersectionExampleScenario.node[677].nic.mac1609_4 	DroppedPacketsInMac 	0
scalar IntersectionExampleScenario.node[677].nic.mac1609_4 	TooLittleTime 	0
scalar IntersectionExampleScenario.node[677].nic.mac1609_4 	TimesIntoBackoff 	0
scalar IntersectionExampleScenario.node[677].nic.mac1609_4 	SlotsBackoff 	0
scalar IntersectionExampleScenario.node[677].nic.mac1609_4 	NumInternalContention 	0
scalar IntersectionExampleScenario.node[677].nic.mac1609_4 	totalBusyTime 	0
scalar IntersectionExampleScenario.node[677].veinsmobility 	startTime 	1791.5
scalar IntersectionExampleScenario.node[677].veinsmobility 	totalTime 	8.5
scalar IntersectionExampleScenario.node[677].veinsmobility 	stopTime 	1800
scalar IntersectionExampleScenario.node[677].veinsmobility 	minSpeed 	5.6500000953674
scalar IntersectionExampleScenario.node[677].veinsmobility 	maxSpeed 	15.64999961853
scalar IntersectionExampleScenario.node[677].veinsmobility 	totalDistance 	110.18908691406
scalar IntersectionExampleScenario.node[677].veinsmobility 	totalCO2Emission 	42.682514672586
scalar IntersectionExampleScenario.node[678].appl 	VehicleRemoved 	0
scalar IntersectionExampleScenario.node[678].appl 	ArrivedAtDest 	0
scalar IntersectionExampleScenario.node[678].appl 	IntersectionEnterTime 	1797.25
scalar IntersectionExampleScenario.node[678].appl 	IntersectionExitTime 	-1
scalar IntersectionExampleScenario.node[678].appl 	NumberOfCollisions 	0
scalar IntersectionExampleScenario.node[678].nic.phy80211p 	busyTime 	0
scalar IntersectionExampleScenario.node[678].nic.mac1609_4 	ReceivedUnicastPackets 	0
scalar IntersectionExampleScenario.node[678].nic.mac1609_4 	ReceivedBroadcasts 	0
scalar IntersectionExampleScenario.node[678].nic.mac1609_4 	SentPackets 	0
scalar IntersectionExampleScenario.node[678].nic.mac1609_4 	SNIRLostPackets 	0
scalar IntersectionExampleScenario.node[678].nic.mac1609_4 	RXTXLostPackets 	0
scalar IntersectionExampleScenario.node[678].nic.mac1609_4 	TotalLostPackets 	0
scalar IntersectionExampleScenario.node[678].nic.mac1609_4 	DroppedPacketsInMac 	0
scalar IntersectionExampleScenario.node[678].nic.mac1609_4 	TooLittleTime 	0
scalar IntersectionExampleScenario.node[678].nic.mac1609_4 	TimesIntoBackoff 	0
scalar IntersectionExampleScenario.node[678].nic.mac1609_4 	SlotsBackoff 	0
scalar IntersectionExampleScenario.node[678].nic.mac1609_4 	NumInternalContention 	0
scalar IntersectionExampleScenario.node[678].nic.mac1609_4 	totalBusyTime 	0
scalar IntersectionExampleScenario.node[678].veinsmobility 	startTime 	1797.25
scalar IntersectionExampleScenario.node[678].veinsmobility 	totalTime 	2.75
scalar IntersectionExampleScenario.node[678].veinsmobility 	stopTime 	1800
scalar IntersectionExampleScenario.node[678].veinsmobility 	minSpeed 	5.6500000953674
scalar IntersectionExampleScenario.node[678].veinsmobility 	maxSpeed 	11.89999961853
scalar IntersectionExampleScenario.node[678].veinsmobility 	totalDistance 	23.271911621094
scalar IntersectionExampleScenario.node[678].veinsmobility 	totalCO2Emission 	17.752607434053
scalar IntersectionExampleScenario.node[679].appl 	VehicleRemoved 	0
scalar IntersectionExampleScenario.node[679].appl 	ArrivedAtDest 	0
scalar IntersectionExampleScenario.node[679].appl 	IntersectionEnterTime 	1798.5
scalar IntersectionExampleScenario.node[679].appl 	IntersectionExitTime 	-1
scalar IntersectionExampleScenario.node[679].appl 	NumberOfCollisions 	0
scalar IntersectionExampleScenario.node[679].nic.phy80211p 	busyTime 	0
scalar IntersectionExampleScenario.node[679].nic.mac1609_4 	ReceivedUnicastPackets 	0
scalar IntersectionExampleScenario.node[679].nic.mac1609_4 	ReceivedBroadcasts 	0
scalar IntersectionExampleScenario.node[679].nic.mac1609_4 	SentPackets 	0
scalar IntersectionExampleScenario.node[679].nic.mac1609_4 	SNIRLostPackets 	0
scalar IntersectionExampleScenario.node[679].nic.mac1609_4 	RXTXLostPackets 	0
scalar IntersectionExampleScenario.node[679].nic.mac1609_4 	TotalLostPackets 	0
scalar IntersectionExampleScenario.node[679].nic.mac1609_4 	DroppedPacketsInMac 	0
scalar IntersectionExampleScenario.node[679].nic.mac1609_4 	TooLittleTime 	0
scalar IntersectionExampleScenario.node[679].nic.mac1609_4 	TimesIntoBackoff 	0
scalar IntersectionExampleScenario.node[679].nic.mac1609_4 	SlotsBackoff 	0
scalar IntersectionExampleScenario.node[679].nic.mac1609_4 	NumInternalContention 	0
scalar IntersectionExampleScenario.node[679].nic.mac1609_4 	totalBusyTime 	0
scalar IntersectionExampleScenario.node[679].veinsmobility 	startTime 	1798.5
scalar IntersectionExampleScenario.node[679].veinsmobility 	totalTime 	1.5
scalar IntersectionExampleScenario.node[679].veinsmobility 	stopTime 	1800
scalar IntersectionExampleScenario.node[679].veinsmobility 	minSpeed 	5.6500000953674
scalar IntersectionExampleScenario.node[679].veinsmobility 	maxSpeed 	8.7749996185303
scalar IntersectionExampleScenario.node[679].veinsmobility 	totalDistance 	10.350036621094
scalar IntersectionExampleScenario.node[679].veinsmobility 	totalCO2Emission 	7.5597628883124
scalar IntersectionExampleScenario.node[680].appl 	VehicleRemoved 	0
scalar IntersectionExampleScenario.node[680].appl 	ArrivedAtDest 	0
scalar IntersectionExampleScenario.node[680].appl 	IntersectionEnterTime 	1798.5
scalar IntersectionExampleScenario.node[680].appl 	IntersectionExitTime 	-1
scalar IntersectionExampleScenario.node[680].appl 	NumberOfCollisions 	0
scalar IntersectionExampleScenario.node[680].nic.phy80211p 	busyTime 	0
scalar IntersectionExampleScenario.node[680].nic.mac1609_4 	ReceivedUnicastPackets 	0
scalar IntersectionExampleScenario.node[680].nic.mac1609_4 	ReceivedBroadcasts 	0
scalar IntersectionExampleScenario.node[680].nic.mac1609_4 	SentPackets 	0
scalar IntersectionExampleScenario.node[680].nic.mac1609_4 	SNIRLostPackets 	0
scalar IntersectionExampleScenario.node[680].nic.mac1609_4 	RXTXLostPackets 	0
scalar IntersectionExampleScenario.node[680].nic.mac1609_4 	TotalLostPackets 	0
scalar IntersectionExampleScenario.node[680].nic.mac1609_4 	DroppedPacketsInMac 	0
scalar IntersectionExampleScenario.node[680].nic.mac1609_4 	TooLittleTime 	0
scalar IntersectionExampleScenario.node[680].nic.mac1609_4 	TimesIntoBackoff 	0
scalar IntersectionExampleScenario.node[680].nic.mac1609_4 	SlotsBackoff 	0
scalar IntersectionExampleScenario.node[680].nic.mac1609_4 	NumInternalContention 	0
scalar IntersectionExampleScenario.node[680].nic.mac1609_4 	totalBusyTime 	0
scalar IntersectionExampleScenario.node[680].veinsmobility 	startTime 	1798.5
scalar IntersectionExampleScenario.node[680].veinsmobility 	totalTime 	1.5
scalar IntersectionExampleScenario.node[680].veinsmobility 	stopTime 	1800
scalar IntersectionExampleScenario.node[680].veinsmobility 	minSpeed 	5.6500000953674
scalar IntersectionExampleScenario.node[680].veinsmobility 	maxSpeed 	8.7749996185303
scalar IntersectionExampleScenario.node[680].veinsmobility 	totalDistance 	10.350036621094
scalar IntersectionExampleScenario.node[680].veinsmobility 	totalCO2Emission 	7.5597628883124
