version 2
run nodebug-32-20200606-21:54:18-21964
attr configname nodebug
attr datetime 20200606-21:54:18
attr experiment nodebug
attr inifile omnetpp.ini
attr iterationvars ""
attr iterationvars2 $repetition=32
attr measurement ""
attr network "\"org.car2x.veins.modules.application.ExtTraCIScenarioManagerLaunchd.IntersectionExampleScenario\""
attr processid 21964
attr repetition 32
attr replication #32
attr resultdir results
attr runnumber 32
attr seedset 32
param **.coreDebug false
param **.debug false
param *.**.nic.mac1609_4.bitrate 18Mbps
param *.**.nic.mac1609_4.txPower 20mW
param *.**.nic.mac1609_4.useServiceChannel false
param *.**.nic.phy80211p.analogueModels "xmldoc(\"config.xml\")"
param *.**.nic.phy80211p.decider "xmldoc(\"config.xml\")"
param *.**.nic.phy80211p.sensitivity -89dBm
param *.**.nic.phy80211p.thermalNoise -110dBm
param *.**.nic.phy80211p.usePropagationDelay true
param *.**.nic.phy80211p.useThermalNoise true
param *.annotations.draw false
param *.connectionManager.alpha 2.0
param *.connectionManager.carrierFrequency "5.890e9 Hz"
param *.connectionManager.pMax 20mW
param *.connectionManager.sat -89dBm
param *.connectionManager.sendDirect true
param *.manager.autoShutdown true
param *.manager.host "\"localhost\""
param *.manager.launchConfig "xmldoc(\"paramics.launchd.xml\")"
param *.manager.margin 25
param *.manager.moduleDisplayString "\"\""
param *.manager.moduleName "\"node\""
param *.manager.moduleType "\"org.car2x.veins.nodes.Car\""
param *.manager.port 9999
param *.manager.updateInterval 250ms
param *.node[*0].veinsmobility.accidentCount 0
param *.node[*0].veinsmobility.accidentDuration 30s
param *.node[*0].veinsmobility.accidentStart 75s
param *.node[*].appl.LiderSelectZoneRadio 55.0
param *.node[*].appl.ShareDataZoneRadio 110.0
param *.node[*].appl.TiempoSemaforo 30.0
param *.node[*].appl.beaconInterval 1s
param *.node[*].appl.beaconPriority 3
param *.node[*].appl.dataOnSch false
param *.node[*].appl.dataPriority 2
param *.node[*].appl.debug false
param *.node[*].appl.headerLength "256 bit"
param *.node[*].appl.maxOffset 0.005s
param *.node[*].appl.sendBeacons false
param *.node[*].appl.sendData true
param *.node[*].applType "\"Dummy\""
param *.node[*].mobilityType "\"TraCIMobility\""
param *.node[*].mobilityType.debug true
param *.node[*].veinsmobility.x 0
param *.node[*].veinsmobility.y 0
param *.node[*].veinsmobility.z 1.895
param *.node[*].veinsmobilityType "\"org.car2x.veins.modules.mobility.traci.TraCIMobility\""
param *.node[*].veinsmobilityType.debug true
param *.playgroundSizeX 8500m
param *.playgroundSizeY 8500m
param *.playgroundSizeZ 50m
param *.world.use2D false
param *.world.useTorus false

scalar IntersectionExampleScenario.node[3].appl 	VehicleRemoved 	0
scalar IntersectionExampleScenario.node[3].appl 	ArrivedAtDest 	1
scalar IntersectionExampleScenario.node[3].appl 	IntersectionEnterTime 	14.25
scalar IntersectionExampleScenario.node[3].appl 	IntersectionExitTime 	37.587964060833
scalar IntersectionExampleScenario.node[3].appl 	NumberOfCollisions 	0
scalar IntersectionExampleScenario.node[3].nic.phy80211p 	busyTime 	0
scalar IntersectionExampleScenario.node[3].nic.mac1609_4 	ReceivedUnicastPackets 	0
scalar IntersectionExampleScenario.node[3].nic.mac1609_4 	ReceivedBroadcasts 	0
scalar IntersectionExampleScenario.node[3].nic.mac1609_4 	SentPackets 	0
scalar IntersectionExampleScenario.node[3].nic.mac1609_4 	SNIRLostPackets 	0
scalar IntersectionExampleScenario.node[3].nic.mac1609_4 	RXTXLostPackets 	0
scalar IntersectionExampleScenario.node[3].nic.mac1609_4 	TotalLostPackets 	0
scalar IntersectionExampleScenario.node[3].nic.mac1609_4 	DroppedPacketsInMac 	0
scalar IntersectionExampleScenario.node[3].nic.mac1609_4 	TooLittleTime 	0
scalar IntersectionExampleScenario.node[3].nic.mac1609_4 	TimesIntoBackoff 	0
scalar IntersectionExampleScenario.node[3].nic.mac1609_4 	SlotsBackoff 	0
scalar IntersectionExampleScenario.node[3].nic.mac1609_4 	NumInternalContention 	0
scalar IntersectionExampleScenario.node[3].nic.mac1609_4 	totalBusyTime 	0
scalar IntersectionExampleScenario.node[3].veinsmobility 	startTime 	14.25
scalar IntersectionExampleScenario.node[3].veinsmobility 	totalTime 	39.5
scalar IntersectionExampleScenario.node[3].veinsmobility 	stopTime 	54
scalar IntersectionExampleScenario.node[3].veinsmobility 	minSpeed 	5.6500000953674
scalar IntersectionExampleScenario.node[3].veinsmobility 	maxSpeed 	15.5
scalar IntersectionExampleScenario.node[3].veinsmobility 	totalDistance 	553.65596008301
scalar IntersectionExampleScenario.node[3].veinsmobility 	totalCO2Emission 	116.12893195025
scalar IntersectionExampleScenario.node[4].appl 	VehicleRemoved 	0
scalar IntersectionExampleScenario.node[4].appl 	ArrivedAtDest 	1
scalar IntersectionExampleScenario.node[4].appl 	IntersectionEnterTime 	18.5
scalar IntersectionExampleScenario.node[4].appl 	IntersectionExitTime 	41.84579480844
scalar IntersectionExampleScenario.node[4].appl 	NumberOfCollisions 	0
scalar IntersectionExampleScenario.node[4].nic.phy80211p 	busyTime 	0
scalar IntersectionExampleScenario.node[4].nic.mac1609_4 	ReceivedUnicastPackets 	0
scalar IntersectionExampleScenario.node[4].nic.mac1609_4 	ReceivedBroadcasts 	0
scalar IntersectionExampleScenario.node[4].nic.mac1609_4 	SentPackets 	0
scalar IntersectionExampleScenario.node[4].nic.mac1609_4 	SNIRLostPackets 	0
scalar IntersectionExampleScenario.node[4].nic.mac1609_4 	RXTXLostPackets 	0
scalar IntersectionExampleScenario.node[4].nic.mac1609_4 	TotalLostPackets 	0
scalar IntersectionExampleScenario.node[4].nic.mac1609_4 	DroppedPacketsInMac 	0
scalar IntersectionExampleScenario.node[4].nic.mac1609_4 	TooLittleTime 	0
scalar IntersectionExampleScenario.node[4].nic.mac1609_4 	TimesIntoBackoff 	0
scalar IntersectionExampleScenario.node[4].nic.mac1609_4 	SlotsBackoff 	0
scalar IntersectionExampleScenario.node[4].nic.mac1609_4 	NumInternalContention 	0
scalar IntersectionExampleScenario.node[4].nic.mac1609_4 	totalBusyTime 	0
scalar IntersectionExampleScenario.node[4].veinsmobility 	startTime 	18.5
scalar IntersectionExampleScenario.node[4].veinsmobility 	totalTime 	39.5
scalar IntersectionExampleScenario.node[4].veinsmobility 	stopTime 	58.25
scalar IntersectionExampleScenario.node[4].veinsmobility 	minSpeed 	5.6500000953674
scalar IntersectionExampleScenario.node[4].veinsmobility 	maxSpeed 	15.879634857178
scalar IntersectionExampleScenario.node[4].veinsmobility 	totalDistance 	549.17613004105
scalar IntersectionExampleScenario.node[4].veinsmobility 	totalCO2Emission 	130.7565214995
scalar IntersectionExampleScenario.node[0].appl 	VehicleRemoved 	0
scalar IntersectionExampleScenario.node[0].appl 	ArrivedAtDest 	1
scalar IntersectionExampleScenario.node[0].appl 	IntersectionEnterTime 	1.5
scalar IntersectionExampleScenario.node[0].appl 	IntersectionExitTime 	42.61945706862
scalar IntersectionExampleScenario.node[0].appl 	NumberOfCollisions 	0
scalar IntersectionExampleScenario.node[0].nic.phy80211p 	busyTime 	0
scalar IntersectionExampleScenario.node[0].nic.mac1609_4 	ReceivedUnicastPackets 	0
scalar IntersectionExampleScenario.node[0].nic.mac1609_4 	ReceivedBroadcasts 	0
scalar IntersectionExampleScenario.node[0].nic.mac1609_4 	SentPackets 	0
scalar IntersectionExampleScenario.node[0].nic.mac1609_4 	SNIRLostPackets 	0
scalar IntersectionExampleScenario.node[0].nic.mac1609_4 	RXTXLostPackets 	0
scalar IntersectionExampleScenario.node[0].nic.mac1609_4 	TotalLostPackets 	0
scalar IntersectionExampleScenario.node[0].nic.mac1609_4 	DroppedPacketsInMac 	0
scalar IntersectionExampleScenario.node[0].nic.mac1609_4 	TooLittleTime 	0
scalar IntersectionExampleScenario.node[0].nic.mac1609_4 	TimesIntoBackoff 	0
scalar IntersectionExampleScenario.node[0].nic.mac1609_4 	SlotsBackoff 	0
scalar IntersectionExampleScenario.node[0].nic.mac1609_4 	NumInternalContention 	0
scalar IntersectionExampleScenario.node[0].nic.mac1609_4 	totalBusyTime 	0
scalar IntersectionExampleScenario.node[0].veinsmobility 	startTime 	1.5
scalar IntersectionExampleScenario.node[0].veinsmobility 	totalTime 	57.75
scalar IntersectionExampleScenario.node[0].veinsmobility 	stopTime 	59.5
scalar IntersectionExampleScenario.node[0].veinsmobility 	minSpeed 	0
scalar IntersectionExampleScenario.node[0].veinsmobility 	maxSpeed 	15.64999961853
scalar IntersectionExampleScenario.node[0].veinsmobility 	totalDistance 	545.0260076657
scalar IntersectionExampleScenario.node[0].veinsmobility 	totalCO2Emission 	149.71306166355
scalar IntersectionExampleScenario.node[1].appl 	VehicleRemoved 	0
scalar IntersectionExampleScenario.node[1].appl 	ArrivedAtDest 	1
scalar IntersectionExampleScenario.node[1].appl 	IntersectionEnterTime 	8.25
scalar IntersectionExampleScenario.node[1].appl 	IntersectionExitTime 	44.866061008826
scalar IntersectionExampleScenario.node[1].appl 	NumberOfCollisions 	0
scalar IntersectionExampleScenario.node[1].nic.phy80211p 	busyTime 	0
scalar IntersectionExampleScenario.node[1].nic.mac1609_4 	ReceivedUnicastPackets 	0
scalar IntersectionExampleScenario.node[1].nic.mac1609_4 	ReceivedBroadcasts 	0
scalar IntersectionExampleScenario.node[1].nic.mac1609_4 	SentPackets 	0
scalar IntersectionExampleScenario.node[1].nic.mac1609_4 	SNIRLostPackets 	0
scalar IntersectionExampleScenario.node[1].nic.mac1609_4 	RXTXLostPackets 	0
scalar IntersectionExampleScenario.node[1].nic.mac1609_4 	TotalLostPackets 	0
scalar IntersectionExampleScenario.node[1].nic.mac1609_4 	DroppedPacketsInMac 	0
scalar IntersectionExampleScenario.node[1].nic.mac1609_4 	TooLittleTime 	0
scalar IntersectionExampleScenario.node[1].nic.mac1609_4 	TimesIntoBackoff 	0
scalar IntersectionExampleScenario.node[1].nic.mac1609_4 	SlotsBackoff 	0
scalar IntersectionExampleScenario.node[1].nic.mac1609_4 	NumInternalContention 	0
scalar IntersectionExampleScenario.node[1].nic.mac1609_4 	totalBusyTime 	0
scalar IntersectionExampleScenario.node[1].veinsmobility 	startTime 	8.25
scalar IntersectionExampleScenario.node[1].veinsmobility 	totalTime 	53
scalar IntersectionExampleScenario.node[1].veinsmobility 	stopTime 	61.5
scalar IntersectionExampleScenario.node[1].veinsmobility 	minSpeed 	0
scalar IntersectionExampleScenario.node[1].veinsmobility 	maxSpeed 	15.64999961853
scalar IntersectionExampleScenario.node[1].veinsmobility 	totalDistance 	551.87208623172
scalar IntersectionExampleScenario.node[1].veinsmobility 	totalCO2Emission 	145.82249826688
scalar IntersectionExampleScenario.node[2].appl 	VehicleRemoved 	0
scalar IntersectionExampleScenario.node[2].appl 	ArrivedAtDest 	1
scalar IntersectionExampleScenario.node[2].appl 	IntersectionEnterTime 	8.25
scalar IntersectionExampleScenario.node[2].appl 	IntersectionExitTime 	47.043148280209
scalar IntersectionExampleScenario.node[2].appl 	NumberOfCollisions 	0
scalar IntersectionExampleScenario.node[2].nic.phy80211p 	busyTime 	0
scalar IntersectionExampleScenario.node[2].nic.mac1609_4 	ReceivedUnicastPackets 	0
scalar IntersectionExampleScenario.node[2].nic.mac1609_4 	ReceivedBroadcasts 	0
scalar IntersectionExampleScenario.node[2].nic.mac1609_4 	SentPackets 	0
scalar IntersectionExampleScenario.node[2].nic.mac1609_4 	SNIRLostPackets 	0
scalar IntersectionExampleScenario.node[2].nic.mac1609_4 	RXTXLostPackets 	0
scalar IntersectionExampleScenario.node[2].nic.mac1609_4 	TotalLostPackets 	0
scalar IntersectionExampleScenario.node[2].nic.mac1609_4 	DroppedPacketsInMac 	0
scalar IntersectionExampleScenario.node[2].nic.mac1609_4 	TooLittleTime 	0
scalar IntersectionExampleScenario.node[2].nic.mac1609_4 	TimesIntoBackoff 	0
scalar IntersectionExampleScenario.node[2].nic.mac1609_4 	SlotsBackoff 	0
scalar IntersectionExampleScenario.node[2].nic.mac1609_4 	NumInternalContention 	0
scalar IntersectionExampleScenario.node[2].nic.mac1609_4 	totalBusyTime 	0
scalar IntersectionExampleScenario.node[2].veinsmobility 	startTime 	8.25
scalar IntersectionExampleScenario.node[2].veinsmobility 	totalTime 	55
scalar IntersectionExampleScenario.node[2].veinsmobility 	stopTime 	63.5
scalar IntersectionExampleScenario.node[2].veinsmobility 	minSpeed 	0
scalar IntersectionExampleScenario.node[2].veinsmobility 	maxSpeed 	15.875
scalar IntersectionExampleScenario.node[2].veinsmobility 	totalDistance 	545.02013487903
scalar IntersectionExampleScenario.node[2].veinsmobility 	totalCO2Emission 	151.52982599461
scalar IntersectionExampleScenario.node[6].appl 	VehicleRemoved 	0
scalar IntersectionExampleScenario.node[6].appl 	ArrivedAtDest 	1
scalar IntersectionExampleScenario.node[6].appl 	IntersectionEnterTime 	21.25
scalar IntersectionExampleScenario.node[6].appl 	IntersectionExitTime 	49.588671323785
scalar IntersectionExampleScenario.node[6].appl 	NumberOfCollisions 	0
scalar IntersectionExampleScenario.node[6].nic.phy80211p 	busyTime 	0
scalar IntersectionExampleScenario.node[6].nic.mac1609_4 	ReceivedUnicastPackets 	0
scalar IntersectionExampleScenario.node[6].nic.mac1609_4 	ReceivedBroadcasts 	0
scalar IntersectionExampleScenario.node[6].nic.mac1609_4 	SentPackets 	0
scalar IntersectionExampleScenario.node[6].nic.mac1609_4 	SNIRLostPackets 	0
scalar IntersectionExampleScenario.node[6].nic.mac1609_4 	RXTXLostPackets 	0
scalar IntersectionExampleScenario.node[6].nic.mac1609_4 	TotalLostPackets 	0
scalar IntersectionExampleScenario.node[6].nic.mac1609_4 	DroppedPacketsInMac 	0
scalar IntersectionExampleScenario.node[6].nic.mac1609_4 	TooLittleTime 	0
scalar IntersectionExampleScenario.node[6].nic.mac1609_4 	TimesIntoBackoff 	0
scalar IntersectionExampleScenario.node[6].nic.mac1609_4 	SlotsBackoff 	0
scalar IntersectionExampleScenario.node[6].nic.mac1609_4 	NumInternalContention 	0
scalar IntersectionExampleScenario.node[6].nic.mac1609_4 	totalBusyTime 	0
scalar IntersectionExampleScenario.node[6].veinsmobility 	startTime 	21.25
scalar IntersectionExampleScenario.node[6].veinsmobility 	totalTime 	44.5
scalar IntersectionExampleScenario.node[6].veinsmobility 	stopTime 	66
scalar IntersectionExampleScenario.node[6].veinsmobility 	minSpeed 	3.830219745636
scalar IntersectionExampleScenario.node[6].veinsmobility 	maxSpeed 	16.27499961853
scalar IntersectionExampleScenario.node[6].veinsmobility 	totalDistance 	546.22535356072
scalar IntersectionExampleScenario.node[6].veinsmobility 	totalCO2Emission 	146.21752343233
scalar IntersectionExampleScenario.node[10].appl 	VehicleRemoved 	0
scalar IntersectionExampleScenario.node[10].appl 	ArrivedAtDest 	1
scalar IntersectionExampleScenario.node[10].appl 	IntersectionEnterTime 	31
scalar IntersectionExampleScenario.node[10].appl 	IntersectionExitTime 	55.332087691
scalar IntersectionExampleScenario.node[10].appl 	NumberOfCollisions 	0
scalar IntersectionExampleScenario.node[10].nic.phy80211p 	busyTime 	0
scalar IntersectionExampleScenario.node[10].nic.mac1609_4 	ReceivedUnicastPackets 	0
scalar IntersectionExampleScenario.node[10].nic.mac1609_4 	ReceivedBroadcasts 	0
scalar IntersectionExampleScenario.node[10].nic.mac1609_4 	SentPackets 	0
scalar IntersectionExampleScenario.node[10].nic.mac1609_4 	SNIRLostPackets 	0
scalar IntersectionExampleScenario.node[10].nic.mac1609_4 	RXTXLostPackets 	0
scalar IntersectionExampleScenario.node[10].nic.mac1609_4 	TotalLostPackets 	0
scalar IntersectionExampleScenario.node[10].nic.mac1609_4 	DroppedPacketsInMac 	0
scalar IntersectionExampleScenario.node[10].nic.mac1609_4 	TooLittleTime 	0
scalar IntersectionExampleScenario.node[10].nic.mac1609_4 	TimesIntoBackoff 	0
scalar IntersectionExampleScenario.node[10].nic.mac1609_4 	SlotsBackoff 	0
scalar IntersectionExampleScenario.node[10].nic.mac1609_4 	NumInternalContention 	0
scalar IntersectionExampleScenario.node[10].nic.mac1609_4 	totalBusyTime 	0
scalar IntersectionExampleScenario.node[10].veinsmobility 	startTime 	31
scalar IntersectionExampleScenario.node[10].veinsmobility 	totalTime 	41.5
scalar IntersectionExampleScenario.node[10].veinsmobility 	stopTime 	72.75
scalar IntersectionExampleScenario.node[10].veinsmobility 	minSpeed 	5.6500000953674
scalar IntersectionExampleScenario.node[10].veinsmobility 	maxSpeed 	14.39999961853
scalar IntersectionExampleScenario.node[10].veinsmobility 	totalDistance 	551.82291412354
scalar IntersectionExampleScenario.node[10].veinsmobility 	totalCO2Emission 	110.02299086287
scalar IntersectionExampleScenario.node[12].appl 	VehicleRemoved 	0
scalar IntersectionExampleScenario.node[12].appl 	ArrivedAtDest 	1
scalar IntersectionExampleScenario.node[12].appl 	IntersectionEnterTime 	35.75
scalar IntersectionExampleScenario.node[12].appl 	IntersectionExitTime 	59.015614155622
scalar IntersectionExampleScenario.node[12].appl 	NumberOfCollisions 	0
scalar IntersectionExampleScenario.node[12].nic.phy80211p 	busyTime 	0
scalar IntersectionExampleScenario.node[12].nic.mac1609_4 	ReceivedUnicastPackets 	0
scalar IntersectionExampleScenario.node[12].nic.mac1609_4 	ReceivedBroadcasts 	0
scalar IntersectionExampleScenario.node[12].nic.mac1609_4 	SentPackets 	0
scalar IntersectionExampleScenario.node[12].nic.mac1609_4 	SNIRLostPackets 	0
scalar IntersectionExampleScenario.node[12].nic.mac1609_4 	RXTXLostPackets 	0
scalar IntersectionExampleScenario.node[12].nic.mac1609_4 	TotalLostPackets 	0
scalar IntersectionExampleScenario.node[12].nic.mac1609_4 	DroppedPacketsInMac 	0
scalar IntersectionExampleScenario.node[12].nic.mac1609_4 	TooLittleTime 	0
scalar IntersectionExampleScenario.node[12].nic.mac1609_4 	TimesIntoBackoff 	0
scalar IntersectionExampleScenario.node[12].nic.mac1609_4 	SlotsBackoff 	0
scalar IntersectionExampleScenario.node[12].nic.mac1609_4 	NumInternalContention 	0
scalar IntersectionExampleScenario.node[12].nic.mac1609_4 	totalBusyTime 	0
scalar IntersectionExampleScenario.node[12].veinsmobility 	startTime 	35.75
scalar IntersectionExampleScenario.node[12].veinsmobility 	totalTime 	40
scalar IntersectionExampleScenario.node[12].veinsmobility 	stopTime 	76
scalar IntersectionExampleScenario.node[12].veinsmobility 	minSpeed 	5.6500000953674
scalar IntersectionExampleScenario.node[12].veinsmobility 	maxSpeed 	15.875
scalar IntersectionExampleScenario.node[12].veinsmobility 	totalDistance 	545.86105513931
scalar IntersectionExampleScenario.node[12].veinsmobility 	totalCO2Emission 	127.4584070295
scalar IntersectionExampleScenario.node[5].appl 	VehicleRemoved 	0
scalar IntersectionExampleScenario.node[5].appl 	ArrivedAtDest 	1
scalar IntersectionExampleScenario.node[5].appl 	IntersectionEnterTime 	19.5
scalar IntersectionExampleScenario.node[5].appl 	IntersectionExitTime 	61.557620050386
scalar IntersectionExampleScenario.node[5].appl 	NumberOfCollisions 	0
scalar IntersectionExampleScenario.node[5].nic.phy80211p 	busyTime 	0
scalar IntersectionExampleScenario.node[5].nic.mac1609_4 	ReceivedUnicastPackets 	0
scalar IntersectionExampleScenario.node[5].nic.mac1609_4 	ReceivedBroadcasts 	0
scalar IntersectionExampleScenario.node[5].nic.mac1609_4 	SentPackets 	0
scalar IntersectionExampleScenario.node[5].nic.mac1609_4 	SNIRLostPackets 	0
scalar IntersectionExampleScenario.node[5].nic.mac1609_4 	RXTXLostPackets 	0
scalar IntersectionExampleScenario.node[5].nic.mac1609_4 	TotalLostPackets 	0
scalar IntersectionExampleScenario.node[5].nic.mac1609_4 	DroppedPacketsInMac 	0
scalar IntersectionExampleScenario.node[5].nic.mac1609_4 	TooLittleTime 	0
scalar IntersectionExampleScenario.node[5].nic.mac1609_4 	TimesIntoBackoff 	0
scalar IntersectionExampleScenario.node[5].nic.mac1609_4 	SlotsBackoff 	0
scalar IntersectionExampleScenario.node[5].nic.mac1609_4 	NumInternalContention 	0
scalar IntersectionExampleScenario.node[5].nic.mac1609_4 	totalBusyTime 	0
scalar IntersectionExampleScenario.node[5].veinsmobility 	startTime 	19.5
scalar IntersectionExampleScenario.node[5].veinsmobility 	totalTime 	59
scalar IntersectionExampleScenario.node[5].veinsmobility 	stopTime 	78.75
scalar IntersectionExampleScenario.node[5].veinsmobility 	minSpeed 	0
scalar IntersectionExampleScenario.node[5].veinsmobility 	maxSpeed 	15.25
scalar IntersectionExampleScenario.node[5].veinsmobility 	totalDistance 	544.46383572966
scalar IntersectionExampleScenario.node[5].veinsmobility 	totalCO2Emission 	148.79852961421
scalar IntersectionExampleScenario.node[7].appl 	VehicleRemoved 	0
scalar IntersectionExampleScenario.node[7].appl 	ArrivedAtDest 	1
scalar IntersectionExampleScenario.node[7].appl 	IntersectionEnterTime 	26.75
scalar IntersectionExampleScenario.node[7].appl 	IntersectionExitTime 	61.56686084118
scalar IntersectionExampleScenario.node[7].appl 	NumberOfCollisions 	0
scalar IntersectionExampleScenario.node[7].nic.phy80211p 	busyTime 	0
scalar IntersectionExampleScenario.node[7].nic.mac1609_4 	ReceivedUnicastPackets 	0
scalar IntersectionExampleScenario.node[7].nic.mac1609_4 	ReceivedBroadcasts 	0
scalar IntersectionExampleScenario.node[7].nic.mac1609_4 	SentPackets 	0
scalar IntersectionExampleScenario.node[7].nic.mac1609_4 	SNIRLostPackets 	0
scalar IntersectionExampleScenario.node[7].nic.mac1609_4 	RXTXLostPackets 	0
scalar IntersectionExampleScenario.node[7].nic.mac1609_4 	TotalLostPackets 	0
scalar IntersectionExampleScenario.node[7].nic.mac1609_4 	DroppedPacketsInMac 	0
scalar IntersectionExampleScenario.node[7].nic.mac1609_4 	TooLittleTime 	0
scalar IntersectionExampleScenario.node[7].nic.mac1609_4 	TimesIntoBackoff 	0
scalar IntersectionExampleScenario.node[7].nic.mac1609_4 	SlotsBackoff 	0
scalar IntersectionExampleScenario.node[7].nic.mac1609_4 	NumInternalContention 	0
scalar IntersectionExampleScenario.node[7].nic.mac1609_4 	totalBusyTime 	0
scalar IntersectionExampleScenario.node[7].veinsmobility 	startTime 	26.75
scalar IntersectionExampleScenario.node[7].veinsmobility 	totalTime 	51.75
scalar IntersectionExampleScenario.node[7].veinsmobility 	stopTime 	78.75
scalar IntersectionExampleScenario.node[7].veinsmobility 	minSpeed 	0
scalar IntersectionExampleScenario.node[7].veinsmobility 	maxSpeed 	15.168988227844
scalar IntersectionExampleScenario.node[7].veinsmobility 	totalDistance 	542.82189084441
scalar IntersectionExampleScenario.node[7].veinsmobility 	totalCO2Emission 	140.93398789624
scalar IntersectionExampleScenario.node[13].appl 	VehicleRemoved 	0
scalar IntersectionExampleScenario.node[13].appl 	ArrivedAtDest 	1
scalar IntersectionExampleScenario.node[13].appl 	IntersectionEnterTime 	36.5
scalar IntersectionExampleScenario.node[13].appl 	IntersectionExitTime 	64.034745488869
scalar IntersectionExampleScenario.node[13].appl 	NumberOfCollisions 	0
scalar IntersectionExampleScenario.node[13].nic.phy80211p 	busyTime 	0
scalar IntersectionExampleScenario.node[13].nic.mac1609_4 	ReceivedUnicastPackets 	0
scalar IntersectionExampleScenario.node[13].nic.mac1609_4 	ReceivedBroadcasts 	0
scalar IntersectionExampleScenario.node[13].nic.mac1609_4 	SentPackets 	0
scalar IntersectionExampleScenario.node[13].nic.mac1609_4 	SNIRLostPackets 	0
scalar IntersectionExampleScenario.node[13].nic.mac1609_4 	RXTXLostPackets 	0
scalar IntersectionExampleScenario.node[13].nic.mac1609_4 	TotalLostPackets 	0
scalar IntersectionExampleScenario.node[13].nic.mac1609_4 	DroppedPacketsInMac 	0
scalar IntersectionExampleScenario.node[13].nic.mac1609_4 	TooLittleTime 	0
scalar IntersectionExampleScenario.node[13].nic.mac1609_4 	TimesIntoBackoff 	0
scalar IntersectionExampleScenario.node[13].nic.mac1609_4 	SlotsBackoff 	0
scalar IntersectionExampleScenario.node[13].nic.mac1609_4 	NumInternalContention 	0
scalar IntersectionExampleScenario.node[13].nic.mac1609_4 	totalBusyTime 	0
scalar IntersectionExampleScenario.node[13].veinsmobility 	startTime 	36.5
scalar IntersectionExampleScenario.node[13].veinsmobility 	totalTime 	43.5
scalar IntersectionExampleScenario.node[13].veinsmobility 	stopTime 	80.25
scalar IntersectionExampleScenario.node[13].veinsmobility 	minSpeed 	4.4778490066528
scalar IntersectionExampleScenario.node[13].veinsmobility 	maxSpeed 	15.64999961853
scalar IntersectionExampleScenario.node[13].veinsmobility 	totalDistance 	554.53701782227
scalar IntersectionExampleScenario.node[13].veinsmobility 	totalCO2Emission 	133.16805387564
scalar IntersectionExampleScenario.node[8].appl 	VehicleRemoved 	0
scalar IntersectionExampleScenario.node[8].appl 	ArrivedAtDest 	1
scalar IntersectionExampleScenario.node[8].appl 	IntersectionEnterTime 	27
scalar IntersectionExampleScenario.node[8].appl 	IntersectionExitTime 	63.279822015524
scalar IntersectionExampleScenario.node[8].appl 	NumberOfCollisions 	0
scalar IntersectionExampleScenario.node[8].nic.phy80211p 	busyTime 	0
scalar IntersectionExampleScenario.node[8].nic.mac1609_4 	ReceivedUnicastPackets 	0
scalar IntersectionExampleScenario.node[8].nic.mac1609_4 	ReceivedBroadcasts 	0
scalar IntersectionExampleScenario.node[8].nic.mac1609_4 	SentPackets 	0
scalar IntersectionExampleScenario.node[8].nic.mac1609_4 	SNIRLostPackets 	0
scalar IntersectionExampleScenario.node[8].nic.mac1609_4 	RXTXLostPackets 	0
scalar IntersectionExampleScenario.node[8].nic.mac1609_4 	TotalLostPackets 	0
scalar IntersectionExampleScenario.node[8].nic.mac1609_4 	DroppedPacketsInMac 	0
scalar IntersectionExampleScenario.node[8].nic.mac1609_4 	TooLittleTime 	0
scalar IntersectionExampleScenario.node[8].nic.mac1609_4 	TimesIntoBackoff 	0
scalar IntersectionExampleScenario.node[8].nic.mac1609_4 	SlotsBackoff 	0
scalar IntersectionExampleScenario.node[8].nic.mac1609_4 	NumInternalContention 	0
scalar IntersectionExampleScenario.node[8].nic.mac1609_4 	totalBusyTime 	0
scalar IntersectionExampleScenario.node[8].veinsmobility 	startTime 	27
scalar IntersectionExampleScenario.node[8].veinsmobility 	totalTime 	53
scalar IntersectionExampleScenario.node[8].veinsmobility 	stopTime 	80.25
scalar IntersectionExampleScenario.node[8].veinsmobility 	minSpeed 	0
scalar IntersectionExampleScenario.node[8].veinsmobility 	maxSpeed 	15.02499961853
scalar IntersectionExampleScenario.node[8].veinsmobility 	totalDistance 	553.14878082275
scalar IntersectionExampleScenario.node[8].veinsmobility 	totalCO2Emission 	137.04355972528
scalar IntersectionExampleScenario.node[9].appl 	VehicleRemoved 	0
scalar IntersectionExampleScenario.node[9].appl 	ArrivedAtDest 	1
scalar IntersectionExampleScenario.node[9].appl 	IntersectionEnterTime 	31
scalar IntersectionExampleScenario.node[9].appl 	IntersectionExitTime 	65.291119306232
scalar IntersectionExampleScenario.node[9].appl 	NumberOfCollisions 	0
scalar IntersectionExampleScenario.node[9].nic.phy80211p 	busyTime 	0
scalar IntersectionExampleScenario.node[9].nic.mac1609_4 	ReceivedUnicastPackets 	0
scalar IntersectionExampleScenario.node[9].nic.mac1609_4 	ReceivedBroadcasts 	0
scalar IntersectionExampleScenario.node[9].nic.mac1609_4 	SentPackets 	0
scalar IntersectionExampleScenario.node[9].nic.mac1609_4 	SNIRLostPackets 	0
scalar IntersectionExampleScenario.node[9].nic.mac1609_4 	RXTXLostPackets 	0
scalar IntersectionExampleScenario.node[9].nic.mac1609_4 	TotalLostPackets 	0
scalar IntersectionExampleScenario.node[9].nic.mac1609_4 	DroppedPacketsInMac 	0
scalar IntersectionExampleScenario.node[9].nic.mac1609_4 	TooLittleTime 	0
scalar IntersectionExampleScenario.node[9].nic.mac1609_4 	TimesIntoBackoff 	0
scalar IntersectionExampleScenario.node[9].nic.mac1609_4 	SlotsBackoff 	0
scalar IntersectionExampleScenario.node[9].nic.mac1609_4 	NumInternalContention 	0
scalar IntersectionExampleScenario.node[9].nic.mac1609_4 	totalBusyTime 	0
scalar IntersectionExampleScenario.node[9].veinsmobility 	startTime 	31
scalar IntersectionExampleScenario.node[9].veinsmobility 	totalTime 	50.75
scalar IntersectionExampleScenario.node[9].veinsmobility 	stopTime 	82
scalar IntersectionExampleScenario.node[9].veinsmobility 	minSpeed 	2.2504796981812
scalar IntersectionExampleScenario.node[9].veinsmobility 	maxSpeed 	15.375
scalar IntersectionExampleScenario.node[9].veinsmobility 	totalDistance 	556.87109627102
scalar IntersectionExampleScenario.node[9].veinsmobility 	totalCO2Emission 	138.31716389639
scalar IntersectionExampleScenario.node[11].appl 	VehicleRemoved 	0
scalar IntersectionExampleScenario.node[11].appl 	ArrivedAtDest 	1
scalar IntersectionExampleScenario.node[11].appl 	IntersectionEnterTime 	35.25
scalar IntersectionExampleScenario.node[11].appl 	IntersectionExitTime 	67.299904629297
scalar IntersectionExampleScenario.node[11].appl 	NumberOfCollisions 	0
scalar IntersectionExampleScenario.node[11].nic.phy80211p 	busyTime 	0
scalar IntersectionExampleScenario.node[11].nic.mac1609_4 	ReceivedUnicastPackets 	0
scalar IntersectionExampleScenario.node[11].nic.mac1609_4 	ReceivedBroadcasts 	0
scalar IntersectionExampleScenario.node[11].nic.mac1609_4 	SentPackets 	0
scalar IntersectionExampleScenario.node[11].nic.mac1609_4 	SNIRLostPackets 	0
scalar IntersectionExampleScenario.node[11].nic.mac1609_4 	RXTXLostPackets 	0
scalar IntersectionExampleScenario.node[11].nic.mac1609_4 	TotalLostPackets 	0
scalar IntersectionExampleScenario.node[11].nic.mac1609_4 	DroppedPacketsInMac 	0
scalar IntersectionExampleScenario.node[11].nic.mac1609_4 	TooLittleTime 	0
scalar IntersectionExampleScenario.node[11].nic.mac1609_4 	TimesIntoBackoff 	0
scalar IntersectionExampleScenario.node[11].nic.mac1609_4 	SlotsBackoff 	0
scalar IntersectionExampleScenario.node[11].nic.mac1609_4 	NumInternalContention 	0
scalar IntersectionExampleScenario.node[11].nic.mac1609_4 	totalBusyTime 	0
scalar IntersectionExampleScenario.node[11].veinsmobility 	startTime 	35.25
scalar IntersectionExampleScenario.node[11].veinsmobility 	totalTime 	48.5
scalar IntersectionExampleScenario.node[11].veinsmobility 	stopTime 	84
scalar IntersectionExampleScenario.node[11].veinsmobility 	minSpeed 	0.5277361869812
scalar IntersectionExampleScenario.node[11].veinsmobility 	maxSpeed 	15.618401527405
scalar IntersectionExampleScenario.node[11].veinsmobility 	totalDistance 	552.58448660501
scalar IntersectionExampleScenario.node[11].veinsmobility 	totalCO2Emission 	143.10451800972
scalar IntersectionExampleScenario.node[14].appl 	VehicleRemoved 	0
scalar IntersectionExampleScenario.node[14].appl 	ArrivedAtDest 	1
scalar IntersectionExampleScenario.node[14].appl 	IntersectionEnterTime 	40.25
scalar IntersectionExampleScenario.node[14].appl 	IntersectionExitTime 	67.079809224408
scalar IntersectionExampleScenario.node[14].appl 	NumberOfCollisions 	0
scalar IntersectionExampleScenario.node[14].nic.phy80211p 	busyTime 	0
scalar IntersectionExampleScenario.node[14].nic.mac1609_4 	ReceivedUnicastPackets 	0
scalar IntersectionExampleScenario.node[14].nic.mac1609_4 	ReceivedBroadcasts 	0
scalar IntersectionExampleScenario.node[14].nic.mac1609_4 	SentPackets 	0
scalar IntersectionExampleScenario.node[14].nic.mac1609_4 	SNIRLostPackets 	0
scalar IntersectionExampleScenario.node[14].nic.mac1609_4 	RXTXLostPackets 	0
scalar IntersectionExampleScenario.node[14].nic.mac1609_4 	TotalLostPackets 	0
scalar IntersectionExampleScenario.node[14].nic.mac1609_4 	DroppedPacketsInMac 	0
scalar IntersectionExampleScenario.node[14].nic.mac1609_4 	TooLittleTime 	0
scalar IntersectionExampleScenario.node[14].nic.mac1609_4 	TimesIntoBackoff 	0
scalar IntersectionExampleScenario.node[14].nic.mac1609_4 	SlotsBackoff 	0
scalar IntersectionExampleScenario.node[14].nic.mac1609_4 	NumInternalContention 	0
scalar IntersectionExampleScenario.node[14].nic.mac1609_4 	totalBusyTime 	0
scalar IntersectionExampleScenario.node[14].veinsmobility 	startTime 	40.25
scalar IntersectionExampleScenario.node[14].veinsmobility 	totalTime 	43.75
scalar IntersectionExampleScenario.node[14].veinsmobility 	stopTime 	84.25
scalar IntersectionExampleScenario.node[14].veinsmobility 	minSpeed 	5.6500000953674
scalar IntersectionExampleScenario.node[14].veinsmobility 	maxSpeed 	15.02499961853
scalar IntersectionExampleScenario.node[14].veinsmobility 	totalDistance 	554.21176906822
scalar IntersectionExampleScenario.node[14].veinsmobility 	totalCO2Emission 	141.37711566509
scalar IntersectionExampleScenario.node[18].appl 	VehicleRemoved 	0
scalar IntersectionExampleScenario.node[18].appl 	ArrivedAtDest 	1
scalar IntersectionExampleScenario.node[18].appl 	IntersectionEnterTime 	45.75
scalar IntersectionExampleScenario.node[18].appl 	IntersectionExitTime 	69.100816493708
scalar IntersectionExampleScenario.node[18].appl 	NumberOfCollisions 	0
scalar IntersectionExampleScenario.node[18].nic.phy80211p 	busyTime 	0
scalar IntersectionExampleScenario.node[18].nic.mac1609_4 	ReceivedUnicastPackets 	0
scalar IntersectionExampleScenario.node[18].nic.mac1609_4 	ReceivedBroadcasts 	0
scalar IntersectionExampleScenario.node[18].nic.mac1609_4 	SentPackets 	0
scalar IntersectionExampleScenario.node[18].nic.mac1609_4 	SNIRLostPackets 	0
scalar IntersectionExampleScenario.node[18].nic.mac1609_4 	RXTXLostPackets 	0
scalar IntersectionExampleScenario.node[18].nic.mac1609_4 	TotalLostPackets 	0
scalar IntersectionExampleScenario.node[18].nic.mac1609_4 	DroppedPacketsInMac 	0
scalar IntersectionExampleScenario.node[18].nic.mac1609_4 	TooLittleTime 	0
scalar IntersectionExampleScenario.node[18].nic.mac1609_4 	TimesIntoBackoff 	0
scalar IntersectionExampleScenario.node[18].nic.mac1609_4 	SlotsBackoff 	0
scalar IntersectionExampleScenario.node[18].nic.mac1609_4 	NumInternalContention 	0
scalar IntersectionExampleScenario.node[18].nic.mac1609_4 	totalBusyTime 	0
scalar IntersectionExampleScenario.node[18].veinsmobility 	startTime 	45.75
scalar IntersectionExampleScenario.node[18].veinsmobility 	totalTime 	39.5
scalar IntersectionExampleScenario.node[18].veinsmobility 	stopTime 	85.5
scalar IntersectionExampleScenario.node[18].veinsmobility 	minSpeed 	5.6500000953674
scalar IntersectionExampleScenario.node[18].veinsmobility 	maxSpeed 	15.773347854614
scalar IntersectionExampleScenario.node[18].veinsmobility 	totalDistance 	518.59175273553
scalar IntersectionExampleScenario.node[18].veinsmobility 	totalCO2Emission 	132.9391588168
scalar IntersectionExampleScenario.node[15].appl 	VehicleRemoved 	0
scalar IntersectionExampleScenario.node[15].appl 	ArrivedAtDest 	1
scalar IntersectionExampleScenario.node[15].appl 	IntersectionEnterTime 	41.5
scalar IntersectionExampleScenario.node[15].appl 	IntersectionExitTime 	69.06990403519
scalar IntersectionExampleScenario.node[15].appl 	NumberOfCollisions 	0
scalar IntersectionExampleScenario.node[15].nic.phy80211p 	busyTime 	0
scalar IntersectionExampleScenario.node[15].nic.mac1609_4 	ReceivedUnicastPackets 	0
scalar IntersectionExampleScenario.node[15].nic.mac1609_4 	ReceivedBroadcasts 	0
scalar IntersectionExampleScenario.node[15].nic.mac1609_4 	SentPackets 	0
scalar IntersectionExampleScenario.node[15].nic.mac1609_4 	SNIRLostPackets 	0
scalar IntersectionExampleScenario.node[15].nic.mac1609_4 	RXTXLostPackets 	0
scalar IntersectionExampleScenario.node[15].nic.mac1609_4 	TotalLostPackets 	0
scalar IntersectionExampleScenario.node[15].nic.mac1609_4 	DroppedPacketsInMac 	0
scalar IntersectionExampleScenario.node[15].nic.mac1609_4 	TooLittleTime 	0
scalar IntersectionExampleScenario.node[15].nic.mac1609_4 	TimesIntoBackoff 	0
scalar IntersectionExampleScenario.node[15].nic.mac1609_4 	SlotsBackoff 	0
scalar IntersectionExampleScenario.node[15].nic.mac1609_4 	NumInternalContention 	0
scalar IntersectionExampleScenario.node[15].nic.mac1609_4 	totalBusyTime 	0
scalar IntersectionExampleScenario.node[15].veinsmobility 	startTime 	41.5
scalar IntersectionExampleScenario.node[15].veinsmobility 	totalTime 	44
scalar IntersectionExampleScenario.node[15].veinsmobility 	stopTime 	85.75
scalar IntersectionExampleScenario.node[15].veinsmobility 	minSpeed 	5.6500000953674
scalar IntersectionExampleScenario.node[15].veinsmobility 	maxSpeed 	15.02499961853
scalar IntersectionExampleScenario.node[15].veinsmobility 	totalDistance 	551.8069229126
scalar IntersectionExampleScenario.node[15].veinsmobility 	totalCO2Emission 	131.88704555884
scalar IntersectionExampleScenario.node[17].appl 	VehicleRemoved 	0
scalar IntersectionExampleScenario.node[17].appl 	ArrivedAtDest 	1
scalar IntersectionExampleScenario.node[17].appl 	IntersectionEnterTime 	44.25
scalar IntersectionExampleScenario.node[17].appl 	IntersectionExitTime 	71.098770673329
scalar IntersectionExampleScenario.node[17].appl 	NumberOfCollisions 	0
scalar IntersectionExampleScenario.node[17].nic.phy80211p 	busyTime 	0
scalar IntersectionExampleScenario.node[17].nic.mac1609_4 	ReceivedUnicastPackets 	0
scalar IntersectionExampleScenario.node[17].nic.mac1609_4 	ReceivedBroadcasts 	0
scalar IntersectionExampleScenario.node[17].nic.mac1609_4 	SentPackets 	0
scalar IntersectionExampleScenario.node[17].nic.mac1609_4 	SNIRLostPackets 	0
scalar IntersectionExampleScenario.node[17].nic.mac1609_4 	RXTXLostPackets 	0
scalar IntersectionExampleScenario.node[17].nic.mac1609_4 	TotalLostPackets 	0
scalar IntersectionExampleScenario.node[17].nic.mac1609_4 	DroppedPacketsInMac 	0
scalar IntersectionExampleScenario.node[17].nic.mac1609_4 	TooLittleTime 	0
scalar IntersectionExampleScenario.node[17].nic.mac1609_4 	TimesIntoBackoff 	0
scalar IntersectionExampleScenario.node[17].nic.mac1609_4 	SlotsBackoff 	0
scalar IntersectionExampleScenario.node[17].nic.mac1609_4 	NumInternalContention 	0
scalar IntersectionExampleScenario.node[17].nic.mac1609_4 	totalBusyTime 	0
scalar IntersectionExampleScenario.node[17].veinsmobility 	startTime 	44.25
scalar IntersectionExampleScenario.node[17].veinsmobility 	totalTime 	43
scalar IntersectionExampleScenario.node[17].veinsmobility 	stopTime 	87.5
scalar IntersectionExampleScenario.node[17].veinsmobility 	minSpeed 	5.6500000953674
scalar IntersectionExampleScenario.node[17].veinsmobility 	maxSpeed 	15.949353218079
scalar IntersectionExampleScenario.node[17].veinsmobility 	totalDistance 	559.96965909657
scalar IntersectionExampleScenario.node[17].veinsmobility 	totalCO2Emission 	139.54341357598
scalar IntersectionExampleScenario.node[16].appl 	VehicleRemoved 	0
scalar IntersectionExampleScenario.node[16].appl 	ArrivedAtDest 	1
scalar IntersectionExampleScenario.node[16].appl 	IntersectionEnterTime 	44
scalar IntersectionExampleScenario.node[16].appl 	IntersectionExitTime 	71.807689246722
scalar IntersectionExampleScenario.node[16].appl 	NumberOfCollisions 	0
scalar IntersectionExampleScenario.node[16].nic.phy80211p 	busyTime 	0
scalar IntersectionExampleScenario.node[16].nic.mac1609_4 	ReceivedUnicastPackets 	0
scalar IntersectionExampleScenario.node[16].nic.mac1609_4 	ReceivedBroadcasts 	0
scalar IntersectionExampleScenario.node[16].nic.mac1609_4 	SentPackets 	0
scalar IntersectionExampleScenario.node[16].nic.mac1609_4 	SNIRLostPackets 	0
scalar IntersectionExampleScenario.node[16].nic.mac1609_4 	RXTXLostPackets 	0
scalar IntersectionExampleScenario.node[16].nic.mac1609_4 	TotalLostPackets 	0
scalar IntersectionExampleScenario.node[16].nic.mac1609_4 	DroppedPacketsInMac 	0
scalar IntersectionExampleScenario.node[16].nic.mac1609_4 	TooLittleTime 	0
scalar IntersectionExampleScenario.node[16].nic.mac1609_4 	TimesIntoBackoff 	0
scalar IntersectionExampleScenario.node[16].nic.mac1609_4 	SlotsBackoff 	0
scalar IntersectionExampleScenario.node[16].nic.mac1609_4 	NumInternalContention 	0
scalar IntersectionExampleScenario.node[16].nic.mac1609_4 	totalBusyTime 	0
scalar IntersectionExampleScenario.node[16].veinsmobility 	startTime 	44
scalar IntersectionExampleScenario.node[16].veinsmobility 	totalTime 	44.25
scalar IntersectionExampleScenario.node[16].veinsmobility 	stopTime 	88.5
scalar IntersectionExampleScenario.node[16].veinsmobility 	minSpeed 	5.6500000953674
scalar IntersectionExampleScenario.node[16].veinsmobility 	maxSpeed 	15.539524078369
scalar IntersectionExampleScenario.node[16].veinsmobility 	totalDistance 	555.1510859576
scalar IntersectionExampleScenario.node[16].veinsmobility 	totalCO2Emission 	136.25190243117
scalar IntersectionExampleScenario.node[19].appl 	VehicleRemoved 	0
scalar IntersectionExampleScenario.node[19].appl 	ArrivedAtDest 	1
scalar IntersectionExampleScenario.node[19].appl 	IntersectionEnterTime 	46.75
scalar IntersectionExampleScenario.node[19].appl 	IntersectionExitTime 	73.267640059348
scalar IntersectionExampleScenario.node[19].appl 	NumberOfCollisions 	0
scalar IntersectionExampleScenario.node[19].nic.phy80211p 	busyTime 	0
scalar IntersectionExampleScenario.node[19].nic.mac1609_4 	ReceivedUnicastPackets 	0
scalar IntersectionExampleScenario.node[19].nic.mac1609_4 	ReceivedBroadcasts 	0
scalar IntersectionExampleScenario.node[19].nic.mac1609_4 	SentPackets 	0
scalar IntersectionExampleScenario.node[19].nic.mac1609_4 	SNIRLostPackets 	0
scalar IntersectionExampleScenario.node[19].nic.mac1609_4 	RXTXLostPackets 	0
scalar IntersectionExampleScenario.node[19].nic.mac1609_4 	TotalLostPackets 	0
scalar IntersectionExampleScenario.node[19].nic.mac1609_4 	DroppedPacketsInMac 	0
scalar IntersectionExampleScenario.node[19].nic.mac1609_4 	TooLittleTime 	0
scalar IntersectionExampleScenario.node[19].nic.mac1609_4 	TimesIntoBackoff 	0
scalar IntersectionExampleScenario.node[19].nic.mac1609_4 	SlotsBackoff 	0
scalar IntersectionExampleScenario.node[19].nic.mac1609_4 	NumInternalContention 	0
scalar IntersectionExampleScenario.node[19].nic.mac1609_4 	totalBusyTime 	0
scalar IntersectionExampleScenario.node[19].veinsmobility 	startTime 	46.75
scalar IntersectionExampleScenario.node[19].veinsmobility 	totalTime 	42.75
scalar IntersectionExampleScenario.node[19].veinsmobility 	stopTime 	89.75
scalar IntersectionExampleScenario.node[19].veinsmobility 	minSpeed 	5.6500000953674
scalar IntersectionExampleScenario.node[19].veinsmobility 	maxSpeed 	16.27499961853
scalar IntersectionExampleScenario.node[19].veinsmobility 	totalDistance 	573.65837763038
scalar IntersectionExampleScenario.node[19].veinsmobility 	totalCO2Emission 	136.92402762088
scalar IntersectionExampleScenario.node[20].appl 	VehicleRemoved 	0
scalar IntersectionExampleScenario.node[20].appl 	ArrivedAtDest 	1
scalar IntersectionExampleScenario.node[20].appl 	IntersectionEnterTime 	56
scalar IntersectionExampleScenario.node[20].appl 	IntersectionExitTime 	81.535978692613
scalar IntersectionExampleScenario.node[20].appl 	NumberOfCollisions 	0
scalar IntersectionExampleScenario.node[20].nic.phy80211p 	busyTime 	0
scalar IntersectionExampleScenario.node[20].nic.mac1609_4 	ReceivedUnicastPackets 	0
scalar IntersectionExampleScenario.node[20].nic.mac1609_4 	ReceivedBroadcasts 	0
scalar IntersectionExampleScenario.node[20].nic.mac1609_4 	SentPackets 	0
scalar IntersectionExampleScenario.node[20].nic.mac1609_4 	SNIRLostPackets 	0
scalar IntersectionExampleScenario.node[20].nic.mac1609_4 	RXTXLostPackets 	0
scalar IntersectionExampleScenario.node[20].nic.mac1609_4 	TotalLostPackets 	0
scalar IntersectionExampleScenario.node[20].nic.mac1609_4 	DroppedPacketsInMac 	0
scalar IntersectionExampleScenario.node[20].nic.mac1609_4 	TooLittleTime 	0
scalar IntersectionExampleScenario.node[20].nic.mac1609_4 	TimesIntoBackoff 	0
scalar IntersectionExampleScenario.node[20].nic.mac1609_4 	SlotsBackoff 	0
scalar IntersectionExampleScenario.node[20].nic.mac1609_4 	NumInternalContention 	0
scalar IntersectionExampleScenario.node[20].nic.mac1609_4 	totalBusyTime 	0
scalar IntersectionExampleScenario.node[20].veinsmobility 	startTime 	56
scalar IntersectionExampleScenario.node[20].veinsmobility 	totalTime 	41.5
scalar IntersectionExampleScenario.node[20].veinsmobility 	stopTime 	97.75
scalar IntersectionExampleScenario.node[20].veinsmobility 	minSpeed 	0
scalar IntersectionExampleScenario.node[20].veinsmobility 	maxSpeed 	16.5
scalar IntersectionExampleScenario.node[20].veinsmobility 	totalDistance 	545.89437772185
scalar IntersectionExampleScenario.node[20].veinsmobility 	totalCO2Emission 	142.12682831638
scalar IntersectionExampleScenario.node[22].appl 	VehicleRemoved 	0
scalar IntersectionExampleScenario.node[22].appl 	ArrivedAtDest 	1
scalar IntersectionExampleScenario.node[22].appl 	IntersectionEnterTime 	66.25
scalar IntersectionExampleScenario.node[22].appl 	IntersectionExitTime 	90.078216515249
scalar IntersectionExampleScenario.node[22].appl 	NumberOfCollisions 	0
scalar IntersectionExampleScenario.node[22].nic.phy80211p 	busyTime 	0
scalar IntersectionExampleScenario.node[22].nic.mac1609_4 	ReceivedUnicastPackets 	0
scalar IntersectionExampleScenario.node[22].nic.mac1609_4 	ReceivedBroadcasts 	0
scalar IntersectionExampleScenario.node[22].nic.mac1609_4 	SentPackets 	0
scalar IntersectionExampleScenario.node[22].nic.mac1609_4 	SNIRLostPackets 	0
scalar IntersectionExampleScenario.node[22].nic.mac1609_4 	RXTXLostPackets 	0
scalar IntersectionExampleScenario.node[22].nic.mac1609_4 	TotalLostPackets 	0
scalar IntersectionExampleScenario.node[22].nic.mac1609_4 	DroppedPacketsInMac 	0
scalar IntersectionExampleScenario.node[22].nic.mac1609_4 	TooLittleTime 	0
scalar IntersectionExampleScenario.node[22].nic.mac1609_4 	TimesIntoBackoff 	0
scalar IntersectionExampleScenario.node[22].nic.mac1609_4 	SlotsBackoff 	0
scalar IntersectionExampleScenario.node[22].nic.mac1609_4 	NumInternalContention 	0
scalar IntersectionExampleScenario.node[22].nic.mac1609_4 	totalBusyTime 	0
scalar IntersectionExampleScenario.node[22].veinsmobility 	startTime 	66.25
scalar IntersectionExampleScenario.node[22].veinsmobility 	totalTime 	40.75
scalar IntersectionExampleScenario.node[22].veinsmobility 	stopTime 	107.25
scalar IntersectionExampleScenario.node[22].veinsmobility 	minSpeed 	5.6500000953674
scalar IntersectionExampleScenario.node[22].veinsmobility 	maxSpeed 	15.25
scalar IntersectionExampleScenario.node[22].veinsmobility 	totalDistance 	545.00399096786
scalar IntersectionExampleScenario.node[22].veinsmobility 	totalCO2Emission 	124.51165240541
scalar IntersectionExampleScenario.node[24].appl 	VehicleRemoved 	0
scalar IntersectionExampleScenario.node[24].appl 	ArrivedAtDest 	1
scalar IntersectionExampleScenario.node[24].appl 	IntersectionEnterTime 	68.5
scalar IntersectionExampleScenario.node[24].appl 	IntersectionExitTime 	92.573361155111
scalar IntersectionExampleScenario.node[24].appl 	NumberOfCollisions 	0
scalar IntersectionExampleScenario.node[24].nic.phy80211p 	busyTime 	0
scalar IntersectionExampleScenario.node[24].nic.mac1609_4 	ReceivedUnicastPackets 	0
scalar IntersectionExampleScenario.node[24].nic.mac1609_4 	ReceivedBroadcasts 	0
scalar IntersectionExampleScenario.node[24].nic.mac1609_4 	SentPackets 	0
scalar IntersectionExampleScenario.node[24].nic.mac1609_4 	SNIRLostPackets 	0
scalar IntersectionExampleScenario.node[24].nic.mac1609_4 	RXTXLostPackets 	0
scalar IntersectionExampleScenario.node[24].nic.mac1609_4 	TotalLostPackets 	0
scalar IntersectionExampleScenario.node[24].nic.mac1609_4 	DroppedPacketsInMac 	0
scalar IntersectionExampleScenario.node[24].nic.mac1609_4 	TooLittleTime 	0
scalar IntersectionExampleScenario.node[24].nic.mac1609_4 	TimesIntoBackoff 	0
scalar IntersectionExampleScenario.node[24].nic.mac1609_4 	SlotsBackoff 	0
scalar IntersectionExampleScenario.node[24].nic.mac1609_4 	NumInternalContention 	0
scalar IntersectionExampleScenario.node[24].nic.mac1609_4 	totalBusyTime 	0
scalar IntersectionExampleScenario.node[24].veinsmobility 	startTime 	68.5
scalar IntersectionExampleScenario.node[24].veinsmobility 	totalTime 	40
scalar IntersectionExampleScenario.node[24].veinsmobility 	stopTime 	108.75
scalar IntersectionExampleScenario.node[24].veinsmobility 	minSpeed 	5.6500000953674
scalar IntersectionExampleScenario.node[24].veinsmobility 	maxSpeed 	15.531284332275
scalar IntersectionExampleScenario.node[24].veinsmobility 	totalDistance 	569.96719360352
scalar IntersectionExampleScenario.node[24].veinsmobility 	totalCO2Emission 	125.87826851205
scalar IntersectionExampleScenario.node[25].appl 	VehicleRemoved 	0
scalar IntersectionExampleScenario.node[25].appl 	ArrivedAtDest 	1
scalar IntersectionExampleScenario.node[25].appl 	IntersectionEnterTime 	68.75
scalar IntersectionExampleScenario.node[25].appl 	IntersectionExitTime 	92.265913185809
scalar IntersectionExampleScenario.node[25].appl 	NumberOfCollisions 	0
scalar IntersectionExampleScenario.node[25].nic.phy80211p 	busyTime 	0
scalar IntersectionExampleScenario.node[25].nic.mac1609_4 	ReceivedUnicastPackets 	0
scalar IntersectionExampleScenario.node[25].nic.mac1609_4 	ReceivedBroadcasts 	0
scalar IntersectionExampleScenario.node[25].nic.mac1609_4 	SentPackets 	0
scalar IntersectionExampleScenario.node[25].nic.mac1609_4 	SNIRLostPackets 	0
scalar IntersectionExampleScenario.node[25].nic.mac1609_4 	RXTXLostPackets 	0
scalar IntersectionExampleScenario.node[25].nic.mac1609_4 	TotalLostPackets 	0
scalar IntersectionExampleScenario.node[25].nic.mac1609_4 	DroppedPacketsInMac 	0
scalar IntersectionExampleScenario.node[25].nic.mac1609_4 	TooLittleTime 	0
scalar IntersectionExampleScenario.node[25].nic.mac1609_4 	TimesIntoBackoff 	0
scalar IntersectionExampleScenario.node[25].nic.mac1609_4 	SlotsBackoff 	0
scalar IntersectionExampleScenario.node[25].nic.mac1609_4 	NumInternalContention 	0
scalar IntersectionExampleScenario.node[25].nic.mac1609_4 	totalBusyTime 	0
scalar IntersectionExampleScenario.node[25].veinsmobility 	startTime 	68.75
scalar IntersectionExampleScenario.node[25].veinsmobility 	totalTime 	40
scalar IntersectionExampleScenario.node[25].veinsmobility 	stopTime 	109
scalar IntersectionExampleScenario.node[25].veinsmobility 	minSpeed 	5.6500000953674
scalar IntersectionExampleScenario.node[25].veinsmobility 	maxSpeed 	15.02499961853
scalar IntersectionExampleScenario.node[25].veinsmobility 	totalDistance 	551.98734283447
scalar IntersectionExampleScenario.node[25].veinsmobility 	totalCO2Emission 	113.58977997837
scalar IntersectionExampleScenario.node[28].appl 	VehicleRemoved 	0
scalar IntersectionExampleScenario.node[28].appl 	ArrivedAtDest 	1
scalar IntersectionExampleScenario.node[28].appl 	IntersectionEnterTime 	74.25
scalar IntersectionExampleScenario.node[28].appl 	IntersectionExitTime 	97.075526940724
scalar IntersectionExampleScenario.node[28].appl 	NumberOfCollisions 	0
scalar IntersectionExampleScenario.node[28].nic.phy80211p 	busyTime 	0
scalar IntersectionExampleScenario.node[28].nic.mac1609_4 	ReceivedUnicastPackets 	0
scalar IntersectionExampleScenario.node[28].nic.mac1609_4 	ReceivedBroadcasts 	0
scalar IntersectionExampleScenario.node[28].nic.mac1609_4 	SentPackets 	0
scalar IntersectionExampleScenario.node[28].nic.mac1609_4 	SNIRLostPackets 	0
scalar IntersectionExampleScenario.node[28].nic.mac1609_4 	RXTXLostPackets 	0
scalar IntersectionExampleScenario.node[28].nic.mac1609_4 	TotalLostPackets 	0
scalar IntersectionExampleScenario.node[28].nic.mac1609_4 	DroppedPacketsInMac 	0
scalar IntersectionExampleScenario.node[28].nic.mac1609_4 	TooLittleTime 	0
scalar IntersectionExampleScenario.node[28].nic.mac1609_4 	TimesIntoBackoff 	0
scalar IntersectionExampleScenario.node[28].nic.mac1609_4 	SlotsBackoff 	0
scalar IntersectionExampleScenario.node[28].nic.mac1609_4 	NumInternalContention 	0
scalar IntersectionExampleScenario.node[28].nic.mac1609_4 	totalBusyTime 	0
scalar IntersectionExampleScenario.node[28].veinsmobility 	startTime 	74.25
scalar IntersectionExampleScenario.node[28].veinsmobility 	totalTime 	38.5
scalar IntersectionExampleScenario.node[28].veinsmobility 	stopTime 	113
scalar IntersectionExampleScenario.node[28].veinsmobility 	minSpeed 	5.6500000953674
scalar IntersectionExampleScenario.node[28].veinsmobility 	maxSpeed 	15.64999961853
scalar IntersectionExampleScenario.node[28].veinsmobility 	totalDistance 	551.47227478027
scalar IntersectionExampleScenario.node[28].veinsmobility 	totalCO2Emission 	118.04986185828
scalar IntersectionExampleScenario.node[21].appl 	VehicleRemoved 	0
scalar IntersectionExampleScenario.node[21].appl 	ArrivedAtDest 	1
scalar IntersectionExampleScenario.node[21].appl 	IntersectionEnterTime 	61
scalar IntersectionExampleScenario.node[21].appl 	IntersectionExitTime 	100.52142048438
scalar IntersectionExampleScenario.node[21].appl 	NumberOfCollisions 	0
scalar IntersectionExampleScenario.node[21].nic.phy80211p 	busyTime 	0
scalar IntersectionExampleScenario.node[21].nic.mac1609_4 	ReceivedUnicastPackets 	0
scalar IntersectionExampleScenario.node[21].nic.mac1609_4 	ReceivedBroadcasts 	0
scalar IntersectionExampleScenario.node[21].nic.mac1609_4 	SentPackets 	0
scalar IntersectionExampleScenario.node[21].nic.mac1609_4 	SNIRLostPackets 	0
scalar IntersectionExampleScenario.node[21].nic.mac1609_4 	RXTXLostPackets 	0
scalar IntersectionExampleScenario.node[21].nic.mac1609_4 	TotalLostPackets 	0
scalar IntersectionExampleScenario.node[21].nic.mac1609_4 	DroppedPacketsInMac 	0
scalar IntersectionExampleScenario.node[21].nic.mac1609_4 	TooLittleTime 	0
scalar IntersectionExampleScenario.node[21].nic.mac1609_4 	TimesIntoBackoff 	0
scalar IntersectionExampleScenario.node[21].nic.mac1609_4 	SlotsBackoff 	0
scalar IntersectionExampleScenario.node[21].nic.mac1609_4 	NumInternalContention 	0
scalar IntersectionExampleScenario.node[21].nic.mac1609_4 	totalBusyTime 	0
scalar IntersectionExampleScenario.node[21].veinsmobility 	startTime 	61
scalar IntersectionExampleScenario.node[21].veinsmobility 	totalTime 	56.25
scalar IntersectionExampleScenario.node[21].veinsmobility 	stopTime 	117.5
scalar IntersectionExampleScenario.node[21].veinsmobility 	minSpeed 	0
scalar IntersectionExampleScenario.node[21].veinsmobility 	maxSpeed 	15.875
scalar IntersectionExampleScenario.node[21].veinsmobility 	totalDistance 	545.64202023894
scalar IntersectionExampleScenario.node[21].veinsmobility 	totalCO2Emission 	148.7064204671
scalar IntersectionExampleScenario.node[23].appl 	VehicleRemoved 	0
scalar IntersectionExampleScenario.node[23].appl 	ArrivedAtDest 	1
scalar IntersectionExampleScenario.node[23].appl 	IntersectionEnterTime 	66.75
scalar IntersectionExampleScenario.node[23].appl 	IntersectionExitTime 	102.8518956991
scalar IntersectionExampleScenario.node[23].appl 	NumberOfCollisions 	0
scalar IntersectionExampleScenario.node[23].nic.phy80211p 	busyTime 	0
scalar IntersectionExampleScenario.node[23].nic.mac1609_4 	ReceivedUnicastPackets 	0
scalar IntersectionExampleScenario.node[23].nic.mac1609_4 	ReceivedBroadcasts 	0
scalar IntersectionExampleScenario.node[23].nic.mac1609_4 	SentPackets 	0
scalar IntersectionExampleScenario.node[23].nic.mac1609_4 	SNIRLostPackets 	0
scalar IntersectionExampleScenario.node[23].nic.mac1609_4 	RXTXLostPackets 	0
scalar IntersectionExampleScenario.node[23].nic.mac1609_4 	TotalLostPackets 	0
scalar IntersectionExampleScenario.node[23].nic.mac1609_4 	DroppedPacketsInMac 	0
scalar IntersectionExampleScenario.node[23].nic.mac1609_4 	TooLittleTime 	0
scalar IntersectionExampleScenario.node[23].nic.mac1609_4 	TimesIntoBackoff 	0
scalar IntersectionExampleScenario.node[23].nic.mac1609_4 	SlotsBackoff 	0
scalar IntersectionExampleScenario.node[23].nic.mac1609_4 	NumInternalContention 	0
scalar IntersectionExampleScenario.node[23].nic.mac1609_4 	totalBusyTime 	0
scalar IntersectionExampleScenario.node[23].veinsmobility 	startTime 	66.75
scalar IntersectionExampleScenario.node[23].veinsmobility 	totalTime 	53
scalar IntersectionExampleScenario.node[23].veinsmobility 	stopTime 	120
scalar IntersectionExampleScenario.node[23].veinsmobility 	minSpeed 	0
scalar IntersectionExampleScenario.node[23].veinsmobility 	maxSpeed 	15.02499961853
scalar IntersectionExampleScenario.node[23].veinsmobility 	totalDistance 	551.04957826557
scalar IntersectionExampleScenario.node[23].veinsmobility 	totalCO2Emission 	140.97223581861
scalar IntersectionExampleScenario.node[26].appl 	VehicleRemoved 	0
scalar IntersectionExampleScenario.node[26].appl 	ArrivedAtDest 	1
scalar IntersectionExampleScenario.node[26].appl 	IntersectionEnterTime 	72
scalar IntersectionExampleScenario.node[26].appl 	IntersectionExitTime 	105.07897896346
scalar IntersectionExampleScenario.node[26].appl 	NumberOfCollisions 	0
scalar IntersectionExampleScenario.node[26].nic.phy80211p 	busyTime 	0
scalar IntersectionExampleScenario.node[26].nic.mac1609_4 	ReceivedUnicastPackets 	0
scalar IntersectionExampleScenario.node[26].nic.mac1609_4 	ReceivedBroadcasts 	0
scalar IntersectionExampleScenario.node[26].nic.mac1609_4 	SentPackets 	0
scalar IntersectionExampleScenario.node[26].nic.mac1609_4 	SNIRLostPackets 	0
scalar IntersectionExampleScenario.node[26].nic.mac1609_4 	RXTXLostPackets 	0
scalar IntersectionExampleScenario.node[26].nic.mac1609_4 	TotalLostPackets 	0
scalar IntersectionExampleScenario.node[26].nic.mac1609_4 	DroppedPacketsInMac 	0
scalar IntersectionExampleScenario.node[26].nic.mac1609_4 	TooLittleTime 	0
scalar IntersectionExampleScenario.node[26].nic.mac1609_4 	TimesIntoBackoff 	0
scalar IntersectionExampleScenario.node[26].nic.mac1609_4 	SlotsBackoff 	0
scalar IntersectionExampleScenario.node[26].nic.mac1609_4 	NumInternalContention 	0
scalar IntersectionExampleScenario.node[26].nic.mac1609_4 	totalBusyTime 	0
scalar IntersectionExampleScenario.node[26].veinsmobility 	startTime 	72
scalar IntersectionExampleScenario.node[26].veinsmobility 	totalTime 	50.5
scalar IntersectionExampleScenario.node[26].veinsmobility 	stopTime 	122.75
scalar IntersectionExampleScenario.node[26].veinsmobility 	minSpeed 	0
scalar IntersectionExampleScenario.node[26].veinsmobility 	maxSpeed 	15.02499961853
scalar IntersectionExampleScenario.node[26].veinsmobility 	totalDistance 	546.00334941324
scalar IntersectionExampleScenario.node[26].veinsmobility 	totalCO2Emission 	141.42956007461
scalar IntersectionExampleScenario.node[27].appl 	VehicleRemoved 	0
scalar IntersectionExampleScenario.node[27].appl 	ArrivedAtDest 	1
scalar IntersectionExampleScenario.node[27].appl 	IntersectionEnterTime 	72.75
scalar IntersectionExampleScenario.node[27].appl 	IntersectionExitTime 	106.80083444086
scalar IntersectionExampleScenario.node[27].appl 	NumberOfCollisions 	0
scalar IntersectionExampleScenario.node[27].nic.phy80211p 	busyTime 	0
scalar IntersectionExampleScenario.node[27].nic.mac1609_4 	ReceivedUnicastPackets 	0
scalar IntersectionExampleScenario.node[27].nic.mac1609_4 	ReceivedBroadcasts 	0
scalar IntersectionExampleScenario.node[27].nic.mac1609_4 	SentPackets 	0
scalar IntersectionExampleScenario.node[27].nic.mac1609_4 	SNIRLostPackets 	0
scalar IntersectionExampleScenario.node[27].nic.mac1609_4 	RXTXLostPackets 	0
scalar IntersectionExampleScenario.node[27].nic.mac1609_4 	TotalLostPackets 	0
scalar IntersectionExampleScenario.node[27].nic.mac1609_4 	DroppedPacketsInMac 	0
scalar IntersectionExampleScenario.node[27].nic.mac1609_4 	TooLittleTime 	0
scalar IntersectionExampleScenario.node[27].nic.mac1609_4 	TimesIntoBackoff 	0
scalar IntersectionExampleScenario.node[27].nic.mac1609_4 	SlotsBackoff 	0
scalar IntersectionExampleScenario.node[27].nic.mac1609_4 	NumInternalContention 	0
scalar IntersectionExampleScenario.node[27].nic.mac1609_4 	totalBusyTime 	0
scalar IntersectionExampleScenario.node[27].veinsmobility 	startTime 	72.75
scalar IntersectionExampleScenario.node[27].veinsmobility 	totalTime 	51
scalar IntersectionExampleScenario.node[27].veinsmobility 	stopTime 	124
scalar IntersectionExampleScenario.node[27].veinsmobility 	minSpeed 	1.3837320804596
scalar IntersectionExampleScenario.node[27].veinsmobility 	maxSpeed 	15.891296386719
scalar IntersectionExampleScenario.node[27].veinsmobility 	totalDistance 	550.11005929655
scalar IntersectionExampleScenario.node[27].veinsmobility 	totalCO2Emission 	147.5086596417
scalar IntersectionExampleScenario.node[32].appl 	VehicleRemoved 	0
scalar IntersectionExampleScenario.node[32].appl 	ArrivedAtDest 	1
scalar IntersectionExampleScenario.node[32].appl 	IntersectionEnterTime 	83.5
scalar IntersectionExampleScenario.node[32].appl 	IntersectionExitTime 	107.35521654412
scalar IntersectionExampleScenario.node[32].appl 	NumberOfCollisions 	0
scalar IntersectionExampleScenario.node[32].nic.phy80211p 	busyTime 	0
scalar IntersectionExampleScenario.node[32].nic.mac1609_4 	ReceivedUnicastPackets 	0
scalar IntersectionExampleScenario.node[32].nic.mac1609_4 	ReceivedBroadcasts 	0
scalar IntersectionExampleScenario.node[32].nic.mac1609_4 	SentPackets 	0
scalar IntersectionExampleScenario.node[32].nic.mac1609_4 	SNIRLostPackets 	0
scalar IntersectionExampleScenario.node[32].nic.mac1609_4 	RXTXLostPackets 	0
scalar IntersectionExampleScenario.node[32].nic.mac1609_4 	TotalLostPackets 	0
scalar IntersectionExampleScenario.node[32].nic.mac1609_4 	DroppedPacketsInMac 	0
scalar IntersectionExampleScenario.node[32].nic.mac1609_4 	TooLittleTime 	0
scalar IntersectionExampleScenario.node[32].nic.mac1609_4 	TimesIntoBackoff 	0
scalar IntersectionExampleScenario.node[32].nic.mac1609_4 	SlotsBackoff 	0
scalar IntersectionExampleScenario.node[32].nic.mac1609_4 	NumInternalContention 	0
scalar IntersectionExampleScenario.node[32].nic.mac1609_4 	totalBusyTime 	0
scalar IntersectionExampleScenario.node[32].veinsmobility 	startTime 	83.5
scalar IntersectionExampleScenario.node[32].veinsmobility 	totalTime 	40.75
scalar IntersectionExampleScenario.node[32].veinsmobility 	stopTime 	124.5
scalar IntersectionExampleScenario.node[32].veinsmobility 	minSpeed 	5.6500000953674
scalar IntersectionExampleScenario.node[32].veinsmobility 	maxSpeed 	15.074703216553
scalar IntersectionExampleScenario.node[32].veinsmobility 	totalDistance 	552.33607153175
scalar IntersectionExampleScenario.node[32].veinsmobility 	totalCO2Emission 	124.94374791855
scalar IntersectionExampleScenario.node[34].appl 	VehicleRemoved 	0
scalar IntersectionExampleScenario.node[34].appl 	ArrivedAtDest 	1
scalar IntersectionExampleScenario.node[34].appl 	IntersectionEnterTime 	86.75
scalar IntersectionExampleScenario.node[34].appl 	IntersectionExitTime 	110.10893500689
scalar IntersectionExampleScenario.node[34].appl 	NumberOfCollisions 	0
scalar IntersectionExampleScenario.node[34].nic.phy80211p 	busyTime 	0
scalar IntersectionExampleScenario.node[34].nic.mac1609_4 	ReceivedUnicastPackets 	0
scalar IntersectionExampleScenario.node[34].nic.mac1609_4 	ReceivedBroadcasts 	0
scalar IntersectionExampleScenario.node[34].nic.mac1609_4 	SentPackets 	0
scalar IntersectionExampleScenario.node[34].nic.mac1609_4 	SNIRLostPackets 	0
scalar IntersectionExampleScenario.node[34].nic.mac1609_4 	RXTXLostPackets 	0
scalar IntersectionExampleScenario.node[34].nic.mac1609_4 	TotalLostPackets 	0
scalar IntersectionExampleScenario.node[34].nic.mac1609_4 	DroppedPacketsInMac 	0
scalar IntersectionExampleScenario.node[34].nic.mac1609_4 	TooLittleTime 	0
scalar IntersectionExampleScenario.node[34].nic.mac1609_4 	TimesIntoBackoff 	0
scalar IntersectionExampleScenario.node[34].nic.mac1609_4 	SlotsBackoff 	0
scalar IntersectionExampleScenario.node[34].nic.mac1609_4 	NumInternalContention 	0
scalar IntersectionExampleScenario.node[34].nic.mac1609_4 	totalBusyTime 	0
scalar IntersectionExampleScenario.node[34].veinsmobility 	startTime 	86.75
scalar IntersectionExampleScenario.node[34].veinsmobility 	totalTime 	39.5
scalar IntersectionExampleScenario.node[34].veinsmobility 	stopTime 	126.5
scalar IntersectionExampleScenario.node[34].veinsmobility 	minSpeed 	5.6500000953674
scalar IntersectionExampleScenario.node[34].veinsmobility 	maxSpeed 	15.5
scalar IntersectionExampleScenario.node[34].veinsmobility 	totalDistance 	553.58957672119
scalar IntersectionExampleScenario.node[34].veinsmobility 	totalCO2Emission 	118.83220511136
scalar IntersectionExampleScenario.node[36].appl 	VehicleRemoved 	0
scalar IntersectionExampleScenario.node[36].appl 	ArrivedAtDest 	1
scalar IntersectionExampleScenario.node[36].appl 	IntersectionEnterTime 	88.5
scalar IntersectionExampleScenario.node[36].appl 	IntersectionExitTime 	112.27785080639
scalar IntersectionExampleScenario.node[36].appl 	NumberOfCollisions 	0
scalar IntersectionExampleScenario.node[36].nic.phy80211p 	busyTime 	0
scalar IntersectionExampleScenario.node[36].nic.mac1609_4 	ReceivedUnicastPackets 	0
scalar IntersectionExampleScenario.node[36].nic.mac1609_4 	ReceivedBroadcasts 	0
scalar IntersectionExampleScenario.node[36].nic.mac1609_4 	SentPackets 	0
scalar IntersectionExampleScenario.node[36].nic.mac1609_4 	SNIRLostPackets 	0
scalar IntersectionExampleScenario.node[36].nic.mac1609_4 	RXTXLostPackets 	0
scalar IntersectionExampleScenario.node[36].nic.mac1609_4 	TotalLostPackets 	0
scalar IntersectionExampleScenario.node[36].nic.mac1609_4 	DroppedPacketsInMac 	0
scalar IntersectionExampleScenario.node[36].nic.mac1609_4 	TooLittleTime 	0
scalar IntersectionExampleScenario.node[36].nic.mac1609_4 	TimesIntoBackoff 	0
scalar IntersectionExampleScenario.node[36].nic.mac1609_4 	SlotsBackoff 	0
scalar IntersectionExampleScenario.node[36].nic.mac1609_4 	NumInternalContention 	0
scalar IntersectionExampleScenario.node[36].nic.mac1609_4 	totalBusyTime 	0
scalar IntersectionExampleScenario.node[36].veinsmobility 	startTime 	88.5
scalar IntersectionExampleScenario.node[36].veinsmobility 	totalTime 	40.75
scalar IntersectionExampleScenario.node[36].veinsmobility 	stopTime 	129.5
scalar IntersectionExampleScenario.node[36].veinsmobility 	minSpeed 	5.6500000953674
scalar IntersectionExampleScenario.node[36].veinsmobility 	maxSpeed 	15.02499961853
scalar IntersectionExampleScenario.node[36].veinsmobility 	totalDistance 	550.90992376574
scalar IntersectionExampleScenario.node[36].veinsmobility 	totalCO2Emission 	119.02187878506
scalar IntersectionExampleScenario.node[38].appl 	VehicleRemoved 	0
scalar IntersectionExampleScenario.node[38].appl 	ArrivedAtDest 	1
scalar IntersectionExampleScenario.node[38].appl 	IntersectionEnterTime 	92
scalar IntersectionExampleScenario.node[38].appl 	IntersectionExitTime 	115.62496192683
scalar IntersectionExampleScenario.node[38].appl 	NumberOfCollisions 	0
scalar IntersectionExampleScenario.node[38].nic.phy80211p 	busyTime 	0
scalar IntersectionExampleScenario.node[38].nic.mac1609_4 	ReceivedUnicastPackets 	0
scalar IntersectionExampleScenario.node[38].nic.mac1609_4 	ReceivedBroadcasts 	0
scalar IntersectionExampleScenario.node[38].nic.mac1609_4 	SentPackets 	0
scalar IntersectionExampleScenario.node[38].nic.mac1609_4 	SNIRLostPackets 	0
scalar IntersectionExampleScenario.node[38].nic.mac1609_4 	RXTXLostPackets 	0
scalar IntersectionExampleScenario.node[38].nic.mac1609_4 	TotalLostPackets 	0
scalar IntersectionExampleScenario.node[38].nic.mac1609_4 	DroppedPacketsInMac 	0
scalar IntersectionExampleScenario.node[38].nic.mac1609_4 	TooLittleTime 	0
scalar IntersectionExampleScenario.node[38].nic.mac1609_4 	TimesIntoBackoff 	0
scalar IntersectionExampleScenario.node[38].nic.mac1609_4 	SlotsBackoff 	0
scalar IntersectionExampleScenario.node[38].nic.mac1609_4 	NumInternalContention 	0
scalar IntersectionExampleScenario.node[38].nic.mac1609_4 	totalBusyTime 	0
scalar IntersectionExampleScenario.node[38].veinsmobility 	startTime 	92
scalar IntersectionExampleScenario.node[38].veinsmobility 	totalTime 	40
scalar IntersectionExampleScenario.node[38].veinsmobility 	stopTime 	132.25
scalar IntersectionExampleScenario.node[38].veinsmobility 	minSpeed 	5.6500000953674
scalar IntersectionExampleScenario.node[38].veinsmobility 	maxSpeed 	15.02499961853
scalar IntersectionExampleScenario.node[38].veinsmobility 	totalDistance 	551.1623916626
scalar IntersectionExampleScenario.node[38].veinsmobility 	totalCO2Emission 	113.5050478188
scalar IntersectionExampleScenario.node[40].appl 	VehicleRemoved 	0
scalar IntersectionExampleScenario.node[40].appl 	ArrivedAtDest 	1
scalar IntersectionExampleScenario.node[40].appl 	IntersectionEnterTime 	92.25
scalar IntersectionExampleScenario.node[40].appl 	IntersectionExitTime 	116.83606571791
scalar IntersectionExampleScenario.node[40].appl 	NumberOfCollisions 	0
scalar IntersectionExampleScenario.node[40].nic.phy80211p 	busyTime 	0
scalar IntersectionExampleScenario.node[40].nic.mac1609_4 	ReceivedUnicastPackets 	0
scalar IntersectionExampleScenario.node[40].nic.mac1609_4 	ReceivedBroadcasts 	0
scalar IntersectionExampleScenario.node[40].nic.mac1609_4 	SentPackets 	0
scalar IntersectionExampleScenario.node[40].nic.mac1609_4 	SNIRLostPackets 	0
scalar IntersectionExampleScenario.node[40].nic.mac1609_4 	RXTXLostPackets 	0
scalar IntersectionExampleScenario.node[40].nic.mac1609_4 	TotalLostPackets 	0
scalar IntersectionExampleScenario.node[40].nic.mac1609_4 	DroppedPacketsInMac 	0
scalar IntersectionExampleScenario.node[40].nic.mac1609_4 	TooLittleTime 	0
scalar IntersectionExampleScenario.node[40].nic.mac1609_4 	TimesIntoBackoff 	0
scalar IntersectionExampleScenario.node[40].nic.mac1609_4 	SlotsBackoff 	0
scalar IntersectionExampleScenario.node[40].nic.mac1609_4 	NumInternalContention 	0
scalar IntersectionExampleScenario.node[40].nic.mac1609_4 	totalBusyTime 	0
scalar IntersectionExampleScenario.node[40].veinsmobility 	startTime 	92.25
scalar IntersectionExampleScenario.node[40].veinsmobility 	totalTime 	41
scalar IntersectionExampleScenario.node[40].veinsmobility 	stopTime 	133.5
scalar IntersectionExampleScenario.node[40].veinsmobility 	minSpeed 	5.6500000953674
scalar IntersectionExampleScenario.node[40].veinsmobility 	maxSpeed 	15.931277275085
scalar IntersectionExampleScenario.node[40].veinsmobility 	totalDistance 	576.34676361084
scalar IntersectionExampleScenario.node[40].veinsmobility 	totalCO2Emission 	123.77761210005
scalar IntersectionExampleScenario.node[41].appl 	VehicleRemoved 	0
scalar IntersectionExampleScenario.node[41].appl 	ArrivedAtDest 	1
scalar IntersectionExampleScenario.node[41].appl 	IntersectionEnterTime 	96.5
scalar IntersectionExampleScenario.node[41].appl 	IntersectionExitTime 	118.75645861551
scalar IntersectionExampleScenario.node[41].appl 	NumberOfCollisions 	0
scalar IntersectionExampleScenario.node[41].nic.phy80211p 	busyTime 	0
scalar IntersectionExampleScenario.node[41].nic.mac1609_4 	ReceivedUnicastPackets 	0
scalar IntersectionExampleScenario.node[41].nic.mac1609_4 	ReceivedBroadcasts 	0
scalar IntersectionExampleScenario.node[41].nic.mac1609_4 	SentPackets 	0
scalar IntersectionExampleScenario.node[41].nic.mac1609_4 	SNIRLostPackets 	0
scalar IntersectionExampleScenario.node[41].nic.mac1609_4 	RXTXLostPackets 	0
scalar IntersectionExampleScenario.node[41].nic.mac1609_4 	TotalLostPackets 	0
scalar IntersectionExampleScenario.node[41].nic.mac1609_4 	DroppedPacketsInMac 	0
scalar IntersectionExampleScenario.node[41].nic.mac1609_4 	TooLittleTime 	0
scalar IntersectionExampleScenario.node[41].nic.mac1609_4 	TimesIntoBackoff 	0
scalar IntersectionExampleScenario.node[41].nic.mac1609_4 	SlotsBackoff 	0
scalar IntersectionExampleScenario.node[41].nic.mac1609_4 	NumInternalContention 	0
scalar IntersectionExampleScenario.node[41].nic.mac1609_4 	totalBusyTime 	0
scalar IntersectionExampleScenario.node[41].veinsmobility 	startTime 	96.5
scalar IntersectionExampleScenario.node[41].veinsmobility 	totalTime 	37.75
scalar IntersectionExampleScenario.node[41].veinsmobility 	stopTime 	134.5
scalar IntersectionExampleScenario.node[41].veinsmobility 	minSpeed 	5.6500000953674
scalar IntersectionExampleScenario.node[41].veinsmobility 	maxSpeed 	16.27499961853
scalar IntersectionExampleScenario.node[41].veinsmobility 	totalDistance 	552.00889587402
scalar IntersectionExampleScenario.node[41].veinsmobility 	totalCO2Emission 	120.97041624491
scalar IntersectionExampleScenario.node[30].appl 	VehicleRemoved 	0
scalar IntersectionExampleScenario.node[30].appl 	ArrivedAtDest 	1
scalar IntersectionExampleScenario.node[30].appl 	IntersectionEnterTime 	78.5
scalar IntersectionExampleScenario.node[30].appl 	IntersectionExitTime 	121.30302292589
scalar IntersectionExampleScenario.node[30].appl 	NumberOfCollisions 	0
scalar IntersectionExampleScenario.node[30].nic.phy80211p 	busyTime 	0
scalar IntersectionExampleScenario.node[30].nic.mac1609_4 	ReceivedUnicastPackets 	0
scalar IntersectionExampleScenario.node[30].nic.mac1609_4 	ReceivedBroadcasts 	0
scalar IntersectionExampleScenario.node[30].nic.mac1609_4 	SentPackets 	0
scalar IntersectionExampleScenario.node[30].nic.mac1609_4 	SNIRLostPackets 	0
scalar IntersectionExampleScenario.node[30].nic.mac1609_4 	RXTXLostPackets 	0
scalar IntersectionExampleScenario.node[30].nic.mac1609_4 	TotalLostPackets 	0
scalar IntersectionExampleScenario.node[30].nic.mac1609_4 	DroppedPacketsInMac 	0
scalar IntersectionExampleScenario.node[30].nic.mac1609_4 	TooLittleTime 	0
scalar IntersectionExampleScenario.node[30].nic.mac1609_4 	TimesIntoBackoff 	0
scalar IntersectionExampleScenario.node[30].nic.mac1609_4 	SlotsBackoff 	0
scalar IntersectionExampleScenario.node[30].nic.mac1609_4 	NumInternalContention 	0
scalar IntersectionExampleScenario.node[30].nic.mac1609_4 	totalBusyTime 	0
scalar IntersectionExampleScenario.node[30].veinsmobility 	startTime 	78.5
scalar IntersectionExampleScenario.node[30].veinsmobility 	totalTime 	59
scalar IntersectionExampleScenario.node[30].veinsmobility 	stopTime 	137.75
scalar IntersectionExampleScenario.node[30].veinsmobility 	minSpeed 	0
scalar IntersectionExampleScenario.node[30].veinsmobility 	maxSpeed 	15.375
scalar IntersectionExampleScenario.node[30].veinsmobility 	totalDistance 	553.37906646729
scalar IntersectionExampleScenario.node[30].veinsmobility 	totalCO2Emission 	150.23766168584
scalar IntersectionExampleScenario.node[29].appl 	VehicleRemoved 	0
scalar IntersectionExampleScenario.node[29].appl 	ArrivedAtDest 	1
scalar IntersectionExampleScenario.node[29].appl 	IntersectionEnterTime 	77.25
scalar IntersectionExampleScenario.node[29].appl 	IntersectionExitTime 	121.33791405629
scalar IntersectionExampleScenario.node[29].appl 	NumberOfCollisions 	0
scalar IntersectionExampleScenario.node[29].nic.phy80211p 	busyTime 	0
scalar IntersectionExampleScenario.node[29].nic.mac1609_4 	ReceivedUnicastPackets 	0
scalar IntersectionExampleScenario.node[29].nic.mac1609_4 	ReceivedBroadcasts 	0
scalar IntersectionExampleScenario.node[29].nic.mac1609_4 	SentPackets 	0
scalar IntersectionExampleScenario.node[29].nic.mac1609_4 	SNIRLostPackets 	0
scalar IntersectionExampleScenario.node[29].nic.mac1609_4 	RXTXLostPackets 	0
scalar IntersectionExampleScenario.node[29].nic.mac1609_4 	TotalLostPackets 	0
scalar IntersectionExampleScenario.node[29].nic.mac1609_4 	DroppedPacketsInMac 	0
scalar IntersectionExampleScenario.node[29].nic.mac1609_4 	TooLittleTime 	0
scalar IntersectionExampleScenario.node[29].nic.mac1609_4 	TimesIntoBackoff 	0
scalar IntersectionExampleScenario.node[29].nic.mac1609_4 	SlotsBackoff 	0
scalar IntersectionExampleScenario.node[29].nic.mac1609_4 	NumInternalContention 	0
scalar IntersectionExampleScenario.node[29].nic.mac1609_4 	totalBusyTime 	0
scalar IntersectionExampleScenario.node[29].veinsmobility 	startTime 	77.25
scalar IntersectionExampleScenario.node[29].veinsmobility 	totalTime 	60.75
scalar IntersectionExampleScenario.node[29].veinsmobility 	stopTime 	138.25
scalar IntersectionExampleScenario.node[29].veinsmobility 	minSpeed 	0
scalar IntersectionExampleScenario.node[29].veinsmobility 	maxSpeed 	15.02499961853
scalar IntersectionExampleScenario.node[29].veinsmobility 	totalDistance 	566.98564147949
scalar IntersectionExampleScenario.node[29].veinsmobility 	totalCO2Emission 	149.39511229551
scalar IntersectionExampleScenario.node[31].appl 	VehicleRemoved 	0
scalar IntersectionExampleScenario.node[31].appl 	ArrivedAtDest 	1
scalar IntersectionExampleScenario.node[31].appl 	IntersectionEnterTime 	80
scalar IntersectionExampleScenario.node[31].appl 	IntersectionExitTime 	122.29075074373
scalar IntersectionExampleScenario.node[31].appl 	NumberOfCollisions 	0
scalar IntersectionExampleScenario.node[31].nic.phy80211p 	busyTime 	0
scalar IntersectionExampleScenario.node[31].nic.mac1609_4 	ReceivedUnicastPackets 	0
scalar IntersectionExampleScenario.node[31].nic.mac1609_4 	ReceivedBroadcasts 	0
scalar IntersectionExampleScenario.node[31].nic.mac1609_4 	SentPackets 	0
scalar IntersectionExampleScenario.node[31].nic.mac1609_4 	SNIRLostPackets 	0
scalar IntersectionExampleScenario.node[31].nic.mac1609_4 	RXTXLostPackets 	0
scalar IntersectionExampleScenario.node[31].nic.mac1609_4 	TotalLostPackets 	0
scalar IntersectionExampleScenario.node[31].nic.mac1609_4 	DroppedPacketsInMac 	0
scalar IntersectionExampleScenario.node[31].nic.mac1609_4 	TooLittleTime 	0
scalar IntersectionExampleScenario.node[31].nic.mac1609_4 	TimesIntoBackoff 	0
scalar IntersectionExampleScenario.node[31].nic.mac1609_4 	SlotsBackoff 	0
scalar IntersectionExampleScenario.node[31].nic.mac1609_4 	NumInternalContention 	0
scalar IntersectionExampleScenario.node[31].nic.mac1609_4 	totalBusyTime 	0
scalar IntersectionExampleScenario.node[31].veinsmobility 	startTime 	80
scalar IntersectionExampleScenario.node[31].veinsmobility 	totalTime 	58.75
scalar IntersectionExampleScenario.node[31].veinsmobility 	stopTime 	139
scalar IntersectionExampleScenario.node[31].veinsmobility 	minSpeed 	0
scalar IntersectionExampleScenario.node[31].veinsmobility 	maxSpeed 	15.375
scalar IntersectionExampleScenario.node[31].veinsmobility 	totalDistance 	572.49197887993
scalar IntersectionExampleScenario.node[31].veinsmobility 	totalCO2Emission 	153.17273353436
scalar IntersectionExampleScenario.node[37].appl 	VehicleRemoved 	0
scalar IntersectionExampleScenario.node[37].appl 	ArrivedAtDest 	1
scalar IntersectionExampleScenario.node[37].appl 	IntersectionEnterTime 	91.25
scalar IntersectionExampleScenario.node[37].appl 	IntersectionExitTime 	124.10958678825
scalar IntersectionExampleScenario.node[37].appl 	NumberOfCollisions 	0
scalar IntersectionExampleScenario.node[37].nic.phy80211p 	busyTime 	0
scalar IntersectionExampleScenario.node[37].nic.mac1609_4 	ReceivedUnicastPackets 	0
scalar IntersectionExampleScenario.node[37].nic.mac1609_4 	ReceivedBroadcasts 	0
scalar IntersectionExampleScenario.node[37].nic.mac1609_4 	SentPackets 	0
scalar IntersectionExampleScenario.node[37].nic.mac1609_4 	SNIRLostPackets 	0
scalar IntersectionExampleScenario.node[37].nic.mac1609_4 	RXTXLostPackets 	0
scalar IntersectionExampleScenario.node[37].nic.mac1609_4 	TotalLostPackets 	0
scalar IntersectionExampleScenario.node[37].nic.mac1609_4 	DroppedPacketsInMac 	0
scalar IntersectionExampleScenario.node[37].nic.mac1609_4 	TooLittleTime 	0
scalar IntersectionExampleScenario.node[37].nic.mac1609_4 	TimesIntoBackoff 	0
scalar IntersectionExampleScenario.node[37].nic.mac1609_4 	SlotsBackoff 	0
scalar IntersectionExampleScenario.node[37].nic.mac1609_4 	NumInternalContention 	0
scalar IntersectionExampleScenario.node[37].nic.mac1609_4 	totalBusyTime 	0
scalar IntersectionExampleScenario.node[37].veinsmobility 	startTime 	91.25
scalar IntersectionExampleScenario.node[37].veinsmobility 	totalTime 	48.5
scalar IntersectionExampleScenario.node[37].veinsmobility 	stopTime 	140
scalar IntersectionExampleScenario.node[37].veinsmobility 	minSpeed 	1.4698367118835
scalar IntersectionExampleScenario.node[37].veinsmobility 	maxSpeed 	16.89999961853
scalar IntersectionExampleScenario.node[37].veinsmobility 	totalDistance 	545.67355005618
scalar IntersectionExampleScenario.node[37].veinsmobility 	totalCO2Emission 	148.55283683162
scalar IntersectionExampleScenario.node[39].appl 	VehicleRemoved 	0
scalar IntersectionExampleScenario.node[39].appl 	ArrivedAtDest 	1
scalar IntersectionExampleScenario.node[39].appl 	IntersectionEnterTime 	92
scalar IntersectionExampleScenario.node[39].appl 	IntersectionExitTime 	125.79571212552
scalar IntersectionExampleScenario.node[39].appl 	NumberOfCollisions 	0
scalar IntersectionExampleScenario.node[39].nic.phy80211p 	busyTime 	0
scalar IntersectionExampleScenario.node[39].nic.mac1609_4 	ReceivedUnicastPackets 	0
scalar IntersectionExampleScenario.node[39].nic.mac1609_4 	ReceivedBroadcasts 	0
scalar IntersectionExampleScenario.node[39].nic.mac1609_4 	SentPackets 	0
scalar IntersectionExampleScenario.node[39].nic.mac1609_4 	SNIRLostPackets 	0
scalar IntersectionExampleScenario.node[39].nic.mac1609_4 	RXTXLostPackets 	0
scalar IntersectionExampleScenario.node[39].nic.mac1609_4 	TotalLostPackets 	0
scalar IntersectionExampleScenario.node[39].nic.mac1609_4 	DroppedPacketsInMac 	0
scalar IntersectionExampleScenario.node[39].nic.mac1609_4 	TooLittleTime 	0
[...]
scalar IntersectionExampleScenario.node[643].veinsmobility 	minSpeed 	5.6500000953674
scalar IntersectionExampleScenario.node[643].veinsmobility 	maxSpeed 	15.02499961853
scalar IntersectionExampleScenario.node[643].veinsmobility 	totalDistance 	232.30127716064
scalar IntersectionExampleScenario.node[643].veinsmobility 	totalCO2Emission 	57.311920458314
scalar IntersectionExampleScenario.node[644].appl 	VehicleRemoved 	0
scalar IntersectionExampleScenario.node[644].appl 	ArrivedAtDest 	0
scalar IntersectionExampleScenario.node[644].appl 	IntersectionEnterTime 	1783.25
scalar IntersectionExampleScenario.node[644].appl 	IntersectionExitTime 	-1
scalar IntersectionExampleScenario.node[644].appl 	NumberOfCollisions 	0
scalar IntersectionExampleScenario.node[644].nic.phy80211p 	busyTime 	0
scalar IntersectionExampleScenario.node[644].nic.mac1609_4 	ReceivedUnicastPackets 	0
scalar IntersectionExampleScenario.node[644].nic.mac1609_4 	ReceivedBroadcasts 	0
scalar IntersectionExampleScenario.node[644].nic.mac1609_4 	SentPackets 	0
scalar IntersectionExampleScenario.node[644].nic.mac1609_4 	SNIRLostPackets 	0
scalar IntersectionExampleScenario.node[644].nic.mac1609_4 	RXTXLostPackets 	0
scalar IntersectionExampleScenario.node[644].nic.mac1609_4 	TotalLostPackets 	0
scalar IntersectionExampleScenario.node[644].nic.mac1609_4 	DroppedPacketsInMac 	0
scalar IntersectionExampleScenario.node[644].nic.mac1609_4 	TooLittleTime 	0
scalar IntersectionExampleScenario.node[644].nic.mac1609_4 	TimesIntoBackoff 	0
scalar IntersectionExampleScenario.node[644].nic.mac1609_4 	SlotsBackoff 	0
scalar IntersectionExampleScenario.node[644].nic.mac1609_4 	NumInternalContention 	0
scalar IntersectionExampleScenario.node[644].nic.mac1609_4 	totalBusyTime 	0
scalar IntersectionExampleScenario.node[644].veinsmobility 	startTime 	1783.25
scalar IntersectionExampleScenario.node[644].veinsmobility 	totalTime 	16.75
scalar IntersectionExampleScenario.node[644].veinsmobility 	stopTime 	1800
scalar IntersectionExampleScenario.node[644].veinsmobility 	minSpeed 	5.6500000953674
scalar IntersectionExampleScenario.node[644].veinsmobility 	maxSpeed 	15.02499961853
scalar IntersectionExampleScenario.node[644].veinsmobility 	totalDistance 	224.3786315918
scalar IntersectionExampleScenario.node[644].veinsmobility 	totalCO2Emission 	52.30373903996
scalar IntersectionExampleScenario.node[645].appl 	VehicleRemoved 	0
scalar IntersectionExampleScenario.node[645].appl 	ArrivedAtDest 	0
scalar IntersectionExampleScenario.node[645].appl 	IntersectionEnterTime 	1785
scalar IntersectionExampleScenario.node[645].appl 	IntersectionExitTime 	-1
scalar IntersectionExampleScenario.node[645].appl 	NumberOfCollisions 	0
scalar IntersectionExampleScenario.node[645].nic.phy80211p 	busyTime 	0
scalar IntersectionExampleScenario.node[645].nic.mac1609_4 	ReceivedUnicastPackets 	0
scalar IntersectionExampleScenario.node[645].nic.mac1609_4 	ReceivedBroadcasts 	0
scalar IntersectionExampleScenario.node[645].nic.mac1609_4 	SentPackets 	0
scalar IntersectionExampleScenario.node[645].nic.mac1609_4 	SNIRLostPackets 	0
scalar IntersectionExampleScenario.node[645].nic.mac1609_4 	RXTXLostPackets 	0
scalar IntersectionExampleScenario.node[645].nic.mac1609_4 	TotalLostPackets 	0
scalar IntersectionExampleScenario.node[645].nic.mac1609_4 	DroppedPacketsInMac 	0
scalar IntersectionExampleScenario.node[645].nic.mac1609_4 	TooLittleTime 	0
scalar IntersectionExampleScenario.node[645].nic.mac1609_4 	TimesIntoBackoff 	0
scalar IntersectionExampleScenario.node[645].nic.mac1609_4 	SlotsBackoff 	0
scalar IntersectionExampleScenario.node[645].nic.mac1609_4 	NumInternalContention 	0
scalar IntersectionExampleScenario.node[645].nic.mac1609_4 	totalBusyTime 	0
scalar IntersectionExampleScenario.node[645].veinsmobility 	startTime 	1785
scalar IntersectionExampleScenario.node[645].veinsmobility 	totalTime 	15
scalar IntersectionExampleScenario.node[645].veinsmobility 	stopTime 	1800
scalar IntersectionExampleScenario.node[645].veinsmobility 	minSpeed 	5.6500000953674
scalar IntersectionExampleScenario.node[645].veinsmobility 	maxSpeed 	15.582270622253
scalar IntersectionExampleScenario.node[645].veinsmobility 	totalDistance 	210.18682861328
scalar IntersectionExampleScenario.node[645].veinsmobility 	totalCO2Emission 	57.845227364166
scalar IntersectionExampleScenario.node[646].appl 	VehicleRemoved 	0
scalar IntersectionExampleScenario.node[646].appl 	ArrivedAtDest 	0
scalar IntersectionExampleScenario.node[646].appl 	IntersectionEnterTime 	1786.5
scalar IntersectionExampleScenario.node[646].appl 	IntersectionExitTime 	-1
scalar IntersectionExampleScenario.node[646].appl 	NumberOfCollisions 	0
scalar IntersectionExampleScenario.node[646].nic.phy80211p 	busyTime 	0
scalar IntersectionExampleScenario.node[646].nic.mac1609_4 	ReceivedUnicastPackets 	0
scalar IntersectionExampleScenario.node[646].nic.mac1609_4 	ReceivedBroadcasts 	0
scalar IntersectionExampleScenario.node[646].nic.mac1609_4 	SentPackets 	0
scalar IntersectionExampleScenario.node[646].nic.mac1609_4 	SNIRLostPackets 	0
scalar IntersectionExampleScenario.node[646].nic.mac1609_4 	RXTXLostPackets 	0
scalar IntersectionExampleScenario.node[646].nic.mac1609_4 	TotalLostPackets 	0
scalar IntersectionExampleScenario.node[646].nic.mac1609_4 	DroppedPacketsInMac 	0
scalar IntersectionExampleScenario.node[646].nic.mac1609_4 	TooLittleTime 	0
scalar IntersectionExampleScenario.node[646].nic.mac1609_4 	TimesIntoBackoff 	0
scalar IntersectionExampleScenario.node[646].nic.mac1609_4 	SlotsBackoff 	0
scalar IntersectionExampleScenario.node[646].nic.mac1609_4 	NumInternalContention 	0
scalar IntersectionExampleScenario.node[646].nic.mac1609_4 	totalBusyTime 	0
scalar IntersectionExampleScenario.node[646].veinsmobility 	startTime 	1786.5
scalar IntersectionExampleScenario.node[646].veinsmobility 	totalTime 	13.5
scalar IntersectionExampleScenario.node[646].veinsmobility 	stopTime 	1800
scalar IntersectionExampleScenario.node[646].veinsmobility 	minSpeed 	5.6500000953674
scalar IntersectionExampleScenario.node[646].veinsmobility 	maxSpeed 	15.64999961853
scalar IntersectionExampleScenario.node[646].veinsmobility 	totalDistance 	188.07583618164
scalar IntersectionExampleScenario.node[646].veinsmobility 	totalCO2Emission 	52.723750025263
scalar IntersectionExampleScenario.node[647].appl 	VehicleRemoved 	0
scalar IntersectionExampleScenario.node[647].appl 	ArrivedAtDest 	0
scalar IntersectionExampleScenario.node[647].appl 	IntersectionEnterTime 	1789.5
scalar IntersectionExampleScenario.node[647].appl 	IntersectionExitTime 	-1
scalar IntersectionExampleScenario.node[647].appl 	NumberOfCollisions 	0
scalar IntersectionExampleScenario.node[647].nic.phy80211p 	busyTime 	0
scalar IntersectionExampleScenario.node[647].nic.mac1609_4 	ReceivedUnicastPackets 	0
scalar IntersectionExampleScenario.node[647].nic.mac1609_4 	ReceivedBroadcasts 	0
scalar IntersectionExampleScenario.node[647].nic.mac1609_4 	SentPackets 	0
scalar IntersectionExampleScenario.node[647].nic.mac1609_4 	SNIRLostPackets 	0
scalar IntersectionExampleScenario.node[647].nic.mac1609_4 	RXTXLostPackets 	0
scalar IntersectionExampleScenario.node[647].nic.mac1609_4 	TotalLostPackets 	0
scalar IntersectionExampleScenario.node[647].nic.mac1609_4 	DroppedPacketsInMac 	0
scalar IntersectionExampleScenario.node[647].nic.mac1609_4 	TooLittleTime 	0
scalar IntersectionExampleScenario.node[647].nic.mac1609_4 	TimesIntoBackoff 	0
scalar IntersectionExampleScenario.node[647].nic.mac1609_4 	SlotsBackoff 	0
scalar IntersectionExampleScenario.node[647].nic.mac1609_4 	NumInternalContention 	0
scalar IntersectionExampleScenario.node[647].nic.mac1609_4 	totalBusyTime 	0
scalar IntersectionExampleScenario.node[647].veinsmobility 	startTime 	1789.5
scalar IntersectionExampleScenario.node[647].veinsmobility 	totalTime 	10.5
scalar IntersectionExampleScenario.node[647].veinsmobility 	stopTime 	1800
scalar IntersectionExampleScenario.node[647].veinsmobility 	minSpeed 	5.6500000953674
scalar IntersectionExampleScenario.node[647].veinsmobility 	maxSpeed 	16.27499961853
scalar IntersectionExampleScenario.node[647].veinsmobility 	totalDistance 	143.78475189209
scalar IntersectionExampleScenario.node[647].veinsmobility 	totalCO2Emission 	48.748941541178
scalar IntersectionExampleScenario.node[648].appl 	VehicleRemoved 	0
scalar IntersectionExampleScenario.node[648].appl 	ArrivedAtDest 	0
scalar IntersectionExampleScenario.node[648].appl 	IntersectionEnterTime 	1790.5
scalar IntersectionExampleScenario.node[648].appl 	IntersectionExitTime 	-1
scalar IntersectionExampleScenario.node[648].appl 	NumberOfCollisions 	0
scalar IntersectionExampleScenario.node[648].nic.phy80211p 	busyTime 	0
scalar IntersectionExampleScenario.node[648].nic.mac1609_4 	ReceivedUnicastPackets 	0
scalar IntersectionExampleScenario.node[648].nic.mac1609_4 	ReceivedBroadcasts 	0
scalar IntersectionExampleScenario.node[648].nic.mac1609_4 	SentPackets 	0
scalar IntersectionExampleScenario.node[648].nic.mac1609_4 	SNIRLostPackets 	0
scalar IntersectionExampleScenario.node[648].nic.mac1609_4 	RXTXLostPackets 	0
scalar IntersectionExampleScenario.node[648].nic.mac1609_4 	TotalLostPackets 	0
scalar IntersectionExampleScenario.node[648].nic.mac1609_4 	DroppedPacketsInMac 	0
scalar IntersectionExampleScenario.node[648].nic.mac1609_4 	TooLittleTime 	0
scalar IntersectionExampleScenario.node[648].nic.mac1609_4 	TimesIntoBackoff 	0
scalar IntersectionExampleScenario.node[648].nic.mac1609_4 	SlotsBackoff 	0
scalar IntersectionExampleScenario.node[648].nic.mac1609_4 	NumInternalContention 	0
scalar IntersectionExampleScenario.node[648].nic.mac1609_4 	totalBusyTime 	0
scalar IntersectionExampleScenario.node[648].veinsmobility 	startTime 	1790.5
scalar IntersectionExampleScenario.node[648].veinsmobility 	totalTime 	9.5
scalar IntersectionExampleScenario.node[648].veinsmobility 	stopTime 	1800
scalar IntersectionExampleScenario.node[648].veinsmobility 	minSpeed 	5.6500000953674
scalar IntersectionExampleScenario.node[648].veinsmobility 	maxSpeed 	15.02499961853
scalar IntersectionExampleScenario.node[648].veinsmobility 	totalDistance 	122.33152008057
scalar IntersectionExampleScenario.node[648].veinsmobility 	totalCO2Emission 	42.107425866837
scalar IntersectionExampleScenario.node[649].appl 	VehicleRemoved 	0
scalar IntersectionExampleScenario.node[649].appl 	ArrivedAtDest 	0
scalar IntersectionExampleScenario.node[649].appl 	IntersectionEnterTime 	1791.25
scalar IntersectionExampleScenario.node[649].appl 	IntersectionExitTime 	-1
scalar IntersectionExampleScenario.node[649].appl 	NumberOfCollisions 	0
scalar IntersectionExampleScenario.node[649].nic.phy80211p 	busyTime 	0
scalar IntersectionExampleScenario.node[649].nic.mac1609_4 	ReceivedUnicastPackets 	0
scalar IntersectionExampleScenario.node[649].nic.mac1609_4 	ReceivedBroadcasts 	0
scalar IntersectionExampleScenario.node[649].nic.mac1609_4 	SentPackets 	0
scalar IntersectionExampleScenario.node[649].nic.mac1609_4 	SNIRLostPackets 	0
scalar IntersectionExampleScenario.node[649].nic.mac1609_4 	RXTXLostPackets 	0
scalar IntersectionExampleScenario.node[649].nic.mac1609_4 	TotalLostPackets 	0
scalar IntersectionExampleScenario.node[649].nic.mac1609_4 	DroppedPacketsInMac 	0
scalar IntersectionExampleScenario.node[649].nic.mac1609_4 	TooLittleTime 	0
scalar IntersectionExampleScenario.node[649].nic.mac1609_4 	TimesIntoBackoff 	0
scalar IntersectionExampleScenario.node[649].nic.mac1609_4 	SlotsBackoff 	0
scalar IntersectionExampleScenario.node[649].nic.mac1609_4 	NumInternalContention 	0
scalar IntersectionExampleScenario.node[649].nic.mac1609_4 	totalBusyTime 	0
scalar IntersectionExampleScenario.node[649].veinsmobility 	startTime 	1791.25
scalar IntersectionExampleScenario.node[649].veinsmobility 	totalTime 	8.75
scalar IntersectionExampleScenario.node[649].veinsmobility 	stopTime 	1800
scalar IntersectionExampleScenario.node[649].veinsmobility 	minSpeed 	5.6500000953674
scalar IntersectionExampleScenario.node[649].veinsmobility 	maxSpeed 	15.64999961853
scalar IntersectionExampleScenario.node[649].veinsmobility 	totalDistance 	113.15380859375
scalar IntersectionExampleScenario.node[649].veinsmobility 	totalCO2Emission 	42.201744254709
scalar IntersectionExampleScenario.node[650].appl 	VehicleRemoved 	0
scalar IntersectionExampleScenario.node[650].appl 	ArrivedAtDest 	0
scalar IntersectionExampleScenario.node[650].appl 	IntersectionEnterTime 	1793.5
scalar IntersectionExampleScenario.node[650].appl 	IntersectionExitTime 	-1
scalar IntersectionExampleScenario.node[650].appl 	NumberOfCollisions 	0
scalar IntersectionExampleScenario.node[650].nic.phy80211p 	busyTime 	0
scalar IntersectionExampleScenario.node[650].nic.mac1609_4 	ReceivedUnicastPackets 	0
scalar IntersectionExampleScenario.node[650].nic.mac1609_4 	ReceivedBroadcasts 	0
scalar IntersectionExampleScenario.node[650].nic.mac1609_4 	SentPackets 	0
scalar IntersectionExampleScenario.node[650].nic.mac1609_4 	SNIRLostPackets 	0
scalar IntersectionExampleScenario.node[650].nic.mac1609_4 	RXTXLostPackets 	0
scalar IntersectionExampleScenario.node[650].nic.mac1609_4 	TotalLostPackets 	0
scalar IntersectionExampleScenario.node[650].nic.mac1609_4 	DroppedPacketsInMac 	0
scalar IntersectionExampleScenario.node[650].nic.mac1609_4 	TooLittleTime 	0
scalar IntersectionExampleScenario.node[650].nic.mac1609_4 	TimesIntoBackoff 	0
scalar IntersectionExampleScenario.node[650].nic.mac1609_4 	SlotsBackoff 	0
scalar IntersectionExampleScenario.node[650].nic.mac1609_4 	NumInternalContention 	0
scalar IntersectionExampleScenario.node[650].nic.mac1609_4 	totalBusyTime 	0
scalar IntersectionExampleScenario.node[650].veinsmobility 	startTime 	1793.5
scalar IntersectionExampleScenario.node[650].veinsmobility 	totalTime 	6.5
scalar IntersectionExampleScenario.node[650].veinsmobility 	stopTime 	1800
scalar IntersectionExampleScenario.node[650].veinsmobility 	minSpeed 	5.6500000953674
scalar IntersectionExampleScenario.node[650].veinsmobility 	maxSpeed 	15.721350669861
scalar IntersectionExampleScenario.node[650].veinsmobility 	totalDistance 	79.221557617188
scalar IntersectionExampleScenario.node[650].veinsmobility 	totalCO2Emission 	38.625316977273
scalar IntersectionExampleScenario.node[651].appl 	VehicleRemoved 	0
scalar IntersectionExampleScenario.node[651].appl 	ArrivedAtDest 	0
scalar IntersectionExampleScenario.node[651].appl 	IntersectionEnterTime 	1794
scalar IntersectionExampleScenario.node[651].appl 	IntersectionExitTime 	-1
scalar IntersectionExampleScenario.node[651].appl 	NumberOfCollisions 	0
scalar IntersectionExampleScenario.node[651].nic.phy80211p 	busyTime 	0
scalar IntersectionExampleScenario.node[651].nic.mac1609_4 	ReceivedUnicastPackets 	0
scalar IntersectionExampleScenario.node[651].nic.mac1609_4 	ReceivedBroadcasts 	0
scalar IntersectionExampleScenario.node[651].nic.mac1609_4 	SentPackets 	0
scalar IntersectionExampleScenario.node[651].nic.mac1609_4 	SNIRLostPackets 	0
scalar IntersectionExampleScenario.node[651].nic.mac1609_4 	RXTXLostPackets 	0
scalar IntersectionExampleScenario.node[651].nic.mac1609_4 	TotalLostPackets 	0
scalar IntersectionExampleScenario.node[651].nic.mac1609_4 	DroppedPacketsInMac 	0
scalar IntersectionExampleScenario.node[651].nic.mac1609_4 	TooLittleTime 	0
scalar IntersectionExampleScenario.node[651].nic.mac1609_4 	TimesIntoBackoff 	0
scalar IntersectionExampleScenario.node[651].nic.mac1609_4 	SlotsBackoff 	0
scalar IntersectionExampleScenario.node[651].nic.mac1609_4 	NumInternalContention 	0
scalar IntersectionExampleScenario.node[651].nic.mac1609_4 	totalBusyTime 	0
scalar IntersectionExampleScenario.node[651].veinsmobility 	startTime 	1794
scalar IntersectionExampleScenario.node[651].veinsmobility 	totalTime 	6
scalar IntersectionExampleScenario.node[651].veinsmobility 	stopTime 	1800
scalar IntersectionExampleScenario.node[651].veinsmobility 	minSpeed 	5.5818343162537
scalar IntersectionExampleScenario.node[651].veinsmobility 	maxSpeed 	15.124231338501
scalar IntersectionExampleScenario.node[651].veinsmobility 	totalDistance 	56.969116210938
scalar IntersectionExampleScenario.node[651].veinsmobility 	totalCO2Emission 	33.586075551493
scalar IntersectionExampleScenario.node[652].appl 	VehicleRemoved 	0
scalar IntersectionExampleScenario.node[652].appl 	ArrivedAtDest 	0
scalar IntersectionExampleScenario.node[652].appl 	IntersectionEnterTime 	1797.5
scalar IntersectionExampleScenario.node[652].appl 	IntersectionExitTime 	-1
scalar IntersectionExampleScenario.node[652].appl 	NumberOfCollisions 	0
scalar IntersectionExampleScenario.node[652].nic.phy80211p 	busyTime 	0
scalar IntersectionExampleScenario.node[652].nic.mac1609_4 	ReceivedUnicastPackets 	0
scalar IntersectionExampleScenario.node[652].nic.mac1609_4 	ReceivedBroadcasts 	0
scalar IntersectionExampleScenario.node[652].nic.mac1609_4 	SentPackets 	0
scalar IntersectionExampleScenario.node[652].nic.mac1609_4 	SNIRLostPackets 	0
scalar IntersectionExampleScenario.node[652].nic.mac1609_4 	RXTXLostPackets 	0
scalar IntersectionExampleScenario.node[652].nic.mac1609_4 	TotalLostPackets 	0
scalar IntersectionExampleScenario.node[652].nic.mac1609_4 	DroppedPacketsInMac 	0
scalar IntersectionExampleScenario.node[652].nic.mac1609_4 	TooLittleTime 	0
scalar IntersectionExampleScenario.node[652].nic.mac1609_4 	TimesIntoBackoff 	0
scalar IntersectionExampleScenario.node[652].nic.mac1609_4 	SlotsBackoff 	0
scalar IntersectionExampleScenario.node[652].nic.mac1609_4 	NumInternalContention 	0
scalar IntersectionExampleScenario.node[652].nic.mac1609_4 	totalBusyTime 	0
scalar IntersectionExampleScenario.node[652].veinsmobility 	startTime 	1797.5
scalar IntersectionExampleScenario.node[652].veinsmobility 	totalTime 	2.5
scalar IntersectionExampleScenario.node[652].veinsmobility 	stopTime 	1800
scalar IntersectionExampleScenario.node[652].veinsmobility 	minSpeed 	5.6500000953674
scalar IntersectionExampleScenario.node[652].veinsmobility 	maxSpeed 	11.27499961853
scalar IntersectionExampleScenario.node[652].veinsmobility 	totalDistance 	20.374992370605
scalar IntersectionExampleScenario.node[652].veinsmobility 	totalCO2Emission 	15.500237724595
scalar IntersectionExampleScenario.node[653].appl 	VehicleRemoved 	0
scalar IntersectionExampleScenario.node[653].appl 	ArrivedAtDest 	0
scalar IntersectionExampleScenario.node[653].appl 	IntersectionEnterTime 	1800
scalar IntersectionExampleScenario.node[653].appl 	IntersectionExitTime 	-1
scalar IntersectionExampleScenario.node[653].appl 	NumberOfCollisions 	0
scalar IntersectionExampleScenario.node[653].nic.phy80211p 	busyTime 	nan
scalar IntersectionExampleScenario.node[653].nic.mac1609_4 	ReceivedUnicastPackets 	0
scalar IntersectionExampleScenario.node[653].nic.mac1609_4 	ReceivedBroadcasts 	0
scalar IntersectionExampleScenario.node[653].nic.mac1609_4 	SentPackets 	0
scalar IntersectionExampleScenario.node[653].nic.mac1609_4 	SNIRLostPackets 	0
scalar IntersectionExampleScenario.node[653].nic.mac1609_4 	RXTXLostPackets 	0
scalar IntersectionExampleScenario.node[653].nic.mac1609_4 	TotalLostPackets 	0
scalar IntersectionExampleScenario.node[653].nic.mac1609_4 	DroppedPacketsInMac 	0
scalar IntersectionExampleScenario.node[653].nic.mac1609_4 	TooLittleTime 	0
scalar IntersectionExampleScenario.node[653].nic.mac1609_4 	TimesIntoBackoff 	0
scalar IntersectionExampleScenario.node[653].nic.mac1609_4 	SlotsBackoff 	0
scalar IntersectionExampleScenario.node[653].nic.mac1609_4 	NumInternalContention 	0
scalar IntersectionExampleScenario.node[653].nic.mac1609_4 	totalBusyTime 	0
scalar IntersectionExampleScenario.node[653].veinsmobility 	startTime 	1800
scalar IntersectionExampleScenario.node[653].veinsmobility 	totalTime 	0
scalar IntersectionExampleScenario.node[653].veinsmobility 	stopTime 	1800
scalar IntersectionExampleScenario.node[653].veinsmobility 	totalDistance 	0
scalar IntersectionExampleScenario.node[653].veinsmobility 	totalCO2Emission 	0
