version 2
run nodebug-46-20200606-22:12:39-21964
attr configname nodebug
attr datetime 20200606-22:12:39
attr experiment nodebug
attr inifile omnetpp.ini
attr iterationvars ""
attr iterationvars2 $repetition=46
attr measurement ""
attr network "\"org.car2x.veins.modules.application.ExtTraCIScenarioManagerLaunchd.IntersectionExampleScenario\""
attr processid 21964
attr repetition 46
attr replication #46
attr resultdir results
attr runnumber 46
attr seedset 46
param **.coreDebug false
param **.debug false
param *.**.nic.mac1609_4.bitrate 18Mbps
param *.**.nic.mac1609_4.txPower 20mW
param *.**.nic.mac1609_4.useServiceChannel false
param *.**.nic.phy80211p.analogueModels "xmldoc(\"config.xml\")"
param *.**.nic.phy80211p.decider "xmldoc(\"config.xml\")"
param *.**.nic.phy80211p.sensitivity -89dBm
param *.**.nic.phy80211p.thermalNoise -110dBm
param *.**.nic.phy80211p.usePropagationDelay true
param *.**.nic.phy80211p.useThermalNoise true
param *.annotations.draw false
param *.connectionManager.alpha 2.0
param *.connectionManager.carrierFrequency "5.890e9 Hz"
param *.connectionManager.pMax 20mW
param *.connectionManager.sat -89dBm
param *.connectionManager.sendDirect true
param *.manager.autoShutdown true
param *.manager.host "\"localhost\""
param *.manager.launchConfig "xmldoc(\"paramics.launchd.xml\")"
param *.manager.margin 25
param *.manager.moduleDisplayString "\"\""
param *.manager.moduleName "\"node\""
param *.manager.moduleType "\"org.car2x.veins.nodes.Car\""
param *.manager.port 9999
param *.manager.updateInterval 250ms
param *.node[*0].veinsmobility.accidentCount 0
param *.node[*0].veinsmobility.accidentDuration 30s
param *.node[*0].veinsmobility.accidentStart 75s
param *.node[*].appl.LiderSelectZoneRadio 55.0
param *.node[*].appl.ShareDataZoneRadio 110.0
param *.node[*].appl.TiempoSemaforo 30.0
param *.node[*].appl.beaconInterval 1s
param *.node[*].appl.beaconPriority 3
param *.node[*].appl.dataOnSch false
param *.node[*].appl.dataPriority 2
param *.node[*].appl.debug false
param *.node[*].appl.headerLength "256 bit"
param *.node[*].appl.maxOffset 0.005s
param *.node[*].appl.sendBeacons false
param *.node[*].appl.sendData true
param *.node[*].applType "\"Dummy\""
param *.node[*].mobilityType "\"TraCIMobility\""
param *.node[*].mobilityType.debug true
param *.node[*].veinsmobility.x 0
param *.node[*].veinsmobility.y 0
param *.node[*].veinsmobility.z 1.895
param *.node[*].veinsmobilityType "\"org.car2x.veins.modules.mobility.traci.TraCIMobility\""
param *.node[*].veinsmobilityType.debug true
param *.playgroundSizeX 8500m
param *.playgroundSizeY 8500m
param *.playgroundSizeZ 50m
param *.world.use2D false
param *.world.useTorus false

scalar IntersectionExampleScenario.node[0].appl 	VehicleRemoved 	0
scalar IntersectionExampleScenario.node[0].appl 	ArrivedAtDest 	1
scalar IntersectionExampleScenario.node[0].appl 	IntersectionEnterTime 	1.75
scalar IntersectionExampleScenario.node[0].appl 	IntersectionExitTime 	25.844759483414
scalar IntersectionExampleScenario.node[0].appl 	NumberOfCollisions 	0
scalar IntersectionExampleScenario.node[0].nic.phy80211p 	busyTime 	0
scalar IntersectionExampleScenario.node[0].nic.mac1609_4 	ReceivedUnicastPackets 	0
scalar IntersectionExampleScenario.node[0].nic.mac1609_4 	ReceivedBroadcasts 	0
scalar IntersectionExampleScenario.node[0].nic.mac1609_4 	SentPackets 	0
scalar IntersectionExampleScenario.node[0].nic.mac1609_4 	SNIRLostPackets 	0
scalar IntersectionExampleScenario.node[0].nic.mac1609_4 	RXTXLostPackets 	0
scalar IntersectionExampleScenario.node[0].nic.mac1609_4 	TotalLostPackets 	0
scalar IntersectionExampleScenario.node[0].nic.mac1609_4 	DroppedPacketsInMac 	0
scalar IntersectionExampleScenario.node[0].nic.mac1609_4 	TooLittleTime 	0
scalar IntersectionExampleScenario.node[0].nic.mac1609_4 	TimesIntoBackoff 	0
scalar IntersectionExampleScenario.node[0].nic.mac1609_4 	SlotsBackoff 	0
scalar IntersectionExampleScenario.node[0].nic.mac1609_4 	NumInternalContention 	0
scalar IntersectionExampleScenario.node[0].nic.mac1609_4 	totalBusyTime 	0
scalar IntersectionExampleScenario.node[0].veinsmobility 	startTime 	1.75
scalar IntersectionExampleScenario.node[0].veinsmobility 	totalTime 	41.25
scalar IntersectionExampleScenario.node[0].veinsmobility 	stopTime 	43.25
scalar IntersectionExampleScenario.node[0].veinsmobility 	minSpeed 	5.6500000953674
scalar IntersectionExampleScenario.node[0].veinsmobility 	maxSpeed 	15.25
scalar IntersectionExampleScenario.node[0].veinsmobility 	totalDistance 	545.93427181771
scalar IntersectionExampleScenario.node[0].veinsmobility 	totalCO2Emission 	123.59191833005
scalar IntersectionExampleScenario.node[2].appl 	VehicleRemoved 	0
scalar IntersectionExampleScenario.node[2].appl 	ArrivedAtDest 	1
scalar IntersectionExampleScenario.node[2].appl 	IntersectionEnterTime 	5.75
scalar IntersectionExampleScenario.node[2].appl 	IntersectionExitTime 	28.260613494494
scalar IntersectionExampleScenario.node[2].appl 	NumberOfCollisions 	0
scalar IntersectionExampleScenario.node[2].nic.phy80211p 	busyTime 	0
scalar IntersectionExampleScenario.node[2].nic.mac1609_4 	ReceivedUnicastPackets 	0
scalar IntersectionExampleScenario.node[2].nic.mac1609_4 	ReceivedBroadcasts 	0
scalar IntersectionExampleScenario.node[2].nic.mac1609_4 	SentPackets 	0
scalar IntersectionExampleScenario.node[2].nic.mac1609_4 	SNIRLostPackets 	0
scalar IntersectionExampleScenario.node[2].nic.mac1609_4 	RXTXLostPackets 	0
scalar IntersectionExampleScenario.node[2].nic.mac1609_4 	TotalLostPackets 	0
scalar IntersectionExampleScenario.node[2].nic.mac1609_4 	DroppedPacketsInMac 	0
scalar IntersectionExampleScenario.node[2].nic.mac1609_4 	TooLittleTime 	0
scalar IntersectionExampleScenario.node[2].nic.mac1609_4 	TimesIntoBackoff 	0
scalar IntersectionExampleScenario.node[2].nic.mac1609_4 	SlotsBackoff 	0
scalar IntersectionExampleScenario.node[2].nic.mac1609_4 	NumInternalContention 	0
scalar IntersectionExampleScenario.node[2].nic.mac1609_4 	totalBusyTime 	0
scalar IntersectionExampleScenario.node[2].veinsmobility 	startTime 	5.75
scalar IntersectionExampleScenario.node[2].veinsmobility 	totalTime 	38.75
scalar IntersectionExampleScenario.node[2].veinsmobility 	stopTime 	44.75
scalar IntersectionExampleScenario.node[2].veinsmobility 	minSpeed 	5.6500000953674
scalar IntersectionExampleScenario.node[2].veinsmobility 	maxSpeed 	15.765600204468
scalar IntersectionExampleScenario.node[2].veinsmobility 	totalDistance 	528.05115843786
scalar IntersectionExampleScenario.node[2].veinsmobility 	totalCO2Emission 	126.85630827517
scalar IntersectionExampleScenario.node[1].appl 	VehicleRemoved 	0
scalar IntersectionExampleScenario.node[1].appl 	ArrivedAtDest 	1
scalar IntersectionExampleScenario.node[1].appl 	IntersectionEnterTime 	4.5
scalar IntersectionExampleScenario.node[1].appl 	IntersectionExitTime 	29.555108400295
scalar IntersectionExampleScenario.node[1].appl 	NumberOfCollisions 	0
scalar IntersectionExampleScenario.node[1].nic.phy80211p 	busyTime 	0
scalar IntersectionExampleScenario.node[1].nic.mac1609_4 	ReceivedUnicastPackets 	0
scalar IntersectionExampleScenario.node[1].nic.mac1609_4 	ReceivedBroadcasts 	0
scalar IntersectionExampleScenario.node[1].nic.mac1609_4 	SentPackets 	0
scalar IntersectionExampleScenario.node[1].nic.mac1609_4 	SNIRLostPackets 	0
scalar IntersectionExampleScenario.node[1].nic.mac1609_4 	RXTXLostPackets 	0
scalar IntersectionExampleScenario.node[1].nic.mac1609_4 	TotalLostPackets 	0
scalar IntersectionExampleScenario.node[1].nic.mac1609_4 	DroppedPacketsInMac 	0
scalar IntersectionExampleScenario.node[1].nic.mac1609_4 	TooLittleTime 	0
scalar IntersectionExampleScenario.node[1].nic.mac1609_4 	TimesIntoBackoff 	0
scalar IntersectionExampleScenario.node[1].nic.mac1609_4 	SlotsBackoff 	0
scalar IntersectionExampleScenario.node[1].nic.mac1609_4 	NumInternalContention 	0
scalar IntersectionExampleScenario.node[1].nic.mac1609_4 	totalBusyTime 	0
scalar IntersectionExampleScenario.node[1].veinsmobility 	startTime 	4.5
scalar IntersectionExampleScenario.node[1].veinsmobility 	totalTime 	40
scalar IntersectionExampleScenario.node[1].veinsmobility 	stopTime 	44.75
scalar IntersectionExampleScenario.node[1].veinsmobility 	minSpeed 	5.6500000953674
scalar IntersectionExampleScenario.node[1].veinsmobility 	maxSpeed 	16.75
scalar IntersectionExampleScenario.node[1].veinsmobility 	totalDistance 	565.25857543945
scalar IntersectionExampleScenario.node[1].veinsmobility 	totalCO2Emission 	133.89456144509
scalar IntersectionExampleScenario.node[3].appl 	VehicleRemoved 	0
scalar IntersectionExampleScenario.node[3].appl 	ArrivedAtDest 	1
scalar IntersectionExampleScenario.node[3].appl 	IntersectionEnterTime 	10
scalar IntersectionExampleScenario.node[3].appl 	IntersectionExitTime 	32.790458228148
scalar IntersectionExampleScenario.node[3].appl 	NumberOfCollisions 	0
scalar IntersectionExampleScenario.node[3].nic.phy80211p 	busyTime 	0
scalar IntersectionExampleScenario.node[3].nic.mac1609_4 	ReceivedUnicastPackets 	0
scalar IntersectionExampleScenario.node[3].nic.mac1609_4 	ReceivedBroadcasts 	0
scalar IntersectionExampleScenario.node[3].nic.mac1609_4 	SentPackets 	0
scalar IntersectionExampleScenario.node[3].nic.mac1609_4 	SNIRLostPackets 	0
scalar IntersectionExampleScenario.node[3].nic.mac1609_4 	RXTXLostPackets 	0
scalar IntersectionExampleScenario.node[3].nic.mac1609_4 	TotalLostPackets 	0
scalar IntersectionExampleScenario.node[3].nic.mac1609_4 	DroppedPacketsInMac 	0
scalar IntersectionExampleScenario.node[3].nic.mac1609_4 	TooLittleTime 	0
scalar IntersectionExampleScenario.node[3].nic.mac1609_4 	TimesIntoBackoff 	0
scalar IntersectionExampleScenario.node[3].nic.mac1609_4 	SlotsBackoff 	0
scalar IntersectionExampleScenario.node[3].nic.mac1609_4 	NumInternalContention 	0
scalar IntersectionExampleScenario.node[3].nic.mac1609_4 	totalBusyTime 	0
scalar IntersectionExampleScenario.node[3].veinsmobility 	startTime 	10
scalar IntersectionExampleScenario.node[3].veinsmobility 	totalTime 	38.75
scalar IntersectionExampleScenario.node[3].veinsmobility 	stopTime 	49
scalar IntersectionExampleScenario.node[3].veinsmobility 	minSpeed 	5.6500000953674
scalar IntersectionExampleScenario.node[3].veinsmobility 	maxSpeed 	16.5
scalar IntersectionExampleScenario.node[3].veinsmobility 	totalDistance 	542.48833130865
scalar IntersectionExampleScenario.node[3].veinsmobility 	totalCO2Emission 	130.96493776876
scalar IntersectionExampleScenario.node[5].appl 	VehicleRemoved 	0
scalar IntersectionExampleScenario.node[5].appl 	ArrivedAtDest 	1
scalar IntersectionExampleScenario.node[5].appl 	IntersectionEnterTime 	16.75
scalar IntersectionExampleScenario.node[5].appl 	IntersectionExitTime 	39.546526385326
scalar IntersectionExampleScenario.node[5].appl 	NumberOfCollisions 	0
scalar IntersectionExampleScenario.node[5].nic.phy80211p 	busyTime 	0
scalar IntersectionExampleScenario.node[5].nic.mac1609_4 	ReceivedUnicastPackets 	0
scalar IntersectionExampleScenario.node[5].nic.mac1609_4 	ReceivedBroadcasts 	0
scalar IntersectionExampleScenario.node[5].nic.mac1609_4 	SentPackets 	0
scalar IntersectionExampleScenario.node[5].nic.mac1609_4 	SNIRLostPackets 	0
scalar IntersectionExampleScenario.node[5].nic.mac1609_4 	RXTXLostPackets 	0
scalar IntersectionExampleScenario.node[5].nic.mac1609_4 	TotalLostPackets 	0
scalar IntersectionExampleScenario.node[5].nic.mac1609_4 	DroppedPacketsInMac 	0
scalar IntersectionExampleScenario.node[5].nic.mac1609_4 	TooLittleTime 	0
scalar IntersectionExampleScenario.node[5].nic.mac1609_4 	TimesIntoBackoff 	0
scalar IntersectionExampleScenario.node[5].nic.mac1609_4 	SlotsBackoff 	0
scalar IntersectionExampleScenario.node[5].nic.mac1609_4 	NumInternalContention 	0
scalar IntersectionExampleScenario.node[5].nic.mac1609_4 	totalBusyTime 	0
scalar IntersectionExampleScenario.node[5].veinsmobility 	startTime 	16.75
scalar IntersectionExampleScenario.node[5].veinsmobility 	totalTime 	38.75
scalar IntersectionExampleScenario.node[5].veinsmobility 	stopTime 	55.75
scalar IntersectionExampleScenario.node[5].veinsmobility 	minSpeed 	5.6500000953674
scalar IntersectionExampleScenario.node[5].veinsmobility 	maxSpeed 	16.5
scalar IntersectionExampleScenario.node[5].veinsmobility 	totalDistance 	542.73354343749
scalar IntersectionExampleScenario.node[5].veinsmobility 	totalCO2Emission 	130.99549331476
scalar IntersectionExampleScenario.node[4].appl 	VehicleRemoved 	0
scalar IntersectionExampleScenario.node[4].appl 	ArrivedAtDest 	1
scalar IntersectionExampleScenario.node[4].appl 	IntersectionEnterTime 	13
scalar IntersectionExampleScenario.node[4].appl 	IntersectionExitTime 	42.578471010784
scalar IntersectionExampleScenario.node[4].appl 	NumberOfCollisions 	0
scalar IntersectionExampleScenario.node[4].nic.phy80211p 	busyTime 	0
scalar IntersectionExampleScenario.node[4].nic.mac1609_4 	ReceivedUnicastPackets 	0
scalar IntersectionExampleScenario.node[4].nic.mac1609_4 	ReceivedBroadcasts 	0
scalar IntersectionExampleScenario.node[4].nic.mac1609_4 	SentPackets 	0
scalar IntersectionExampleScenario.node[4].nic.mac1609_4 	SNIRLostPackets 	0
scalar IntersectionExampleScenario.node[4].nic.mac1609_4 	RXTXLostPackets 	0
scalar IntersectionExampleScenario.node[4].nic.mac1609_4 	TotalLostPackets 	0
scalar IntersectionExampleScenario.node[4].nic.mac1609_4 	DroppedPacketsInMac 	0
scalar IntersectionExampleScenario.node[4].nic.mac1609_4 	TooLittleTime 	0
scalar IntersectionExampleScenario.node[4].nic.mac1609_4 	TimesIntoBackoff 	0
scalar IntersectionExampleScenario.node[4].nic.mac1609_4 	SlotsBackoff 	0
scalar IntersectionExampleScenario.node[4].nic.mac1609_4 	NumInternalContention 	0
scalar IntersectionExampleScenario.node[4].nic.mac1609_4 	totalBusyTime 	0
scalar IntersectionExampleScenario.node[4].veinsmobility 	startTime 	13
scalar IntersectionExampleScenario.node[4].veinsmobility 	totalTime 	46.25
scalar IntersectionExampleScenario.node[4].veinsmobility 	stopTime 	59.5
scalar IntersectionExampleScenario.node[4].veinsmobility 	minSpeed 	0
scalar IntersectionExampleScenario.node[4].veinsmobility 	maxSpeed 	15.64999961853
scalar IntersectionExampleScenario.node[4].veinsmobility 	totalDistance 	543.37081052214
scalar IntersectionExampleScenario.node[4].veinsmobility 	totalCO2Emission 	137.68563815153
scalar IntersectionExampleScenario.node[6].appl 	VehicleRemoved 	0
scalar IntersectionExampleScenario.node[6].appl 	ArrivedAtDest 	1
scalar IntersectionExampleScenario.node[6].appl 	IntersectionEnterTime 	24.75
scalar IntersectionExampleScenario.node[6].appl 	IntersectionExitTime 	48.038442407735
scalar IntersectionExampleScenario.node[6].appl 	NumberOfCollisions 	0
scalar IntersectionExampleScenario.node[6].nic.phy80211p 	busyTime 	0
scalar IntersectionExampleScenario.node[6].nic.mac1609_4 	ReceivedUnicastPackets 	0
scalar IntersectionExampleScenario.node[6].nic.mac1609_4 	ReceivedBroadcasts 	0
scalar IntersectionExampleScenario.node[6].nic.mac1609_4 	SentPackets 	0
scalar IntersectionExampleScenario.node[6].nic.mac1609_4 	SNIRLostPackets 	0
scalar IntersectionExampleScenario.node[6].nic.mac1609_4 	RXTXLostPackets 	0
scalar IntersectionExampleScenario.node[6].nic.mac1609_4 	TotalLostPackets 	0
scalar IntersectionExampleScenario.node[6].nic.mac1609_4 	DroppedPacketsInMac 	0
scalar IntersectionExampleScenario.node[6].nic.mac1609_4 	TooLittleTime 	0
scalar IntersectionExampleScenario.node[6].nic.mac1609_4 	TimesIntoBackoff 	0
scalar IntersectionExampleScenario.node[6].nic.mac1609_4 	SlotsBackoff 	0
scalar IntersectionExampleScenario.node[6].nic.mac1609_4 	NumInternalContention 	0
scalar IntersectionExampleScenario.node[6].nic.mac1609_4 	totalBusyTime 	0
scalar IntersectionExampleScenario.node[6].veinsmobility 	startTime 	24.75
scalar IntersectionExampleScenario.node[6].veinsmobility 	totalTime 	39.5
scalar IntersectionExampleScenario.node[6].veinsmobility 	stopTime 	64.5
scalar IntersectionExampleScenario.node[6].veinsmobility 	minSpeed 	5.6500000953674
scalar IntersectionExampleScenario.node[6].veinsmobility 	maxSpeed 	15.64999961853
scalar IntersectionExampleScenario.node[6].veinsmobility 	totalDistance 	549.74297360791
scalar IntersectionExampleScenario.node[6].veinsmobility 	totalCO2Emission 	122.48462072709
scalar IntersectionExampleScenario.node[7].appl 	VehicleRemoved 	0
scalar IntersectionExampleScenario.node[7].appl 	ArrivedAtDest 	1
scalar IntersectionExampleScenario.node[7].appl 	IntersectionEnterTime 	27
scalar IntersectionExampleScenario.node[7].appl 	IntersectionExitTime 	52.036212505598
scalar IntersectionExampleScenario.node[7].appl 	NumberOfCollisions 	0
scalar IntersectionExampleScenario.node[7].nic.phy80211p 	busyTime 	0
scalar IntersectionExampleScenario.node[7].nic.mac1609_4 	ReceivedUnicastPackets 	0
scalar IntersectionExampleScenario.node[7].nic.mac1609_4 	ReceivedBroadcasts 	0
scalar IntersectionExampleScenario.node[7].nic.mac1609_4 	SentPackets 	0
scalar IntersectionExampleScenario.node[7].nic.mac1609_4 	SNIRLostPackets 	0
scalar IntersectionExampleScenario.node[7].nic.mac1609_4 	RXTXLostPackets 	0
scalar IntersectionExampleScenario.node[7].nic.mac1609_4 	TotalLostPackets 	0
scalar IntersectionExampleScenario.node[7].nic.mac1609_4 	DroppedPacketsInMac 	0
scalar IntersectionExampleScenario.node[7].nic.mac1609_4 	TooLittleTime 	0
scalar IntersectionExampleScenario.node[7].nic.mac1609_4 	TimesIntoBackoff 	0
scalar IntersectionExampleScenario.node[7].nic.mac1609_4 	SlotsBackoff 	0
scalar IntersectionExampleScenario.node[7].nic.mac1609_4 	NumInternalContention 	0
scalar IntersectionExampleScenario.node[7].nic.mac1609_4 	totalBusyTime 	0
scalar IntersectionExampleScenario.node[7].veinsmobility 	startTime 	27
scalar IntersectionExampleScenario.node[7].veinsmobility 	totalTime 	42
scalar IntersectionExampleScenario.node[7].veinsmobility 	stopTime 	69.25
scalar IntersectionExampleScenario.node[7].veinsmobility 	minSpeed 	5.6500000953674
scalar IntersectionExampleScenario.node[7].veinsmobility 	maxSpeed 	14.46604347229
scalar IntersectionExampleScenario.node[7].veinsmobility 	totalDistance 	568.72551727295
scalar IntersectionExampleScenario.node[7].veinsmobility 	totalCO2Emission 	113.89428155782
scalar IntersectionExampleScenario.node[9].appl 	VehicleRemoved 	0
scalar IntersectionExampleScenario.node[9].appl 	ArrivedAtDest 	1
scalar IntersectionExampleScenario.node[9].appl 	IntersectionEnterTime 	29.5
scalar IntersectionExampleScenario.node[9].appl 	IntersectionExitTime 	53.37237399054
scalar IntersectionExampleScenario.node[9].appl 	NumberOfCollisions 	0
scalar IntersectionExampleScenario.node[9].nic.phy80211p 	busyTime 	0
scalar IntersectionExampleScenario.node[9].nic.mac1609_4 	ReceivedUnicastPackets 	0
scalar IntersectionExampleScenario.node[9].nic.mac1609_4 	ReceivedBroadcasts 	0
scalar IntersectionExampleScenario.node[9].nic.mac1609_4 	SentPackets 	0
scalar IntersectionExampleScenario.node[9].nic.mac1609_4 	SNIRLostPackets 	0
scalar IntersectionExampleScenario.node[9].nic.mac1609_4 	RXTXLostPackets 	0
scalar IntersectionExampleScenario.node[9].nic.mac1609_4 	TotalLostPackets 	0
scalar IntersectionExampleScenario.node[9].nic.mac1609_4 	DroppedPacketsInMac 	0
scalar IntersectionExampleScenario.node[9].nic.mac1609_4 	TooLittleTime 	0
scalar IntersectionExampleScenario.node[9].nic.mac1609_4 	TimesIntoBackoff 	0
scalar IntersectionExampleScenario.node[9].nic.mac1609_4 	SlotsBackoff 	0
scalar IntersectionExampleScenario.node[9].nic.mac1609_4 	NumInternalContention 	0
scalar IntersectionExampleScenario.node[9].nic.mac1609_4 	totalBusyTime 	0
scalar IntersectionExampleScenario.node[9].veinsmobility 	startTime 	29.5
scalar IntersectionExampleScenario.node[9].veinsmobility 	totalTime 	40.75
scalar IntersectionExampleScenario.node[9].veinsmobility 	stopTime 	70.5
scalar IntersectionExampleScenario.node[9].veinsmobility 	minSpeed 	5.6500000953674
scalar IntersectionExampleScenario.node[9].veinsmobility 	maxSpeed 	15.25
scalar IntersectionExampleScenario.node[9].veinsmobility 	totalDistance 	545.88794695573
scalar IntersectionExampleScenario.node[9].veinsmobility 	totalCO2Emission 	124.74247022311
scalar IntersectionExampleScenario.node[8].appl 	VehicleRemoved 	0
scalar IntersectionExampleScenario.node[8].appl 	ArrivedAtDest 	1
scalar IntersectionExampleScenario.node[8].appl 	IntersectionEnterTime 	28.25
scalar IntersectionExampleScenario.node[8].appl 	IntersectionExitTime 	53.60782299639
scalar IntersectionExampleScenario.node[8].appl 	NumberOfCollisions 	0
scalar IntersectionExampleScenario.node[8].nic.phy80211p 	busyTime 	0
scalar IntersectionExampleScenario.node[8].nic.mac1609_4 	ReceivedUnicastPackets 	0
scalar IntersectionExampleScenario.node[8].nic.mac1609_4 	ReceivedBroadcasts 	0
scalar IntersectionExampleScenario.node[8].nic.mac1609_4 	SentPackets 	0
scalar IntersectionExampleScenario.node[8].nic.mac1609_4 	SNIRLostPackets 	0
scalar IntersectionExampleScenario.node[8].nic.mac1609_4 	RXTXLostPackets 	0
scalar IntersectionExampleScenario.node[8].nic.mac1609_4 	TotalLostPackets 	0
scalar IntersectionExampleScenario.node[8].nic.mac1609_4 	DroppedPacketsInMac 	0
scalar IntersectionExampleScenario.node[8].nic.mac1609_4 	TooLittleTime 	0
scalar IntersectionExampleScenario.node[8].nic.mac1609_4 	TimesIntoBackoff 	0
scalar IntersectionExampleScenario.node[8].nic.mac1609_4 	SlotsBackoff 	0
scalar IntersectionExampleScenario.node[8].nic.mac1609_4 	NumInternalContention 	0
scalar IntersectionExampleScenario.node[8].nic.mac1609_4 	totalBusyTime 	0
scalar IntersectionExampleScenario.node[8].veinsmobility 	startTime 	28.25
scalar IntersectionExampleScenario.node[8].veinsmobility 	totalTime 	42
scalar IntersectionExampleScenario.node[8].veinsmobility 	stopTime 	70.5
scalar IntersectionExampleScenario.node[8].veinsmobility 	minSpeed 	5.6500000953674
scalar IntersectionExampleScenario.node[8].veinsmobility 	maxSpeed 	16.221502304077
scalar IntersectionExampleScenario.node[8].veinsmobility 	totalDistance 	581.81118011475
scalar IntersectionExampleScenario.node[8].veinsmobility 	totalCO2Emission 	130.1615792378
scalar IntersectionExampleScenario.node[11].appl 	VehicleRemoved 	0
scalar IntersectionExampleScenario.node[11].appl 	ArrivedAtDest 	1
scalar IntersectionExampleScenario.node[11].appl 	IntersectionEnterTime 	31
scalar IntersectionExampleScenario.node[11].appl 	IntersectionExitTime 	61.849729933863
scalar IntersectionExampleScenario.node[11].appl 	NumberOfCollisions 	0
scalar IntersectionExampleScenario.node[11].nic.phy80211p 	busyTime 	0
scalar IntersectionExampleScenario.node[11].nic.mac1609_4 	ReceivedUnicastPackets 	0
scalar IntersectionExampleScenario.node[11].nic.mac1609_4 	ReceivedBroadcasts 	0
scalar IntersectionExampleScenario.node[11].nic.mac1609_4 	SentPackets 	0
scalar IntersectionExampleScenario.node[11].nic.mac1609_4 	SNIRLostPackets 	0
scalar IntersectionExampleScenario.node[11].nic.mac1609_4 	RXTXLostPackets 	0
scalar IntersectionExampleScenario.node[11].nic.mac1609_4 	TotalLostPackets 	0
scalar IntersectionExampleScenario.node[11].nic.mac1609_4 	DroppedPacketsInMac 	0
scalar IntersectionExampleScenario.node[11].nic.mac1609_4 	TooLittleTime 	0
scalar IntersectionExampleScenario.node[11].nic.mac1609_4 	TimesIntoBackoff 	0
scalar IntersectionExampleScenario.node[11].nic.mac1609_4 	SlotsBackoff 	0
scalar IntersectionExampleScenario.node[11].nic.mac1609_4 	NumInternalContention 	0
scalar IntersectionExampleScenario.node[11].nic.mac1609_4 	totalBusyTime 	0
scalar IntersectionExampleScenario.node[11].veinsmobility 	startTime 	31
scalar IntersectionExampleScenario.node[11].veinsmobility 	totalTime 	47
scalar IntersectionExampleScenario.node[11].veinsmobility 	stopTime 	78.25
scalar IntersectionExampleScenario.node[11].veinsmobility 	minSpeed 	0
scalar IntersectionExampleScenario.node[11].veinsmobility 	maxSpeed 	15.64999961853
scalar IntersectionExampleScenario.node[11].veinsmobility 	totalDistance 	550.89402132463
scalar IntersectionExampleScenario.node[11].veinsmobility 	totalCO2Emission 	139.42038245
scalar IntersectionExampleScenario.node[10].appl 	VehicleRemoved 	0
scalar IntersectionExampleScenario.node[10].appl 	ArrivedAtDest 	1
scalar IntersectionExampleScenario.node[10].appl 	IntersectionEnterTime 	29.75
scalar IntersectionExampleScenario.node[10].appl 	IntersectionExitTime 	62.346244376298
scalar IntersectionExampleScenario.node[10].appl 	NumberOfCollisions 	0
scalar IntersectionExampleScenario.node[10].nic.phy80211p 	busyTime 	0
scalar IntersectionExampleScenario.node[10].nic.mac1609_4 	ReceivedUnicastPackets 	0
scalar IntersectionExampleScenario.node[10].nic.mac1609_4 	ReceivedBroadcasts 	0
scalar IntersectionExampleScenario.node[10].nic.mac1609_4 	SentPackets 	0
scalar IntersectionExampleScenario.node[10].nic.mac1609_4 	SNIRLostPackets 	0
scalar IntersectionExampleScenario.node[10].nic.mac1609_4 	RXTXLostPackets 	0
scalar IntersectionExampleScenario.node[10].nic.mac1609_4 	TotalLostPackets 	0
scalar IntersectionExampleScenario.node[10].nic.mac1609_4 	DroppedPacketsInMac 	0
scalar IntersectionExampleScenario.node[10].nic.mac1609_4 	TooLittleTime 	0
scalar IntersectionExampleScenario.node[10].nic.mac1609_4 	TimesIntoBackoff 	0
scalar IntersectionExampleScenario.node[10].nic.mac1609_4 	SlotsBackoff 	0
scalar IntersectionExampleScenario.node[10].nic.mac1609_4 	NumInternalContention 	0
scalar IntersectionExampleScenario.node[10].nic.mac1609_4 	totalBusyTime 	0
scalar IntersectionExampleScenario.node[10].veinsmobility 	startTime 	29.75
scalar IntersectionExampleScenario.node[10].veinsmobility 	totalTime 	49.5
scalar IntersectionExampleScenario.node[10].veinsmobility 	stopTime 	79.5
scalar IntersectionExampleScenario.node[10].veinsmobility 	minSpeed 	0
scalar IntersectionExampleScenario.node[10].veinsmobility 	maxSpeed 	14.75
scalar IntersectionExampleScenario.node[10].veinsmobility 	totalDistance 	549.15730394473
scalar IntersectionExampleScenario.node[10].veinsmobility 	totalCO2Emission 	133.84246299103
scalar IntersectionExampleScenario.node[12].appl 	VehicleRemoved 	0
scalar IntersectionExampleScenario.node[12].appl 	ArrivedAtDest 	1
scalar IntersectionExampleScenario.node[12].appl 	IntersectionEnterTime 	32.75
scalar IntersectionExampleScenario.node[12].appl 	IntersectionExitTime 	63.502273749618
scalar IntersectionExampleScenario.node[12].appl 	NumberOfCollisions 	0
scalar IntersectionExampleScenario.node[12].nic.phy80211p 	busyTime 	0
scalar IntersectionExampleScenario.node[12].nic.mac1609_4 	ReceivedUnicastPackets 	0
scalar IntersectionExampleScenario.node[12].nic.mac1609_4 	ReceivedBroadcasts 	0
scalar IntersectionExampleScenario.node[12].nic.mac1609_4 	SentPackets 	0
scalar IntersectionExampleScenario.node[12].nic.mac1609_4 	SNIRLostPackets 	0
scalar IntersectionExampleScenario.node[12].nic.mac1609_4 	RXTXLostPackets 	0
scalar IntersectionExampleScenario.node[12].nic.mac1609_4 	TotalLostPackets 	0
scalar IntersectionExampleScenario.node[12].nic.mac1609_4 	DroppedPacketsInMac 	0
scalar IntersectionExampleScenario.node[12].nic.mac1609_4 	TooLittleTime 	0
scalar IntersectionExampleScenario.node[12].nic.mac1609_4 	TimesIntoBackoff 	0
scalar IntersectionExampleScenario.node[12].nic.mac1609_4 	SlotsBackoff 	0
scalar IntersectionExampleScenario.node[12].nic.mac1609_4 	NumInternalContention 	0
scalar IntersectionExampleScenario.node[12].nic.mac1609_4 	totalBusyTime 	0
scalar IntersectionExampleScenario.node[12].veinsmobility 	startTime 	32.75
scalar IntersectionExampleScenario.node[12].veinsmobility 	totalTime 	47.5
scalar IntersectionExampleScenario.node[12].veinsmobility 	stopTime 	80.5
scalar IntersectionExampleScenario.node[12].veinsmobility 	minSpeed 	0
scalar IntersectionExampleScenario.node[12].veinsmobility 	maxSpeed 	14.875
scalar IntersectionExampleScenario.node[12].veinsmobility 	totalDistance 	563.82667541504
scalar IntersectionExampleScenario.node[12].veinsmobility 	totalCO2Emission 	132.11714642218
scalar IntersectionExampleScenario.node[13].appl 	VehicleRemoved 	0
scalar IntersectionExampleScenario.node[13].appl 	ArrivedAtDest 	1
scalar IntersectionExampleScenario.node[13].appl 	IntersectionEnterTime 	36.25
scalar IntersectionExampleScenario.node[13].appl 	IntersectionExitTime 	63.765610883245
scalar IntersectionExampleScenario.node[13].appl 	NumberOfCollisions 	0
scalar IntersectionExampleScenario.node[13].nic.phy80211p 	busyTime 	0
scalar IntersectionExampleScenario.node[13].nic.mac1609_4 	ReceivedUnicastPackets 	0
scalar IntersectionExampleScenario.node[13].nic.mac1609_4 	ReceivedBroadcasts 	0
scalar IntersectionExampleScenario.node[13].nic.mac1609_4 	SentPackets 	0
scalar IntersectionExampleScenario.node[13].nic.mac1609_4 	SNIRLostPackets 	0
scalar IntersectionExampleScenario.node[13].nic.mac1609_4 	RXTXLostPackets 	0
scalar IntersectionExampleScenario.node[13].nic.mac1609_4 	TotalLostPackets 	0
scalar IntersectionExampleScenario.node[13].nic.mac1609_4 	DroppedPacketsInMac 	0
scalar IntersectionExampleScenario.node[13].nic.mac1609_4 	TooLittleTime 	0
scalar IntersectionExampleScenario.node[13].nic.mac1609_4 	TimesIntoBackoff 	0
scalar IntersectionExampleScenario.node[13].nic.mac1609_4 	SlotsBackoff 	0
scalar IntersectionExampleScenario.node[13].nic.mac1609_4 	NumInternalContention 	0
scalar IntersectionExampleScenario.node[13].nic.mac1609_4 	totalBusyTime 	0
scalar IntersectionExampleScenario.node[13].veinsmobility 	startTime 	36.25
scalar IntersectionExampleScenario.node[13].veinsmobility 	totalTime 	44.5
scalar IntersectionExampleScenario.node[13].veinsmobility 	stopTime 	81
scalar IntersectionExampleScenario.node[13].veinsmobility 	minSpeed 	3.7394282817841
scalar IntersectionExampleScenario.node[13].veinsmobility 	maxSpeed 	15.520500183105
scalar IntersectionExampleScenario.node[13].veinsmobility 	totalDistance 	544.53582448199
scalar IntersectionExampleScenario.node[13].veinsmobility 	totalCO2Emission 	136.36850234108
scalar IntersectionExampleScenario.node[14].appl 	VehicleRemoved 	0
scalar IntersectionExampleScenario.node[14].appl 	ArrivedAtDest 	1
scalar IntersectionExampleScenario.node[14].appl 	IntersectionEnterTime 	37.25
scalar IntersectionExampleScenario.node[14].appl 	IntersectionExitTime 	65.874565999635
scalar IntersectionExampleScenario.node[14].appl 	NumberOfCollisions 	0
scalar IntersectionExampleScenario.node[14].nic.phy80211p 	busyTime 	0
scalar IntersectionExampleScenario.node[14].nic.mac1609_4 	ReceivedUnicastPackets 	0
scalar IntersectionExampleScenario.node[14].nic.mac1609_4 	ReceivedBroadcasts 	0
scalar IntersectionExampleScenario.node[14].nic.mac1609_4 	SentPackets 	0
scalar IntersectionExampleScenario.node[14].nic.mac1609_4 	SNIRLostPackets 	0
scalar IntersectionExampleScenario.node[14].nic.mac1609_4 	RXTXLostPackets 	0
scalar IntersectionExampleScenario.node[14].nic.mac1609_4 	TotalLostPackets 	0
scalar IntersectionExampleScenario.node[14].nic.mac1609_4 	DroppedPacketsInMac 	0
scalar IntersectionExampleScenario.node[14].nic.mac1609_4 	TooLittleTime 	0
scalar IntersectionExampleScenario.node[14].nic.mac1609_4 	TimesIntoBackoff 	0
scalar IntersectionExampleScenario.node[14].nic.mac1609_4 	SlotsBackoff 	0
scalar IntersectionExampleScenario.node[14].nic.mac1609_4 	NumInternalContention 	0
scalar IntersectionExampleScenario.node[14].nic.mac1609_4 	totalBusyTime 	0
scalar IntersectionExampleScenario.node[14].veinsmobility 	startTime 	37.25
scalar IntersectionExampleScenario.node[14].veinsmobility 	totalTime 	43.75
scalar IntersectionExampleScenario.node[14].veinsmobility 	stopTime 	81.25
scalar IntersectionExampleScenario.node[14].veinsmobility 	minSpeed 	3.6033930778503
scalar IntersectionExampleScenario.node[14].veinsmobility 	maxSpeed 	16.625680923462
scalar IntersectionExampleScenario.node[14].veinsmobility 	totalDistance 	571.87004130665
scalar IntersectionExampleScenario.node[14].veinsmobility 	totalCO2Emission 	150.98206145921
scalar IntersectionExampleScenario.node[17].appl 	VehicleRemoved 	0
scalar IntersectionExampleScenario.node[17].appl 	ArrivedAtDest 	1
scalar IntersectionExampleScenario.node[17].appl 	IntersectionEnterTime 	41.25
scalar IntersectionExampleScenario.node[17].appl 	IntersectionExitTime 	67.287228089437
scalar IntersectionExampleScenario.node[17].appl 	NumberOfCollisions 	0
scalar IntersectionExampleScenario.node[17].nic.phy80211p 	busyTime 	0
scalar IntersectionExampleScenario.node[17].nic.mac1609_4 	ReceivedUnicastPackets 	0
scalar IntersectionExampleScenario.node[17].nic.mac1609_4 	ReceivedBroadcasts 	0
scalar IntersectionExampleScenario.node[17].nic.mac1609_4 	SentPackets 	0
scalar IntersectionExampleScenario.node[17].nic.mac1609_4 	SNIRLostPackets 	0
scalar IntersectionExampleScenario.node[17].nic.mac1609_4 	RXTXLostPackets 	0
scalar IntersectionExampleScenario.node[17].nic.mac1609_4 	TotalLostPackets 	0
scalar IntersectionExampleScenario.node[17].nic.mac1609_4 	DroppedPacketsInMac 	0
scalar IntersectionExampleScenario.node[17].nic.mac1609_4 	TooLittleTime 	0
scalar IntersectionExampleScenario.node[17].nic.mac1609_4 	TimesIntoBackoff 	0
scalar IntersectionExampleScenario.node[17].nic.mac1609_4 	SlotsBackoff 	0
scalar IntersectionExampleScenario.node[17].nic.mac1609_4 	NumInternalContention 	0
scalar IntersectionExampleScenario.node[17].nic.mac1609_4 	totalBusyTime 	0
scalar IntersectionExampleScenario.node[17].veinsmobility 	startTime 	41.25
scalar IntersectionExampleScenario.node[17].veinsmobility 	totalTime 	41.75
scalar IntersectionExampleScenario.node[17].veinsmobility 	stopTime 	83.25
scalar IntersectionExampleScenario.node[17].veinsmobility 	minSpeed 	5.6500000953674
scalar IntersectionExampleScenario.node[17].veinsmobility 	maxSpeed 	16.125
scalar IntersectionExampleScenario.node[17].veinsmobility 	totalDistance 	572.28276062012
scalar IntersectionExampleScenario.node[17].veinsmobility 	totalCO2Emission 	133.26958305531
scalar IntersectionExampleScenario.node[16].appl 	VehicleRemoved 	0
scalar IntersectionExampleScenario.node[16].appl 	ArrivedAtDest 	1
scalar IntersectionExampleScenario.node[16].appl 	IntersectionEnterTime 	41.25
scalar IntersectionExampleScenario.node[16].appl 	IntersectionExitTime 	67.605656948785
scalar IntersectionExampleScenario.node[16].appl 	NumberOfCollisions 	0
scalar IntersectionExampleScenario.node[16].nic.phy80211p 	busyTime 	0
scalar IntersectionExampleScenario.node[16].nic.mac1609_4 	ReceivedUnicastPackets 	0
scalar IntersectionExampleScenario.node[16].nic.mac1609_4 	ReceivedBroadcasts 	0
scalar IntersectionExampleScenario.node[16].nic.mac1609_4 	SentPackets 	0
scalar IntersectionExampleScenario.node[16].nic.mac1609_4 	SNIRLostPackets 	0
scalar IntersectionExampleScenario.node[16].nic.mac1609_4 	RXTXLostPackets 	0
scalar IntersectionExampleScenario.node[16].nic.mac1609_4 	TotalLostPackets 	0
scalar IntersectionExampleScenario.node[16].nic.mac1609_4 	DroppedPacketsInMac 	0
scalar IntersectionExampleScenario.node[16].nic.mac1609_4 	TooLittleTime 	0
scalar IntersectionExampleScenario.node[16].nic.mac1609_4 	TimesIntoBackoff 	0
scalar IntersectionExampleScenario.node[16].nic.mac1609_4 	SlotsBackoff 	0
scalar IntersectionExampleScenario.node[16].nic.mac1609_4 	NumInternalContention 	0
scalar IntersectionExampleScenario.node[16].nic.mac1609_4 	totalBusyTime 	0
scalar IntersectionExampleScenario.node[16].veinsmobility 	startTime 	41.25
scalar IntersectionExampleScenario.node[16].veinsmobility 	totalTime 	43.75
scalar IntersectionExampleScenario.node[16].veinsmobility 	stopTime 	85.25
scalar IntersectionExampleScenario.node[16].veinsmobility 	minSpeed 	0
scalar IntersectionExampleScenario.node[16].veinsmobility 	maxSpeed 	15.02499961853
scalar IntersectionExampleScenario.node[16].veinsmobility 	totalDistance 	546.21665860564
scalar IntersectionExampleScenario.node[16].veinsmobility 	totalCO2Emission 	143.12974274372
scalar IntersectionExampleScenario.node[18].appl 	VehicleRemoved 	0
scalar IntersectionExampleScenario.node[18].appl 	ArrivedAtDest 	1
scalar IntersectionExampleScenario.node[18].appl 	IntersectionEnterTime 	46.75
scalar IntersectionExampleScenario.node[18].appl 	IntersectionExitTime 	70.096917529707
scalar IntersectionExampleScenario.node[18].appl 	NumberOfCollisions 	0
scalar IntersectionExampleScenario.node[18].nic.phy80211p 	busyTime 	0
scalar IntersectionExampleScenario.node[18].nic.mac1609_4 	ReceivedUnicastPackets 	0
scalar IntersectionExampleScenario.node[18].nic.mac1609_4 	ReceivedBroadcasts 	0
scalar IntersectionExampleScenario.node[18].nic.mac1609_4 	SentPackets 	0
scalar IntersectionExampleScenario.node[18].nic.mac1609_4 	SNIRLostPackets 	0
scalar IntersectionExampleScenario.node[18].nic.mac1609_4 	RXTXLostPackets 	0
scalar IntersectionExampleScenario.node[18].nic.mac1609_4 	TotalLostPackets 	0
scalar IntersectionExampleScenario.node[18].nic.mac1609_4 	DroppedPacketsInMac 	0
scalar IntersectionExampleScenario.node[18].nic.mac1609_4 	TooLittleTime 	0
scalar IntersectionExampleScenario.node[18].nic.mac1609_4 	TimesIntoBackoff 	0
scalar IntersectionExampleScenario.node[18].nic.mac1609_4 	SlotsBackoff 	0
scalar IntersectionExampleScenario.node[18].nic.mac1609_4 	NumInternalContention 	0
scalar IntersectionExampleScenario.node[18].nic.mac1609_4 	totalBusyTime 	0
scalar IntersectionExampleScenario.node[18].veinsmobility 	startTime 	46.75
scalar IntersectionExampleScenario.node[18].veinsmobility 	totalTime 	39.5
scalar IntersectionExampleScenario.node[18].veinsmobility 	stopTime 	86.5
scalar IntersectionExampleScenario.node[18].veinsmobility 	minSpeed 	5.6500000953674
scalar IntersectionExampleScenario.node[18].veinsmobility 	maxSpeed 	15.766466140747
scalar IntersectionExampleScenario.node[18].veinsmobility 	totalDistance 	550.29264327451
scalar IntersectionExampleScenario.node[18].veinsmobility 	totalCO2Emission 	124.91962316147
scalar IntersectionExampleScenario.node[20].appl 	VehicleRemoved 	0
scalar IntersectionExampleScenario.node[20].appl 	ArrivedAtDest 	1
scalar IntersectionExampleScenario.node[20].appl 	IntersectionEnterTime 	47.25
scalar IntersectionExampleScenario.node[20].appl 	IntersectionExitTime 	72.351339168876
scalar IntersectionExampleScenario.node[20].appl 	NumberOfCollisions 	0
scalar IntersectionExampleScenario.node[20].nic.phy80211p 	busyTime 	0
scalar IntersectionExampleScenario.node[20].nic.mac1609_4 	ReceivedUnicastPackets 	0
scalar IntersectionExampleScenario.node[20].nic.mac1609_4 	ReceivedBroadcasts 	0
scalar IntersectionExampleScenario.node[20].nic.mac1609_4 	SentPackets 	0
scalar IntersectionExampleScenario.node[20].nic.mac1609_4 	SNIRLostPackets 	0
scalar IntersectionExampleScenario.node[20].nic.mac1609_4 	RXTXLostPackets 	0
scalar IntersectionExampleScenario.node[20].nic.mac1609_4 	TotalLostPackets 	0
scalar IntersectionExampleScenario.node[20].nic.mac1609_4 	DroppedPacketsInMac 	0
scalar IntersectionExampleScenario.node[20].nic.mac1609_4 	TooLittleTime 	0
scalar IntersectionExampleScenario.node[20].nic.mac1609_4 	TimesIntoBackoff 	0
scalar IntersectionExampleScenario.node[20].nic.mac1609_4 	SlotsBackoff 	0
scalar IntersectionExampleScenario.node[20].nic.mac1609_4 	NumInternalContention 	0
scalar IntersectionExampleScenario.node[20].nic.mac1609_4 	totalBusyTime 	0
scalar IntersectionExampleScenario.node[20].veinsmobility 	startTime 	47.25
scalar IntersectionExampleScenario.node[20].veinsmobility 	totalTime 	41
scalar IntersectionExampleScenario.node[20].veinsmobility 	stopTime 	88.5
scalar IntersectionExampleScenario.node[20].veinsmobility 	minSpeed 	5.6500000953674
scalar IntersectionExampleScenario.node[20].veinsmobility 	maxSpeed 	15.862568855286
scalar IntersectionExampleScenario.node[20].veinsmobility 	totalDistance 	573.68239055356
scalar IntersectionExampleScenario.node[20].veinsmobility 	totalCO2Emission 	134.25606597776
scalar IntersectionExampleScenario.node[19].appl 	VehicleRemoved 	0
scalar IntersectionExampleScenario.node[19].appl 	ArrivedAtDest 	1
scalar IntersectionExampleScenario.node[19].appl 	IntersectionEnterTime 	46.75
scalar IntersectionExampleScenario.node[19].appl 	IntersectionExitTime 	71.329440794303
scalar IntersectionExampleScenario.node[19].appl 	NumberOfCollisions 	0
scalar IntersectionExampleScenario.node[19].nic.phy80211p 	busyTime 	0
scalar IntersectionExampleScenario.node[19].nic.mac1609_4 	ReceivedUnicastPackets 	0
scalar IntersectionExampleScenario.node[19].nic.mac1609_4 	ReceivedBroadcasts 	0
scalar IntersectionExampleScenario.node[19].nic.mac1609_4 	SentPackets 	0
scalar IntersectionExampleScenario.node[19].nic.mac1609_4 	SNIRLostPackets 	0
scalar IntersectionExampleScenario.node[19].nic.mac1609_4 	RXTXLostPackets 	0
scalar IntersectionExampleScenario.node[19].nic.mac1609_4 	TotalLostPackets 	0
scalar IntersectionExampleScenario.node[19].nic.mac1609_4 	DroppedPacketsInMac 	0
scalar IntersectionExampleScenario.node[19].nic.mac1609_4 	TooLittleTime 	0
scalar IntersectionExampleScenario.node[19].nic.mac1609_4 	TimesIntoBackoff 	0
scalar IntersectionExampleScenario.node[19].nic.mac1609_4 	SlotsBackoff 	0
scalar IntersectionExampleScenario.node[19].nic.mac1609_4 	NumInternalContention 	0
scalar IntersectionExampleScenario.node[19].nic.mac1609_4 	totalBusyTime 	0
scalar IntersectionExampleScenario.node[19].veinsmobility 	startTime 	46.75
scalar IntersectionExampleScenario.node[19].veinsmobility 	totalTime 	42
scalar IntersectionExampleScenario.node[19].veinsmobility 	stopTime 	89
scalar IntersectionExampleScenario.node[19].veinsmobility 	minSpeed 	5.6500000953674
scalar IntersectionExampleScenario.node[19].veinsmobility 	maxSpeed 	14.39999961853
scalar IntersectionExampleScenario.node[19].veinsmobility 	totalDistance 	551.31423410102
scalar IntersectionExampleScenario.node[19].veinsmobility 	totalCO2Emission 	116.38042400358
scalar IntersectionExampleScenario.node[22].appl 	VehicleRemoved 	0
scalar IntersectionExampleScenario.node[22].appl 	ArrivedAtDest 	1
scalar IntersectionExampleScenario.node[22].appl 	IntersectionEnterTime 	51
scalar IntersectionExampleScenario.node[22].appl 	IntersectionExitTime 	75.776549455361
scalar IntersectionExampleScenario.node[22].appl 	NumberOfCollisions 	0
scalar IntersectionExampleScenario.node[22].nic.phy80211p 	busyTime 	0
scalar IntersectionExampleScenario.node[22].nic.mac1609_4 	ReceivedUnicastPackets 	0
scalar IntersectionExampleScenario.node[22].nic.mac1609_4 	ReceivedBroadcasts 	0
scalar IntersectionExampleScenario.node[22].nic.mac1609_4 	SentPackets 	0
scalar IntersectionExampleScenario.node[22].nic.mac1609_4 	SNIRLostPackets 	0
scalar IntersectionExampleScenario.node[22].nic.mac1609_4 	RXTXLostPackets 	0
scalar IntersectionExampleScenario.node[22].nic.mac1609_4 	TotalLostPackets 	0
scalar IntersectionExampleScenario.node[22].nic.mac1609_4 	DroppedPacketsInMac 	0
scalar IntersectionExampleScenario.node[22].nic.mac1609_4 	TooLittleTime 	0
scalar IntersectionExampleScenario.node[22].nic.mac1609_4 	TimesIntoBackoff 	0
scalar IntersectionExampleScenario.node[22].nic.mac1609_4 	SlotsBackoff 	0
scalar IntersectionExampleScenario.node[22].nic.mac1609_4 	NumInternalContention 	0
scalar IntersectionExampleScenario.node[22].nic.mac1609_4 	totalBusyTime 	0
scalar IntersectionExampleScenario.node[22].veinsmobility 	startTime 	51
scalar IntersectionExampleScenario.node[22].veinsmobility 	totalTime 	41.25
scalar IntersectionExampleScenario.node[22].veinsmobility 	stopTime 	92.5
scalar IntersectionExampleScenario.node[22].veinsmobility 	minSpeed 	5.6500000953674
scalar IntersectionExampleScenario.node[22].veinsmobility 	maxSpeed 	15.02499961853
scalar IntersectionExampleScenario.node[22].veinsmobility 	totalDistance 	572.407371521
scalar IntersectionExampleScenario.node[22].veinsmobility 	totalCO2Emission 	116.97389204687
scalar IntersectionExampleScenario.node[15].appl 	VehicleRemoved 	0
scalar IntersectionExampleScenario.node[15].appl 	ArrivedAtDest 	1
scalar IntersectionExampleScenario.node[15].appl 	IntersectionEnterTime 	40
scalar IntersectionExampleScenario.node[15].appl 	IntersectionExitTime 	82.281533319678
scalar IntersectionExampleScenario.node[15].appl 	NumberOfCollisions 	0
scalar IntersectionExampleScenario.node[15].nic.phy80211p 	busyTime 	0
scalar IntersectionExampleScenario.node[15].nic.mac1609_4 	ReceivedUnicastPackets 	0
scalar IntersectionExampleScenario.node[15].nic.mac1609_4 	ReceivedBroadcasts 	0
scalar IntersectionExampleScenario.node[15].nic.mac1609_4 	SentPackets 	0
scalar IntersectionExampleScenario.node[15].nic.mac1609_4 	SNIRLostPackets 	0
scalar IntersectionExampleScenario.node[15].nic.mac1609_4 	RXTXLostPackets 	0
scalar IntersectionExampleScenario.node[15].nic.mac1609_4 	TotalLostPackets 	0
scalar IntersectionExampleScenario.node[15].nic.mac1609_4 	DroppedPacketsInMac 	0
scalar IntersectionExampleScenario.node[15].nic.mac1609_4 	TooLittleTime 	0
scalar IntersectionExampleScenario.node[15].nic.mac1609_4 	TimesIntoBackoff 	0
scalar IntersectionExampleScenario.node[15].nic.mac1609_4 	SlotsBackoff 	0
scalar IntersectionExampleScenario.node[15].nic.mac1609_4 	NumInternalContention 	0
scalar IntersectionExampleScenario.node[15].nic.mac1609_4 	totalBusyTime 	0
scalar IntersectionExampleScenario.node[15].veinsmobility 	startTime 	40
scalar IntersectionExampleScenario.node[15].veinsmobility 	totalTime 	57.75
scalar IntersectionExampleScenario.node[15].veinsmobility 	stopTime 	98
scalar IntersectionExampleScenario.node[15].veinsmobility 	minSpeed 	0
scalar IntersectionExampleScenario.node[15].veinsmobility 	maxSpeed 	16.27499961853
scalar IntersectionExampleScenario.node[15].veinsmobility 	totalDistance 	551.97519683838
scalar IntersectionExampleScenario.node[15].veinsmobility 	totalCO2Emission 	155.38831133886
scalar IntersectionExampleScenario.node[21].appl 	VehicleRemoved 	0
scalar IntersectionExampleScenario.node[21].appl 	ArrivedAtDest 	1
scalar IntersectionExampleScenario.node[21].appl 	IntersectionEnterTime 	47.25
scalar IntersectionExampleScenario.node[21].appl 	IntersectionExitTime 	82.291531938274
scalar IntersectionExampleScenario.node[21].appl 	NumberOfCollisions 	0
scalar IntersectionExampleScenario.node[21].nic.phy80211p 	busyTime 	0
scalar IntersectionExampleScenario.node[21].nic.mac1609_4 	ReceivedUnicastPackets 	0
scalar IntersectionExampleScenario.node[21].nic.mac1609_4 	ReceivedBroadcasts 	0
scalar IntersectionExampleScenario.node[21].nic.mac1609_4 	SentPackets 	0
scalar IntersectionExampleScenario.node[21].nic.mac1609_4 	SNIRLostPackets 	0
scalar IntersectionExampleScenario.node[21].nic.mac1609_4 	RXTXLostPackets 	0
scalar IntersectionExampleScenario.node[21].nic.mac1609_4 	TotalLostPackets 	0
scalar IntersectionExampleScenario.node[21].nic.mac1609_4 	DroppedPacketsInMac 	0
scalar IntersectionExampleScenario.node[21].nic.mac1609_4 	TooLittleTime 	0
scalar IntersectionExampleScenario.node[21].nic.mac1609_4 	TimesIntoBackoff 	0
scalar IntersectionExampleScenario.node[21].nic.mac1609_4 	SlotsBackoff 	0
scalar IntersectionExampleScenario.node[21].nic.mac1609_4 	NumInternalContention 	0
scalar IntersectionExampleScenario.node[21].nic.mac1609_4 	totalBusyTime 	0
scalar IntersectionExampleScenario.node[21].veinsmobility 	startTime 	47.25
scalar IntersectionExampleScenario.node[21].veinsmobility 	totalTime 	51.25
scalar IntersectionExampleScenario.node[21].veinsmobility 	stopTime 	98.75
scalar IntersectionExampleScenario.node[21].veinsmobility 	minSpeed 	0
scalar IntersectionExampleScenario.node[21].veinsmobility 	maxSpeed 	15.02499961853
scalar IntersectionExampleScenario.node[21].veinsmobility 	totalDistance 	548.27823747745
scalar IntersectionExampleScenario.node[21].veinsmobility 	totalCO2Emission 	140.6006559745
scalar IntersectionExampleScenario.node[23].appl 	VehicleRemoved 	0
scalar IntersectionExampleScenario.node[23].appl 	ArrivedAtDest 	1
scalar IntersectionExampleScenario.node[23].appl 	IntersectionEnterTime 	53.5
scalar IntersectionExampleScenario.node[23].appl 	IntersectionExitTime 	84.261434942076
scalar IntersectionExampleScenario.node[23].appl 	NumberOfCollisions 	0
scalar IntersectionExampleScenario.node[23].nic.phy80211p 	busyTime 	0
scalar IntersectionExampleScenario.node[23].nic.mac1609_4 	ReceivedUnicastPackets 	0
scalar IntersectionExampleScenario.node[23].nic.mac1609_4 	ReceivedBroadcasts 	0
scalar IntersectionExampleScenario.node[23].nic.mac1609_4 	SentPackets 	0
scalar IntersectionExampleScenario.node[23].nic.mac1609_4 	SNIRLostPackets 	0
scalar IntersectionExampleScenario.node[23].nic.mac1609_4 	RXTXLostPackets 	0
scalar IntersectionExampleScenario.node[23].nic.mac1609_4 	TotalLostPackets 	0
scalar IntersectionExampleScenario.node[23].nic.mac1609_4 	DroppedPacketsInMac 	0
scalar IntersectionExampleScenario.node[23].nic.mac1609_4 	TooLittleTime 	0
scalar IntersectionExampleScenario.node[23].nic.mac1609_4 	TimesIntoBackoff 	0
scalar IntersectionExampleScenario.node[23].nic.mac1609_4 	SlotsBackoff 	0
scalar IntersectionExampleScenario.node[23].nic.mac1609_4 	NumInternalContention 	0
scalar IntersectionExampleScenario.node[23].nic.mac1609_4 	totalBusyTime 	0
scalar IntersectionExampleScenario.node[23].veinsmobility 	startTime 	53.5
scalar IntersectionExampleScenario.node[23].veinsmobility 	totalTime 	47.25
scalar IntersectionExampleScenario.node[23].veinsmobility 	stopTime 	101
scalar IntersectionExampleScenario.node[23].veinsmobility 	minSpeed 	2.7717838287354
scalar IntersectionExampleScenario.node[23].veinsmobility 	maxSpeed 	15.02499961853
scalar IntersectionExampleScenario.node[23].veinsmobility 	totalDistance 	552.23892974854
scalar IntersectionExampleScenario.node[23].veinsmobility 	totalCO2Emission 	131.35233728346
scalar IntersectionExampleScenario.node[24].appl 	VehicleRemoved 	0
scalar IntersectionExampleScenario.node[24].appl 	ArrivedAtDest 	1
scalar IntersectionExampleScenario.node[24].appl 	IntersectionEnterTime 	54.5
scalar IntersectionExampleScenario.node[24].appl 	IntersectionExitTime 	84.082383573521
scalar IntersectionExampleScenario.node[24].appl 	NumberOfCollisions 	0
scalar IntersectionExampleScenario.node[24].nic.phy80211p 	busyTime 	0
scalar IntersectionExampleScenario.node[24].nic.mac1609_4 	ReceivedUnicastPackets 	0
scalar IntersectionExampleScenario.node[24].nic.mac1609_4 	ReceivedBroadcasts 	0
scalar IntersectionExampleScenario.node[24].nic.mac1609_4 	SentPackets 	0
scalar IntersectionExampleScenario.node[24].nic.mac1609_4 	SNIRLostPackets 	0
scalar IntersectionExampleScenario.node[24].nic.mac1609_4 	RXTXLostPackets 	0
scalar IntersectionExampleScenario.node[24].nic.mac1609_4 	TotalLostPackets 	0
scalar IntersectionExampleScenario.node[24].nic.mac1609_4 	DroppedPacketsInMac 	0
scalar IntersectionExampleScenario.node[24].nic.mac1609_4 	TooLittleTime 	0
scalar IntersectionExampleScenario.node[24].nic.mac1609_4 	TimesIntoBackoff 	0
scalar IntersectionExampleScenario.node[24].nic.mac1609_4 	SlotsBackoff 	0
scalar IntersectionExampleScenario.node[24].nic.mac1609_4 	NumInternalContention 	0
scalar IntersectionExampleScenario.node[24].nic.mac1609_4 	totalBusyTime 	0
scalar IntersectionExampleScenario.node[24].veinsmobility 	startTime 	54.5
scalar IntersectionExampleScenario.node[24].veinsmobility 	totalTime 	47.25
scalar IntersectionExampleScenario.node[24].veinsmobility 	stopTime 	102
scalar IntersectionExampleScenario.node[24].veinsmobility 	minSpeed 	3.5588755607605
scalar IntersectionExampleScenario.node[24].veinsmobility 	maxSpeed 	14.625
scalar IntersectionExampleScenario.node[24].veinsmobility 	totalDistance 	546.85596400856
scalar IntersectionExampleScenario.node[24].veinsmobility 	totalCO2Emission 	130.4975287924
scalar IntersectionExampleScenario.node[29].appl 	VehicleRemoved 	0
scalar IntersectionExampleScenario.node[29].appl 	ArrivedAtDest 	1
scalar IntersectionExampleScenario.node[29].appl 	IntersectionEnterTime 	69.5
scalar IntersectionExampleScenario.node[29].appl 	IntersectionExitTime 	93.117838046106
scalar IntersectionExampleScenario.node[29].appl 	NumberOfCollisions 	0
scalar IntersectionExampleScenario.node[29].nic.phy80211p 	busyTime 	0
scalar IntersectionExampleScenario.node[29].nic.mac1609_4 	ReceivedUnicastPackets 	0
scalar IntersectionExampleScenario.node[29].nic.mac1609_4 	ReceivedBroadcasts 	0
scalar IntersectionExampleScenario.node[29].nic.mac1609_4 	SentPackets 	0
scalar IntersectionExampleScenario.node[29].nic.mac1609_4 	SNIRLostPackets 	0
scalar IntersectionExampleScenario.node[29].nic.mac1609_4 	RXTXLostPackets 	0
scalar IntersectionExampleScenario.node[29].nic.mac1609_4 	TotalLostPackets 	0
scalar IntersectionExampleScenario.node[29].nic.mac1609_4 	DroppedPacketsInMac 	0
scalar IntersectionExampleScenario.node[29].nic.mac1609_4 	TooLittleTime 	0
scalar IntersectionExampleScenario.node[29].nic.mac1609_4 	TimesIntoBackoff 	0
scalar IntersectionExampleScenario.node[29].nic.mac1609_4 	SlotsBackoff 	0
scalar IntersectionExampleScenario.node[29].nic.mac1609_4 	NumInternalContention 	0
scalar IntersectionExampleScenario.node[29].nic.mac1609_4 	totalBusyTime 	0
scalar IntersectionExampleScenario.node[29].veinsmobility 	startTime 	69.5
scalar IntersectionExampleScenario.node[29].veinsmobility 	totalTime 	40
scalar IntersectionExampleScenario.node[29].veinsmobility 	stopTime 	109.75
scalar IntersectionExampleScenario.node[29].veinsmobility 	minSpeed 	5.6500000953674
scalar IntersectionExampleScenario.node[29].veinsmobility 	maxSpeed 	15.02499961853
scalar IntersectionExampleScenario.node[29].veinsmobility 	totalDistance 	553.0140838623
scalar IntersectionExampleScenario.node[29].veinsmobility 	totalCO2Emission 	114.18256448094
scalar IntersectionExampleScenario.node[30].appl 	VehicleRemoved 	0
scalar IntersectionExampleScenario.node[30].appl 	ArrivedAtDest 	1
scalar IntersectionExampleScenario.node[30].appl 	IntersectionEnterTime 	71.25
scalar IntersectionExampleScenario.node[30].appl 	IntersectionExitTime 	95.294754569506
scalar IntersectionExampleScenario.node[30].appl 	NumberOfCollisions 	0
scalar IntersectionExampleScenario.node[30].nic.phy80211p 	busyTime 	0
scalar IntersectionExampleScenario.node[30].nic.mac1609_4 	ReceivedUnicastPackets 	0
scalar IntersectionExampleScenario.node[30].nic.mac1609_4 	ReceivedBroadcasts 	0
scalar IntersectionExampleScenario.node[30].nic.mac1609_4 	SentPackets 	0
scalar IntersectionExampleScenario.node[30].nic.mac1609_4 	SNIRLostPackets 	0
scalar IntersectionExampleScenario.node[30].nic.mac1609_4 	RXTXLostPackets 	0
scalar IntersectionExampleScenario.node[30].nic.mac1609_4 	TotalLostPackets 	0
scalar IntersectionExampleScenario.node[30].nic.mac1609_4 	DroppedPacketsInMac 	0
scalar IntersectionExampleScenario.node[30].nic.mac1609_4 	TooLittleTime 	0
scalar IntersectionExampleScenario.node[30].nic.mac1609_4 	TimesIntoBackoff 	0
scalar IntersectionExampleScenario.node[30].nic.mac1609_4 	SlotsBackoff 	0
scalar IntersectionExampleScenario.node[30].nic.mac1609_4 	NumInternalContention 	0
scalar IntersectionExampleScenario.node[30].nic.mac1609_4 	totalBusyTime 	0
scalar IntersectionExampleScenario.node[30].veinsmobility 	startTime 	71.25
scalar IntersectionExampleScenario.node[30].veinsmobility 	totalTime 	41
scalar IntersectionExampleScenario.node[30].veinsmobility 	stopTime 	112.5
scalar IntersectionExampleScenario.node[30].veinsmobility 	minSpeed 	5.6500000953674
scalar IntersectionExampleScenario.node[30].veinsmobility 	maxSpeed 	15.02499961853
scalar IntersectionExampleScenario.node[30].veinsmobility 	totalDistance 	551.12137667418
scalar IntersectionExampleScenario.node[30].veinsmobility 	totalCO2Emission 	118.54224496764
scalar IntersectionExampleScenario.node[31].appl 	VehicleRemoved 	0
scalar IntersectionExampleScenario.node[31].appl 	ArrivedAtDest 	1
scalar IntersectionExampleScenario.node[31].appl 	IntersectionEnterTime 	75.75
scalar IntersectionExampleScenario.node[31].appl 	IntersectionExitTime 	100.57433581434
scalar IntersectionExampleScenario.node[31].appl 	NumberOfCollisions 	0
scalar IntersectionExampleScenario.node[31].nic.phy80211p 	busyTime 	0
scalar IntersectionExampleScenario.node[31].nic.mac1609_4 	ReceivedUnicastPackets 	0
scalar IntersectionExampleScenario.node[31].nic.mac1609_4 	ReceivedBroadcasts 	0
scalar IntersectionExampleScenario.node[31].nic.mac1609_4 	SentPackets 	0
scalar IntersectionExampleScenario.node[31].nic.mac1609_4 	SNIRLostPackets 	0
scalar IntersectionExampleScenario.node[31].nic.mac1609_4 	RXTXLostPackets 	0
scalar IntersectionExampleScenario.node[31].nic.mac1609_4 	TotalLostPackets 	0
scalar IntersectionExampleScenario.node[31].nic.mac1609_4 	DroppedPacketsInMac 	0
scalar IntersectionExampleScenario.node[31].nic.mac1609_4 	TooLittleTime 	0
scalar IntersectionExampleScenario.node[31].nic.mac1609_4 	TimesIntoBackoff 	0
scalar IntersectionExampleScenario.node[31].nic.mac1609_4 	SlotsBackoff 	0
scalar IntersectionExampleScenario.node[31].nic.mac1609_4 	NumInternalContention 	0
scalar IntersectionExampleScenario.node[31].nic.mac1609_4 	totalBusyTime 	0
scalar IntersectionExampleScenario.node[31].veinsmobility 	startTime 	75.75
scalar IntersectionExampleScenario.node[31].veinsmobility 	totalTime 	41
scalar IntersectionExampleScenario.node[31].veinsmobility 	stopTime 	117
scalar IntersectionExampleScenario.node[31].veinsmobility 	minSpeed 	5.5776286125183
scalar IntersectionExampleScenario.node[31].veinsmobility 	maxSpeed 	15.143577575684
scalar IntersectionExampleScenario.node[31].veinsmobility 	totalDistance 	552.11503601074
scalar IntersectionExampleScenario.node[31].veinsmobility 	totalCO2Emission 	127.38416922071
scalar IntersectionExampleScenario.node[25].appl 	VehicleRemoved 	0
scalar IntersectionExampleScenario.node[25].appl 	ArrivedAtDest 	1
scalar IntersectionExampleScenario.node[25].appl 	IntersectionEnterTime 	62.25
scalar IntersectionExampleScenario.node[25].appl 	IntersectionExitTime 	101.34043739553
scalar IntersectionExampleScenario.node[25].appl 	NumberOfCollisions 	0
scalar IntersectionExampleScenario.node[25].nic.phy80211p 	busyTime 	0
scalar IntersectionExampleScenario.node[25].nic.mac1609_4 	ReceivedUnicastPackets 	0
scalar IntersectionExampleScenario.node[25].nic.mac1609_4 	ReceivedBroadcasts 	0
scalar IntersectionExampleScenario.node[25].nic.mac1609_4 	SentPackets 	0
scalar IntersectionExampleScenario.node[25].nic.mac1609_4 	SNIRLostPackets 	0
scalar IntersectionExampleScenario.node[25].nic.mac1609_4 	RXTXLostPackets 	0
scalar IntersectionExampleScenario.node[25].nic.mac1609_4 	TotalLostPackets 	0
scalar IntersectionExampleScenario.node[25].nic.mac1609_4 	DroppedPacketsInMac 	0
scalar IntersectionExampleScenario.node[25].nic.mac1609_4 	TooLittleTime 	0
scalar IntersectionExampleScenario.node[25].nic.mac1609_4 	TimesIntoBackoff 	0
scalar IntersectionExampleScenario.node[25].nic.mac1609_4 	SlotsBackoff 	0
scalar IntersectionExampleScenario.node[25].nic.mac1609_4 	NumInternalContention 	0
scalar IntersectionExampleScenario.node[25].nic.mac1609_4 	totalBusyTime 	0
scalar IntersectionExampleScenario.node[25].veinsmobility 	startTime 	62.25
scalar IntersectionExampleScenario.node[25].veinsmobility 	totalTime 	55.75
scalar IntersectionExampleScenario.node[25].veinsmobility 	stopTime 	118.25
scalar IntersectionExampleScenario.node[25].veinsmobility 	minSpeed 	0
scalar IntersectionExampleScenario.node[25].veinsmobility 	maxSpeed 	14.75
scalar IntersectionExampleScenario.node[25].veinsmobility 	totalDistance 	551.15470123291
scalar IntersectionExampleScenario.node[25].veinsmobility 	totalCO2Emission 	141.0731897586
scalar IntersectionExampleScenario.node[26].appl 	VehicleRemoved 	0
scalar IntersectionExampleScenario.node[26].appl 	ArrivedAtDest 	1
scalar IntersectionExampleScenario.node[26].appl 	IntersectionEnterTime 	66.75
scalar IntersectionExampleScenario.node[26].appl 	IntersectionExitTime 	102.28986155789
scalar IntersectionExampleScenario.node[26].appl 	NumberOfCollisions 	0
scalar IntersectionExampleScenario.node[26].nic.phy80211p 	busyTime 	0
scalar IntersectionExampleScenario.node[26].nic.mac1609_4 	ReceivedUnicastPackets 	0
scalar IntersectionExampleScenario.node[26].nic.mac1609_4 	ReceivedBroadcasts 	0
scalar IntersectionExampleScenario.node[26].nic.mac1609_4 	SentPackets 	0
scalar IntersectionExampleScenario.node[26].nic.mac1609_4 	SNIRLostPackets 	0
scalar IntersectionExampleScenario.node[26].nic.mac1609_4 	RXTXLostPackets 	0
scalar IntersectionExampleScenario.node[26].nic.mac1609_4 	TotalLostPackets 	0
scalar IntersectionExampleScenario.node[26].nic.mac1609_4 	DroppedPacketsInMac 	0
scalar IntersectionExampleScenario.node[26].nic.mac1609_4 	TooLittleTime 	0
scalar IntersectionExampleScenario.node[26].nic.mac1609_4 	TimesIntoBackoff 	0
scalar IntersectionExampleScenario.node[26].nic.mac1609_4 	SlotsBackoff 	0
scalar IntersectionExampleScenario.node[26].nic.mac1609_4 	NumInternalContention 	0
scalar IntersectionExampleScenario.node[26].nic.mac1609_4 	totalBusyTime 	0
scalar IntersectionExampleScenario.node[26].veinsmobility 	startTime 	66.75
scalar IntersectionExampleScenario.node[26].veinsmobility 	totalTime 	52.5
scalar IntersectionExampleScenario.node[26].veinsmobility 	stopTime 	119.5
scalar IntersectionExampleScenario.node[26].veinsmobility 	minSpeed 	0
scalar IntersectionExampleScenario.node[26].veinsmobility 	maxSpeed 	14.75
scalar IntersectionExampleScenario.node[26].veinsmobility 	totalDistance 	550.98042003946
scalar IntersectionExampleScenario.node[26].veinsmobility 	totalCO2Emission 	138.19648420535
scalar IntersectionExampleScenario.node[27].appl 	VehicleRemoved 	0
scalar IntersectionExampleScenario.node[27].appl 	ArrivedAtDest 	1
scalar IntersectionExampleScenario.node[27].appl 	IntersectionEnterTime 	67.25
scalar IntersectionExampleScenario.node[27].appl 	IntersectionExitTime 	104.55375976226
scalar IntersectionExampleScenario.node[27].appl 	NumberOfCollisions 	0
scalar IntersectionExampleScenario.node[27].nic.phy80211p 	busyTime 	0
scalar IntersectionExampleScenario.node[27].nic.mac1609_4 	ReceivedUnicastPackets 	0
scalar IntersectionExampleScenario.node[27].nic.mac1609_4 	ReceivedBroadcasts 	0
scalar IntersectionExampleScenario.node[27].nic.mac1609_4 	SentPackets 	0
scalar IntersectionExampleScenario.node[27].nic.mac1609_4 	SNIRLostPackets 	0
scalar IntersectionExampleScenario.node[27].nic.mac1609_4 	RXTXLostPackets 	0
scalar IntersectionExampleScenario.node[27].nic.mac1609_4 	TotalLostPackets 	0
scalar IntersectionExampleScenario.node[27].nic.mac1609_4 	DroppedPacketsInMac 	0
scalar IntersectionExampleScenario.node[27].nic.mac1609_4 	TooLittleTime 	0
scalar IntersectionExampleScenario.node[27].nic.mac1609_4 	TimesIntoBackoff 	0
scalar IntersectionExampleScenario.node[27].nic.mac1609_4 	SlotsBackoff 	0
scalar IntersectionExampleScenario.node[27].nic.mac1609_4 	NumInternalContention 	0
scalar IntersectionExampleScenario.node[27].nic.mac1609_4 	totalBusyTime 	0
scalar IntersectionExampleScenario.node[27].veinsmobility 	startTime 	67.25
scalar IntersectionExampleScenario.node[27].veinsmobility 	totalTime 	53.75
scalar IntersectionExampleScenario.node[27].veinsmobility 	stopTime 	121.25
scalar IntersectionExampleScenario.node[27].veinsmobility 	minSpeed 	0.98900496959686
scalar IntersectionExampleScenario.node[27].veinsmobility 	maxSpeed 	15.082269668579
scalar IntersectionExampleScenario.node[27].veinsmobility 	totalDistance 	574.14707267791
scalar IntersectionExampleScenario.node[27].veinsmobility 	totalCO2Emission 	144.24947879786
scalar IntersectionExampleScenario.node[28].appl 	VehicleRemoved 	0
scalar IntersectionExampleScenario.node[28].appl 	ArrivedAtDest 	1
scalar IntersectionExampleScenario.node[28].appl 	IntersectionEnterTime 	69.25
scalar IntersectionExampleScenario.node[28].appl 	IntersectionExitTime 	106.26043953854
scalar IntersectionExampleScenario.node[28].appl 	NumberOfCollisions 	0
scalar IntersectionExampleScenario.node[28].nic.phy80211p 	busyTime 	0
scalar IntersectionExampleScenario.node[28].nic.mac1609_4 	ReceivedUnicastPackets 	0
scalar IntersectionExampleScenario.node[28].nic.mac1609_4 	ReceivedBroadcasts 	0
scalar IntersectionExampleScenario.node[28].nic.mac1609_4 	SentPackets 	0
scalar IntersectionExampleScenario.node[28].nic.mac1609_4 	SNIRLostPackets 	0
scalar IntersectionExampleScenario.node[28].nic.mac1609_4 	RXTXLostPackets 	0
scalar IntersectionExampleScenario.node[28].nic.mac1609_4 	TotalLostPackets 	0
scalar IntersectionExampleScenario.node[28].nic.mac1609_4 	DroppedPacketsInMac 	0
scalar IntersectionExampleScenario.node[28].nic.mac1609_4 	TooLittleTime 	0
scalar IntersectionExampleScenario.node[28].nic.mac1609_4 	TimesIntoBackoff 	0
scalar IntersectionExampleScenario.node[28].nic.mac1609_4 	SlotsBackoff 	0
scalar IntersectionExampleScenario.node[28].nic.mac1609_4 	NumInternalContention 	0
scalar IntersectionExampleScenario.node[28].nic.mac1609_4 	totalBusyTime 	0
scalar IntersectionExampleScenario.node[28].veinsmobility 	startTime 	69.25
scalar IntersectionExampleScenario.node[28].veinsmobility 	totalTime 	52.5
scalar IntersectionExampleScenario.node[28].veinsmobility 	stopTime 	122
scalar IntersectionExampleScenario.node[28].veinsmobility 	minSpeed 	2.2535684108734
scalar IntersectionExampleScenario.node[28].veinsmobility 	maxSpeed 	15.716012954712
scalar IntersectionExampleScenario.node[28].veinsmobility 	totalDistance 	581.19561004639
scalar IntersectionExampleScenario.node[28].veinsmobility 	totalCO2Emission 	150.40590771972
scalar IntersectionExampleScenario.node[32].appl 	VehicleRemoved 	0
scalar IntersectionExampleScenario.node[32].appl 	ArrivedAtDest 	1
scalar IntersectionExampleScenario.node[32].appl 	IntersectionEnterTime 	79.75
scalar IntersectionExampleScenario.node[32].appl 	IntersectionExitTime 	108.84474068871
scalar IntersectionExampleScenario.node[32].appl 	NumberOfCollisions 	0
scalar IntersectionExampleScenario.node[32].nic.phy80211p 	busyTime 	0
scalar IntersectionExampleScenario.node[32].nic.mac1609_4 	ReceivedUnicastPackets 	0
scalar IntersectionExampleScenario.node[32].nic.mac1609_4 	ReceivedBroadcasts 	0
scalar IntersectionExampleScenario.node[32].nic.mac1609_4 	SentPackets 	0
scalar IntersectionExampleScenario.node[32].nic.mac1609_4 	SNIRLostPackets 	0
scalar IntersectionExampleScenario.node[32].nic.mac1609_4 	RXTXLostPackets 	0
scalar IntersectionExampleScenario.node[32].nic.mac1609_4 	TotalLostPackets 	0
scalar IntersectionExampleScenario.node[32].nic.mac1609_4 	DroppedPacketsInMac 	0
scalar IntersectionExampleScenario.node[32].nic.mac1609_4 	TooLittleTime 	0
scalar IntersectionExampleScenario.node[32].nic.mac1609_4 	TimesIntoBackoff 	0
scalar IntersectionExampleScenario.node[32].nic.mac1609_4 	SlotsBackoff 	0
scalar IntersectionExampleScenario.node[32].nic.mac1609_4 	NumInternalContention 	0
scalar IntersectionExampleScenario.node[32].nic.mac1609_4 	totalBusyTime 	0
scalar IntersectionExampleScenario.node[32].veinsmobility 	startTime 	79.75
scalar IntersectionExampleScenario.node[32].veinsmobility 	totalTime 	46.25
scalar IntersectionExampleScenario.node[32].veinsmobility 	stopTime 	126.25
scalar IntersectionExampleScenario.node[32].veinsmobility 	minSpeed 	5.2787184715271
scalar IntersectionExampleScenario.node[32].veinsmobility 	maxSpeed 	15.25
scalar IntersectionExampleScenario.node[32].veinsmobility 	totalDistance 	546.53810929708
scalar IntersectionExampleScenario.node[32].veinsmobility 	totalCO2Emission 	135.48792527752
scalar IntersectionExampleScenario.node[34].appl 	VehicleRemoved 	0
scalar IntersectionExampleScenario.node[34].appl 	ArrivedAtDest 	1
scalar IntersectionExampleScenario.node[34].appl 	IntersectionEnterTime 	91
scalar IntersectionExampleScenario.node[34].appl 	IntersectionExitTime 	114.11560429397
scalar IntersectionExampleScenario.node[34].appl 	NumberOfCollisions 	0
scalar IntersectionExampleScenario.node[34].nic.phy80211p 	busyTime 	0
scalar IntersectionExampleScenario.node[34].nic.mac1609_4 	ReceivedUnicastPackets 	0
scalar IntersectionExampleScenario.node[34].nic.mac1609_4 	ReceivedBroadcasts 	0
scalar IntersectionExampleScenario.node[34].nic.mac1609_4 	SentPackets 	0
scalar IntersectionExampleScenario.node[34].nic.mac1609_4 	SNIRLostPackets 	0
scalar IntersectionExampleScenario.node[34].nic.mac1609_4 	RXTXLostPackets 	0
scalar IntersectionExampleScenario.node[34].nic.mac1609_4 	TotalLostPackets 	0
scalar IntersectionExampleScenario.node[34].nic.mac1609_4 	DroppedPacketsInMac 	0
scalar IntersectionExampleScenario.node[34].nic.mac1609_4 	TooLittleTime 	0
scalar IntersectionExampleScenario.node[34].nic.mac1609_4 	TimesIntoBackoff 	0
scalar IntersectionExampleScenario.node[34].nic.mac1609_4 	SlotsBackoff 	0
scalar IntersectionExampleScenario.node[34].nic.mac1609_4 	NumInternalContention 	0
scalar IntersectionExampleScenario.node[34].nic.mac1609_4 	totalBusyTime 	0
scalar IntersectionExampleScenario.node[34].veinsmobility 	startTime 	91
scalar IntersectionExampleScenario.node[34].veinsmobility 	totalTime 	39.25
scalar IntersectionExampleScenario.node[34].veinsmobility 	stopTime 	130.5
scalar IntersectionExampleScenario.node[34].veinsmobility 	minSpeed 	5.6500000953674
scalar IntersectionExampleScenario.node[34].veinsmobility 	maxSpeed 	15.5
scalar IntersectionExampleScenario.node[34].veinsmobility 	totalDistance 	552.04515075684
scalar IntersectionExampleScenario.node[34].veinsmobility 	totalCO2Emission 	116.05476691069
scalar IntersectionExampleScenario.node[35].appl 	VehicleRemoved 	0
scalar IntersectionExampleScenario.node[35].appl 	ArrivedAtDest 	1
scalar IntersectionExampleScenario.node[35].appl 	IntersectionEnterTime 	92.5
scalar IntersectionExampleScenario.node[35].appl 	IntersectionExitTime 	115.04412869914
scalar IntersectionExampleScenario.node[35].appl 	NumberOfCollisions 	0
scalar IntersectionExampleScenario.node[35].nic.phy80211p 	busyTime 	0
scalar IntersectionExampleScenario.node[35].nic.mac1609_4 	ReceivedUnicastPackets 	0
scalar IntersectionExampleScenario.node[35].nic.mac1609_4 	ReceivedBroadcasts 	0
scalar IntersectionExampleScenario.node[35].nic.mac1609_4 	SentPackets 	0
scalar IntersectionExampleScenario.node[35].nic.mac1609_4 	SNIRLostPackets 	0
scalar IntersectionExampleScenario.node[35].nic.mac1609_4 	RXTXLostPackets 	0
scalar IntersectionExampleScenario.node[35].nic.mac1609_4 	TotalLostPackets 	0
scalar IntersectionExampleScenario.node[35].nic.mac1609_4 	DroppedPacketsInMac 	0
scalar IntersectionExampleScenario.node[35].nic.mac1609_4 	TooLittleTime 	0
scalar IntersectionExampleScenario.node[35].nic.mac1609_4 	TimesIntoBackoff 	0
scalar IntersectionExampleScenario.node[35].nic.mac1609_4 	SlotsBackoff 	0
scalar IntersectionExampleScenario.node[35].nic.mac1609_4 	NumInternalContention 	0
scalar IntersectionExampleScenario.node[35].nic.mac1609_4 	totalBusyTime 	0
scalar IntersectionExampleScenario.node[35].veinsmobility 	startTime 	92.5
scalar IntersectionExampleScenario.node[35].veinsmobility 	totalTime 	38.25
scalar IntersectionExampleScenario.node[35].veinsmobility 	stopTime 	131
scalar IntersectionExampleScenario.node[35].veinsmobility 	minSpeed 	5.6500000953674
scalar IntersectionExampleScenario.node[35].veinsmobility 	maxSpeed 	16.27499961853
scalar IntersectionExampleScenario.node[35].veinsmobility 	totalDistance 	551.31713834523
scalar IntersectionExampleScenario.node[35].veinsmobility 	totalCO2Emission 	127.58880121149
scalar IntersectionExampleScenario.node[33].appl 	VehicleRemoved 	0
scalar IntersectionExampleScenario.node[33].appl 	ArrivedAtDest 	1
scalar IntersectionExampleScenario.node[33].appl 	IntersectionEnterTime 	89.5
scalar IntersectionExampleScenario.node[33].appl 	IntersectionExitTime 	121.29311435143
scalar IntersectionExampleScenario.node[33].appl 	NumberOfCollisions 	0
scalar IntersectionExampleScenario.node[33].nic.phy80211p 	busyTime 	0
scalar IntersectionExampleScenario.node[33].nic.mac1609_4 	ReceivedUnicastPackets 	0
scalar IntersectionExampleScenario.node[33].nic.mac1609_4 	ReceivedBroadcasts 	0
scalar IntersectionExampleScenario.node[33].nic.mac1609_4 	SentPackets 	0
scalar IntersectionExampleScenario.node[33].nic.mac1609_4 	SNIRLostPackets 	0
scalar IntersectionExampleScenario.node[33].nic.mac1609_4 	RXTXLostPackets 	0
scalar IntersectionExampleScenario.node[33].nic.mac1609_4 	TotalLostPackets 	0
scalar IntersectionExampleScenario.node[33].nic.mac1609_4 	DroppedPacketsInMac 	0
scalar IntersectionExampleScenario.node[33].nic.mac1609_4 	TooLittleTime 	0
scalar IntersectionExampleScenario.node[33].nic.mac1609_4 	TimesIntoBackoff 	0
scalar IntersectionExampleScenario.node[33].nic.mac1609_4 	SlotsBackoff 	0
scalar IntersectionExampleScenario.node[33].nic.mac1609_4 	NumInternalContention 	0
scalar IntersectionExampleScenario.node[33].nic.mac1609_4 	totalBusyTime 	0
scalar IntersectionExampleScenario.node[33].veinsmobility 	startTime 	89.5
scalar IntersectionExampleScenario.node[33].veinsmobility 	totalTime 	48.75
scalar IntersectionExampleScenario.node[33].veinsmobility 	stopTime 	138.5
scalar IntersectionExampleScenario.node[33].veinsmobility 	minSpeed 	0
scalar IntersectionExampleScenario.node[33].veinsmobility 	maxSpeed 	14.75
scalar IntersectionExampleScenario.node[33].veinsmobility 	totalDistance 	554.11883544922
scalar IntersectionExampleScenario.node[33].veinsmobility 	totalCO2Emission 	134.48759951991
scalar IntersectionExampleScenario.node[37].appl 	VehicleRemoved 	0
scalar IntersectionExampleScenario.node[37].appl 	ArrivedAtDest 	1
scalar IntersectionExampleScenario.node[37].appl 	IntersectionEnterTime 	98.25
scalar IntersectionExampleScenario.node[37].appl 	IntersectionExitTime 	124.0747852491
scalar IntersectionExampleScenario.node[37].appl 	NumberOfCollisions 	0
scalar IntersectionExampleScenario.node[37].nic.phy80211p 	busyTime 	0
scalar IntersectionExampleScenario.node[37].nic.mac1609_4 	ReceivedUnicastPackets 	0
scalar IntersectionExampleScenario.node[37].nic.mac1609_4 	ReceivedBroadcasts 	0
scalar IntersectionExampleScenario.node[37].nic.mac1609_4 	SentPackets 	0
scalar IntersectionExampleScenario.node[37].nic.mac1609_4 	SNIRLostPackets 	0
scalar IntersectionExampleScenario.node[37].nic.mac1609_4 	RXTXLostPackets 	0
scalar IntersectionExampleScenario.node[37].nic.mac1609_4 	TotalLostPackets 	0
scalar IntersectionExampleScenario.node[37].nic.mac1609_4 	DroppedPacketsInMac 	0
scalar IntersectionExampleScenario.node[37].nic.mac1609_4 	TooLittleTime 	0
scalar IntersectionExampleScenario.node[37].nic.mac1609_4 	TimesIntoBackoff 	0
scalar IntersectionExampleScenario.node[37].nic.mac1609_4 	SlotsBackoff 	0
scalar IntersectionExampleScenario.node[37].nic.mac1609_4 	NumInternalContention 	0
scalar IntersectionExampleScenario.node[37].nic.mac1609_4 	totalBusyTime 	0
scalar IntersectionExampleScenario.node[37].veinsmobility 	startTime 	98.25
scalar IntersectionExampleScenario.node[37].veinsmobility 	totalTime 	42.75
scalar IntersectionExampleScenario.node[37].veinsmobility 	stopTime 	141.25
scalar IntersectionExampleScenario.node[37].veinsmobility 	minSpeed 	5.6500000953674
scalar IntersectionExampleScenario.node[37].veinsmobility 	maxSpeed 	15.25
scalar IntersectionExampleScenario.node[37].veinsmobility 	totalDistance 	544.56578319154
scalar IntersectionExampleScenario.node[37].veinsmobility 	totalCO2Emission 	136.06238581066
scalar IntersectionExampleScenario.node[38].appl 	VehicleRemoved 	0
scalar IntersectionExampleScenario.node[38].appl 	ArrivedAtDest 	1
scalar IntersectionExampleScenario.node[38].appl 	IntersectionEnterTime 	101.5
scalar IntersectionExampleScenario.node[38].appl 	IntersectionExitTime 	125.10883911717
scalar IntersectionExampleScenario.node[38].appl 	NumberOfCollisions 	0
scalar IntersectionExampleScenario.node[38].nic.phy80211p 	busyTime 	0
scalar IntersectionExampleScenario.node[38].nic.mac1609_4 	ReceivedUnicastPackets 	0
scalar IntersectionExampleScenario.node[38].nic.mac1609_4 	ReceivedBroadcasts 	0
scalar IntersectionExampleScenario.node[38].nic.mac1609_4 	SentPackets 	0
scalar IntersectionExampleScenario.node[38].nic.mac1609_4 	SNIRLostPackets 	0
scalar IntersectionExampleScenario.node[38].nic.mac1609_4 	RXTXLostPackets 	0
scalar IntersectionExampleScenario.node[38].nic.mac1609_4 	TotalLostPackets 	0
scalar IntersectionExampleScenario.node[38].nic.mac1609_4 	DroppedPacketsInMac 	0
scalar IntersectionExampleScenario.node[38].nic.mac1609_4 	TooLittleTime 	0
scalar IntersectionExampleScenario.node[38].nic.mac1609_4 	TimesIntoBackoff 	0
scalar IntersectionExampleScenario.node[38].nic.mac1609_4 	SlotsBackoff 	0
scalar IntersectionExampleScenario.node[38].nic.mac1609_4 	NumInternalContention 	0
scalar IntersectionExampleScenario.node[38].nic.mac1609_4 	totalBusyTime 	0
scalar IntersectionExampleScenario.node[38].veinsmobility 	startTime 	101.5
scalar IntersectionExampleScenario.node[38].veinsmobility 	totalTime 	40.75
scalar IntersectionExampleScenario.node[38].veinsmobility 	stopTime 	142.5
scalar IntersectionExampleScenario.node[38].veinsmobility 	minSpeed 	5.6500000953674
scalar IntersectionExampleScenario.node[38].veinsmobility 	maxSpeed 	15.687744140625
scalar IntersectionExampleScenario.node[38].veinsmobility 	totalDistance 	549.242765491
scalar IntersectionExampleScenario.node[38].veinsmobility 	totalCO2Emission 	127.4713414215
scalar IntersectionExampleScenario.node[39].appl 	VehicleRemoved 	0
scalar IntersectionExampleScenario.node[39].appl 	ArrivedAtDest 	1
scalar IntersectionExampleScenario.node[39].appl 	IntersectionEnterTime 	106.75
scalar IntersectionExampleScenario.node[39].appl 	IntersectionExitTime 	129.79164209907
scalar IntersectionExampleScenario.node[39].appl 	NumberOfCollisions 	0
scalar IntersectionExampleScenario.node[39].nic.phy80211p 	busyTime 	0
scalar IntersectionExampleScenario.node[39].nic.mac1609_4 	ReceivedUnicastPackets 	0
scalar IntersectionExampleScenario.node[39].nic.mac1609_4 	ReceivedBroadcasts 	0
scalar IntersectionExampleScenario.node[39].nic.mac1609_4 	SentPackets 	0
scalar IntersectionExampleScenario.node[39].nic.mac1609_4 	SNIRLostPackets 	0
scalar IntersectionExampleScenario.node[39].nic.mac1609_4 	RXTXLostPackets 	0
scalar IntersectionExampleScenario.node[39].nic.mac1609_4 	TotalLostPackets 	0
scalar IntersectionExampleScenario.node[39].nic.mac1609_4 	DroppedPacketsInMac 	0
scalar IntersectionExampleScenario.node[39].nic.mac1609_4 	TooLittleTime 	0
scalar IntersectionExampleScenario.node[39].nic.mac1609_4 	TimesIntoBackoff 	0
scalar IntersectionExampleScenario.node[39].nic.mac1609_4 	SlotsBackoff 	0
scalar IntersectionExampleScenario.node[39].nic.mac1609_4 	NumInternalContention 	0
scalar IntersectionExampleScenario.node[39].nic.mac1609_4 	totalBusyTime 	0
scalar IntersectionExampleScenario.node[39].veinsmobility 	startTime 	106.75
scalar IntersectionExampleScenario.node[39].veinsmobility 	totalTime 	39.5
scalar IntersectionExampleScenario.node[39].veinsmobility 	stopTime 	146.5
scalar IntersectionExampleScenario.node[39].veinsmobility 	minSpeed 	5.6500000953674
scalar IntersectionExampleScenario.node[39].veinsmobility 	maxSpeed 	15.875
scalar IntersectionExampleScenario.node[39].veinsmobility 	totalDistance 	546.00463863908
scalar IntersectionExampleScenario.node[39].veinsmobility 	totalCO2Emission 	129.06560253781
scalar IntersectionExampleScenario.node[40].appl 	VehicleRemoved 	0
scalar IntersectionExampleScenario.node[40].appl 	ArrivedAtDest 	1
scalar IntersectionExampleScenario.node[40].appl 	IntersectionEnterTime 	110.5
scalar IntersectionExampleScenario.node[40].appl 	IntersectionExitTime 	133.08567494131
scalar IntersectionExampleScenario.node[40].appl 	NumberOfCollisions 	0
scalar IntersectionExampleScenario.node[40].nic.phy80211p 	busyTime 	0
scalar IntersectionExampleScenario.node[40].nic.mac1609_4 	ReceivedUnicastPackets 	0
scalar IntersectionExampleScenario.node[40].nic.mac1609_4 	ReceivedBroadcasts 	0
scalar IntersectionExampleScenario.node[40].nic.mac1609_4 	SentPackets 	0
scalar IntersectionExampleScenario.node[40].nic.mac1609_4 	SNIRLostPackets 	0
scalar IntersectionExampleScenario.node[40].nic.mac1609_4 	RXTXLostPackets 	0
scalar IntersectionExampleScenario.node[40].nic.mac1609_4 	TotalLostPackets 	0
scalar IntersectionExampleScenario.node[40].nic.mac1609_4 	DroppedPacketsInMac 	0
scalar IntersectionExampleScenario.node[40].nic.mac1609_4 	TooLittleTime 	0
[...]
scalar IntersectionExampleScenario.node[690].veinsmobility 	totalCO2Emission 	92.816865193986
scalar IntersectionExampleScenario.node[691].appl 	VehicleRemoved 	0
scalar IntersectionExampleScenario.node[691].appl 	ArrivedAtDest 	0
scalar IntersectionExampleScenario.node[691].appl 	IntersectionEnterTime 	1767.5
scalar IntersectionExampleScenario.node[691].appl 	IntersectionExitTime 	1790.0738386915
scalar IntersectionExampleScenario.node[691].appl 	NumberOfCollisions 	0
scalar IntersectionExampleScenario.node[691].nic.phy80211p 	busyTime 	0
scalar IntersectionExampleScenario.node[691].nic.mac1609_4 	ReceivedUnicastPackets 	0
scalar IntersectionExampleScenario.node[691].nic.mac1609_4 	ReceivedBroadcasts 	0
scalar IntersectionExampleScenario.node[691].nic.mac1609_4 	SentPackets 	0
scalar IntersectionExampleScenario.node[691].nic.mac1609_4 	SNIRLostPackets 	0
scalar IntersectionExampleScenario.node[691].nic.mac1609_4 	RXTXLostPackets 	0
scalar IntersectionExampleScenario.node[691].nic.mac1609_4 	TotalLostPackets 	0
scalar IntersectionExampleScenario.node[691].nic.mac1609_4 	DroppedPacketsInMac 	0
scalar IntersectionExampleScenario.node[691].nic.mac1609_4 	TooLittleTime 	0
scalar IntersectionExampleScenario.node[691].nic.mac1609_4 	TimesIntoBackoff 	0
scalar IntersectionExampleScenario.node[691].nic.mac1609_4 	SlotsBackoff 	0
scalar IntersectionExampleScenario.node[691].nic.mac1609_4 	NumInternalContention 	0
scalar IntersectionExampleScenario.node[691].nic.mac1609_4 	totalBusyTime 	0
scalar IntersectionExampleScenario.node[691].veinsmobility 	startTime 	1767.5
scalar IntersectionExampleScenario.node[691].veinsmobility 	totalTime 	32.5
scalar IntersectionExampleScenario.node[691].veinsmobility 	stopTime 	1800
scalar IntersectionExampleScenario.node[691].veinsmobility 	minSpeed 	5.6500000953674
scalar IntersectionExampleScenario.node[691].veinsmobility 	maxSpeed 	15.64999961853
scalar IntersectionExampleScenario.node[691].veinsmobility 	totalDistance 	464.06931304932
scalar IntersectionExampleScenario.node[691].veinsmobility 	totalCO2Emission 	106.95578263179
scalar IntersectionExampleScenario.node[692].appl 	VehicleRemoved 	0
scalar IntersectionExampleScenario.node[692].appl 	ArrivedAtDest 	0
scalar IntersectionExampleScenario.node[692].appl 	IntersectionEnterTime 	1767.75
scalar IntersectionExampleScenario.node[692].appl 	IntersectionExitTime 	1793.2653732191
scalar IntersectionExampleScenario.node[692].appl 	NumberOfCollisions 	0
scalar IntersectionExampleScenario.node[692].nic.phy80211p 	busyTime 	0
scalar IntersectionExampleScenario.node[692].nic.mac1609_4 	ReceivedUnicastPackets 	0
scalar IntersectionExampleScenario.node[692].nic.mac1609_4 	ReceivedBroadcasts 	0
scalar IntersectionExampleScenario.node[692].nic.mac1609_4 	SentPackets 	0
scalar IntersectionExampleScenario.node[692].nic.mac1609_4 	SNIRLostPackets 	0
scalar IntersectionExampleScenario.node[692].nic.mac1609_4 	RXTXLostPackets 	0
scalar IntersectionExampleScenario.node[692].nic.mac1609_4 	TotalLostPackets 	0
scalar IntersectionExampleScenario.node[692].nic.mac1609_4 	DroppedPacketsInMac 	0
scalar IntersectionExampleScenario.node[692].nic.mac1609_4 	TooLittleTime 	0
scalar IntersectionExampleScenario.node[692].nic.mac1609_4 	TimesIntoBackoff 	0
scalar IntersectionExampleScenario.node[692].nic.mac1609_4 	SlotsBackoff 	0
scalar IntersectionExampleScenario.node[692].nic.mac1609_4 	NumInternalContention 	0
scalar IntersectionExampleScenario.node[692].nic.mac1609_4 	totalBusyTime 	0
scalar IntersectionExampleScenario.node[692].veinsmobility 	startTime 	1767.75
scalar IntersectionExampleScenario.node[692].veinsmobility 	totalTime 	32.25
scalar IntersectionExampleScenario.node[692].veinsmobility 	stopTime 	1800
scalar IntersectionExampleScenario.node[692].veinsmobility 	minSpeed 	5.6500000953674
scalar IntersectionExampleScenario.node[692].veinsmobility 	maxSpeed 	15.47728729248
scalar IntersectionExampleScenario.node[692].veinsmobility 	totalDistance 	416.63182633189
scalar IntersectionExampleScenario.node[692].veinsmobility 	totalCO2Emission 	112.8961004032
scalar IntersectionExampleScenario.node[693].appl 	VehicleRemoved 	0
scalar IntersectionExampleScenario.node[693].appl 	ArrivedAtDest 	0
scalar IntersectionExampleScenario.node[693].appl 	IntersectionEnterTime 	1772.5
scalar IntersectionExampleScenario.node[693].appl 	IntersectionExitTime 	1797.5608331776
scalar IntersectionExampleScenario.node[693].appl 	NumberOfCollisions 	0
scalar IntersectionExampleScenario.node[693].nic.phy80211p 	busyTime 	0
scalar IntersectionExampleScenario.node[693].nic.mac1609_4 	ReceivedUnicastPackets 	0
scalar IntersectionExampleScenario.node[693].nic.mac1609_4 	ReceivedBroadcasts 	0
scalar IntersectionExampleScenario.node[693].nic.mac1609_4 	SentPackets 	0
scalar IntersectionExampleScenario.node[693].nic.mac1609_4 	SNIRLostPackets 	0
scalar IntersectionExampleScenario.node[693].nic.mac1609_4 	RXTXLostPackets 	0
scalar IntersectionExampleScenario.node[693].nic.mac1609_4 	TotalLostPackets 	0
scalar IntersectionExampleScenario.node[693].nic.mac1609_4 	DroppedPacketsInMac 	0
scalar IntersectionExampleScenario.node[693].nic.mac1609_4 	TooLittleTime 	0
scalar IntersectionExampleScenario.node[693].nic.mac1609_4 	TimesIntoBackoff 	0
scalar IntersectionExampleScenario.node[693].nic.mac1609_4 	SlotsBackoff 	0
scalar IntersectionExampleScenario.node[693].nic.mac1609_4 	NumInternalContention 	0
scalar IntersectionExampleScenario.node[693].nic.mac1609_4 	totalBusyTime 	0
scalar IntersectionExampleScenario.node[693].veinsmobility 	startTime 	1772.5
scalar IntersectionExampleScenario.node[693].veinsmobility 	totalTime 	27.5
scalar IntersectionExampleScenario.node[693].veinsmobility 	stopTime 	1800
scalar IntersectionExampleScenario.node[693].veinsmobility 	minSpeed 	3.0843908786774
scalar IntersectionExampleScenario.node[693].veinsmobility 	maxSpeed 	15.64999961853
scalar IntersectionExampleScenario.node[693].veinsmobility 	totalDistance 	339.84060245958
scalar IntersectionExampleScenario.node[693].veinsmobility 	totalCO2Emission 	101.21803101695
scalar IntersectionExampleScenario.node[694].appl 	VehicleRemoved 	0
scalar IntersectionExampleScenario.node[694].appl 	ArrivedAtDest 	0
scalar IntersectionExampleScenario.node[694].appl 	IntersectionEnterTime 	1780.25
scalar IntersectionExampleScenario.node[694].appl 	IntersectionExitTime 	-1
scalar IntersectionExampleScenario.node[694].appl 	NumberOfCollisions 	0
scalar IntersectionExampleScenario.node[694].nic.phy80211p 	busyTime 	0
scalar IntersectionExampleScenario.node[694].nic.mac1609_4 	ReceivedUnicastPackets 	0
scalar IntersectionExampleScenario.node[694].nic.mac1609_4 	ReceivedBroadcasts 	0
scalar IntersectionExampleScenario.node[694].nic.mac1609_4 	SentPackets 	0
scalar IntersectionExampleScenario.node[694].nic.mac1609_4 	SNIRLostPackets 	0
scalar IntersectionExampleScenario.node[694].nic.mac1609_4 	RXTXLostPackets 	0
scalar IntersectionExampleScenario.node[694].nic.mac1609_4 	TotalLostPackets 	0
scalar IntersectionExampleScenario.node[694].nic.mac1609_4 	DroppedPacketsInMac 	0
scalar IntersectionExampleScenario.node[694].nic.mac1609_4 	TooLittleTime 	0
scalar IntersectionExampleScenario.node[694].nic.mac1609_4 	TimesIntoBackoff 	0
scalar IntersectionExampleScenario.node[694].nic.mac1609_4 	SlotsBackoff 	0
scalar IntersectionExampleScenario.node[694].nic.mac1609_4 	NumInternalContention 	0
scalar IntersectionExampleScenario.node[694].nic.mac1609_4 	totalBusyTime 	0
scalar IntersectionExampleScenario.node[694].veinsmobility 	startTime 	1780.25
scalar IntersectionExampleScenario.node[694].veinsmobility 	totalTime 	19.75
scalar IntersectionExampleScenario.node[694].veinsmobility 	stopTime 	1800
scalar IntersectionExampleScenario.node[694].veinsmobility 	minSpeed 	5.6500000953674
scalar IntersectionExampleScenario.node[694].veinsmobility 	maxSpeed 	15.02499961853
scalar IntersectionExampleScenario.node[694].veinsmobility 	totalDistance 	267.02405548096
scalar IntersectionExampleScenario.node[694].veinsmobility 	totalCO2Emission 	60.651275701697
scalar IntersectionExampleScenario.node[695].appl 	VehicleRemoved 	0
scalar IntersectionExampleScenario.node[695].appl 	ArrivedAtDest 	0
scalar IntersectionExampleScenario.node[695].appl 	IntersectionEnterTime 	1781.75
scalar IntersectionExampleScenario.node[695].appl 	IntersectionExitTime 	-1
scalar IntersectionExampleScenario.node[695].appl 	NumberOfCollisions 	0
scalar IntersectionExampleScenario.node[695].nic.phy80211p 	busyTime 	0
scalar IntersectionExampleScenario.node[695].nic.mac1609_4 	ReceivedUnicastPackets 	0
scalar IntersectionExampleScenario.node[695].nic.mac1609_4 	ReceivedBroadcasts 	0
scalar IntersectionExampleScenario.node[695].nic.mac1609_4 	SentPackets 	0
scalar IntersectionExampleScenario.node[695].nic.mac1609_4 	SNIRLostPackets 	0
scalar IntersectionExampleScenario.node[695].nic.mac1609_4 	RXTXLostPackets 	0
scalar IntersectionExampleScenario.node[695].nic.mac1609_4 	TotalLostPackets 	0
scalar IntersectionExampleScenario.node[695].nic.mac1609_4 	DroppedPacketsInMac 	0
scalar IntersectionExampleScenario.node[695].nic.mac1609_4 	TooLittleTime 	0
scalar IntersectionExampleScenario.node[695].nic.mac1609_4 	TimesIntoBackoff 	0
scalar IntersectionExampleScenario.node[695].nic.mac1609_4 	SlotsBackoff 	0
scalar IntersectionExampleScenario.node[695].nic.mac1609_4 	NumInternalContention 	0
scalar IntersectionExampleScenario.node[695].nic.mac1609_4 	totalBusyTime 	0
scalar IntersectionExampleScenario.node[695].veinsmobility 	startTime 	1781.75
scalar IntersectionExampleScenario.node[695].veinsmobility 	totalTime 	18.25
scalar IntersectionExampleScenario.node[695].veinsmobility 	stopTime 	1800
scalar IntersectionExampleScenario.node[695].veinsmobility 	minSpeed 	5.6500000953674
scalar IntersectionExampleScenario.node[695].veinsmobility 	maxSpeed 	15.624377250671
scalar IntersectionExampleScenario.node[695].veinsmobility 	totalDistance 	261.8078918457
scalar IntersectionExampleScenario.node[695].veinsmobility 	totalCO2Emission 	63.724221961285
scalar IntersectionExampleScenario.node[696].appl 	VehicleRemoved 	0
scalar IntersectionExampleScenario.node[696].appl 	ArrivedAtDest 	0
scalar IntersectionExampleScenario.node[696].appl 	IntersectionEnterTime 	1788.25
scalar IntersectionExampleScenario.node[696].appl 	IntersectionExitTime 	-1
scalar IntersectionExampleScenario.node[696].appl 	NumberOfCollisions 	0
scalar IntersectionExampleScenario.node[696].nic.phy80211p 	busyTime 	0
scalar IntersectionExampleScenario.node[696].nic.mac1609_4 	ReceivedUnicastPackets 	0
scalar IntersectionExampleScenario.node[696].nic.mac1609_4 	ReceivedBroadcasts 	0
scalar IntersectionExampleScenario.node[696].nic.mac1609_4 	SentPackets 	0
scalar IntersectionExampleScenario.node[696].nic.mac1609_4 	SNIRLostPackets 	0
scalar IntersectionExampleScenario.node[696].nic.mac1609_4 	RXTXLostPackets 	0
scalar IntersectionExampleScenario.node[696].nic.mac1609_4 	TotalLostPackets 	0
scalar IntersectionExampleScenario.node[696].nic.mac1609_4 	DroppedPacketsInMac 	0
scalar IntersectionExampleScenario.node[696].nic.mac1609_4 	TooLittleTime 	0
scalar IntersectionExampleScenario.node[696].nic.mac1609_4 	TimesIntoBackoff 	0
scalar IntersectionExampleScenario.node[696].nic.mac1609_4 	SlotsBackoff 	0
scalar IntersectionExampleScenario.node[696].nic.mac1609_4 	NumInternalContention 	0
scalar IntersectionExampleScenario.node[696].nic.mac1609_4 	totalBusyTime 	0
scalar IntersectionExampleScenario.node[696].veinsmobility 	startTime 	1788.25
scalar IntersectionExampleScenario.node[696].veinsmobility 	totalTime 	11.75
scalar IntersectionExampleScenario.node[696].veinsmobility 	stopTime 	1800
scalar IntersectionExampleScenario.node[696].veinsmobility 	minSpeed 	5.6500000953674
scalar IntersectionExampleScenario.node[696].veinsmobility 	maxSpeed 	15.64999961853
scalar IntersectionExampleScenario.node[696].veinsmobility 	totalDistance 	158.24796295166
scalar IntersectionExampleScenario.node[696].veinsmobility 	totalCO2Emission 	48.290972592899
scalar IntersectionExampleScenario.node[697].appl 	VehicleRemoved 	0
scalar IntersectionExampleScenario.node[697].appl 	ArrivedAtDest 	0
scalar IntersectionExampleScenario.node[697].appl 	IntersectionEnterTime 	1791.25
scalar IntersectionExampleScenario.node[697].appl 	IntersectionExitTime 	-1
scalar IntersectionExampleScenario.node[697].appl 	NumberOfCollisions 	0
scalar IntersectionExampleScenario.node[697].nic.phy80211p 	busyTime 	0
scalar IntersectionExampleScenario.node[697].nic.mac1609_4 	ReceivedUnicastPackets 	0
scalar IntersectionExampleScenario.node[697].nic.mac1609_4 	ReceivedBroadcasts 	0
scalar IntersectionExampleScenario.node[697].nic.mac1609_4 	SentPackets 	0
scalar IntersectionExampleScenario.node[697].nic.mac1609_4 	SNIRLostPackets 	0
scalar IntersectionExampleScenario.node[697].nic.mac1609_4 	RXTXLostPackets 	0
scalar IntersectionExampleScenario.node[697].nic.mac1609_4 	TotalLostPackets 	0
scalar IntersectionExampleScenario.node[697].nic.mac1609_4 	DroppedPacketsInMac 	0
scalar IntersectionExampleScenario.node[697].nic.mac1609_4 	TooLittleTime 	0
scalar IntersectionExampleScenario.node[697].nic.mac1609_4 	TimesIntoBackoff 	0
scalar IntersectionExampleScenario.node[697].nic.mac1609_4 	SlotsBackoff 	0
scalar IntersectionExampleScenario.node[697].nic.mac1609_4 	NumInternalContention 	0
scalar IntersectionExampleScenario.node[697].nic.mac1609_4 	totalBusyTime 	0
scalar IntersectionExampleScenario.node[697].veinsmobility 	startTime 	1791.25
scalar IntersectionExampleScenario.node[697].veinsmobility 	totalTime 	8.75
scalar IntersectionExampleScenario.node[697].veinsmobility 	stopTime 	1800
scalar IntersectionExampleScenario.node[697].veinsmobility 	minSpeed 	5.6500000953674
scalar IntersectionExampleScenario.node[697].veinsmobility 	maxSpeed 	15.02499961853
scalar IntersectionExampleScenario.node[697].veinsmobility 	totalDistance 	111.46148681641
scalar IntersectionExampleScenario.node[697].veinsmobility 	totalCO2Emission 	40.846789698311
scalar IntersectionExampleScenario.node[698].appl 	VehicleRemoved 	0
scalar IntersectionExampleScenario.node[698].appl 	ArrivedAtDest 	0
scalar IntersectionExampleScenario.node[698].appl 	IntersectionEnterTime 	1798.25
scalar IntersectionExampleScenario.node[698].appl 	IntersectionExitTime 	-1
scalar IntersectionExampleScenario.node[698].appl 	NumberOfCollisions 	0
scalar IntersectionExampleScenario.node[698].nic.phy80211p 	busyTime 	0
scalar IntersectionExampleScenario.node[698].nic.mac1609_4 	ReceivedUnicastPackets 	0
scalar IntersectionExampleScenario.node[698].nic.mac1609_4 	ReceivedBroadcasts 	0
scalar IntersectionExampleScenario.node[698].nic.mac1609_4 	SentPackets 	0
scalar IntersectionExampleScenario.node[698].nic.mac1609_4 	SNIRLostPackets 	0
scalar IntersectionExampleScenario.node[698].nic.mac1609_4 	RXTXLostPackets 	0
scalar IntersectionExampleScenario.node[698].nic.mac1609_4 	TotalLostPackets 	0
scalar IntersectionExampleScenario.node[698].nic.mac1609_4 	DroppedPacketsInMac 	0
scalar IntersectionExampleScenario.node[698].nic.mac1609_4 	TooLittleTime 	0
scalar IntersectionExampleScenario.node[698].nic.mac1609_4 	TimesIntoBackoff 	0
scalar IntersectionExampleScenario.node[698].nic.mac1609_4 	SlotsBackoff 	0
scalar IntersectionExampleScenario.node[698].nic.mac1609_4 	NumInternalContention 	0
scalar IntersectionExampleScenario.node[698].nic.mac1609_4 	totalBusyTime 	0
scalar IntersectionExampleScenario.node[698].veinsmobility 	startTime 	1798.25
scalar IntersectionExampleScenario.node[698].veinsmobility 	totalTime 	1.75
scalar IntersectionExampleScenario.node[698].veinsmobility 	stopTime 	1800
scalar IntersectionExampleScenario.node[698].veinsmobility 	minSpeed 	5.6500000953674
scalar IntersectionExampleScenario.node[698].veinsmobility 	maxSpeed 	9.3999996185303
scalar IntersectionExampleScenario.node[698].veinsmobility 	totalDistance 	12.621864318848
scalar IntersectionExampleScenario.node[698].veinsmobility 	totalCO2Emission 	9.3856839288341
scalar IntersectionExampleScenario.node[699].appl 	VehicleRemoved 	0
scalar IntersectionExampleScenario.node[699].appl 	ArrivedAtDest 	0
scalar IntersectionExampleScenario.node[699].appl 	IntersectionEnterTime 	1798.75
scalar IntersectionExampleScenario.node[699].appl 	IntersectionExitTime 	-1
scalar IntersectionExampleScenario.node[699].appl 	NumberOfCollisions 	0
scalar IntersectionExampleScenario.node[699].nic.phy80211p 	busyTime 	0
scalar IntersectionExampleScenario.node[699].nic.mac1609_4 	ReceivedUnicastPackets 	0
scalar IntersectionExampleScenario.node[699].nic.mac1609_4 	ReceivedBroadcasts 	0
scalar IntersectionExampleScenario.node[699].nic.mac1609_4 	SentPackets 	0
scalar IntersectionExampleScenario.node[699].nic.mac1609_4 	SNIRLostPackets 	0
scalar IntersectionExampleScenario.node[699].nic.mac1609_4 	RXTXLostPackets 	0
scalar IntersectionExampleScenario.node[699].nic.mac1609_4 	TotalLostPackets 	0
scalar IntersectionExampleScenario.node[699].nic.mac1609_4 	DroppedPacketsInMac 	0
scalar IntersectionExampleScenario.node[699].nic.mac1609_4 	TooLittleTime 	0
scalar IntersectionExampleScenario.node[699].nic.mac1609_4 	TimesIntoBackoff 	0
scalar IntersectionExampleScenario.node[699].nic.mac1609_4 	SlotsBackoff 	0
scalar IntersectionExampleScenario.node[699].nic.mac1609_4 	NumInternalContention 	0
scalar IntersectionExampleScenario.node[699].nic.mac1609_4 	totalBusyTime 	0
scalar IntersectionExampleScenario.node[699].veinsmobility 	startTime 	1798.75
scalar IntersectionExampleScenario.node[699].veinsmobility 	totalTime 	1.25
scalar IntersectionExampleScenario.node[699].veinsmobility 	stopTime 	1800
scalar IntersectionExampleScenario.node[699].veinsmobility 	minSpeed 	5.6500000953674
scalar IntersectionExampleScenario.node[699].veinsmobility 	maxSpeed 	8.1499996185303
scalar IntersectionExampleScenario.node[699].veinsmobility 	totalDistance 	8.234375
scalar IntersectionExampleScenario.node[699].veinsmobility 	totalCO2Emission 	5.8390974258108
scalar IntersectionExampleScenario.node[700].appl 	VehicleRemoved 	0
scalar IntersectionExampleScenario.node[700].appl 	ArrivedAtDest 	0
scalar IntersectionExampleScenario.node[700].appl 	IntersectionEnterTime 	1799.5
scalar IntersectionExampleScenario.node[700].appl 	IntersectionExitTime 	-1
scalar IntersectionExampleScenario.node[700].appl 	NumberOfCollisions 	0
scalar IntersectionExampleScenario.node[700].nic.phy80211p 	busyTime 	0
scalar IntersectionExampleScenario.node[700].nic.mac1609_4 	ReceivedUnicastPackets 	0
scalar IntersectionExampleScenario.node[700].nic.mac1609_4 	ReceivedBroadcasts 	0
scalar IntersectionExampleScenario.node[700].nic.mac1609_4 	SentPackets 	0
scalar IntersectionExampleScenario.node[700].nic.mac1609_4 	SNIRLostPackets 	0
scalar IntersectionExampleScenario.node[700].nic.mac1609_4 	RXTXLostPackets 	0
scalar IntersectionExampleScenario.node[700].nic.mac1609_4 	TotalLostPackets 	0
scalar IntersectionExampleScenario.node[700].nic.mac1609_4 	DroppedPacketsInMac 	0
scalar IntersectionExampleScenario.node[700].nic.mac1609_4 	TooLittleTime 	0
scalar IntersectionExampleScenario.node[700].nic.mac1609_4 	TimesIntoBackoff 	0
scalar IntersectionExampleScenario.node[700].nic.mac1609_4 	SlotsBackoff 	0
scalar IntersectionExampleScenario.node[700].nic.mac1609_4 	NumInternalContention 	0
scalar IntersectionExampleScenario.node[700].nic.mac1609_4 	totalBusyTime 	0
scalar IntersectionExampleScenario.node[700].veinsmobility 	startTime 	1799.5
scalar IntersectionExampleScenario.node[700].veinsmobility 	totalTime 	0.5
scalar IntersectionExampleScenario.node[700].veinsmobility 	stopTime 	1800
scalar IntersectionExampleScenario.node[700].veinsmobility 	minSpeed 	5.6500000953674
scalar IntersectionExampleScenario.node[700].veinsmobility 	maxSpeed 	6.2750000953674
scalar IntersectionExampleScenario.node[700].veinsmobility 	totalDistance 	2.8250122070312
scalar IntersectionExampleScenario.node[700].veinsmobility 	totalCO2Emission 	1.3040546814646
