file 22254417 1591494815                                        
version 2
run nodebug-29-20200606-21:50:26-21964
attr configname nodebug
attr datetime 20200606-21:50:26
attr experiment nodebug
attr inifile omnetpp.ini
attr iterationvars ""
attr iterationvars2 $repetition=29
attr measurement ""
attr network "\"org.car2x.veins.modules.application.ExtTraCIScenarioManagerLaunchd.IntersectionExampleScenario\""
attr processid 21964
attr repetition 29
attr replication #29
attr resultdir results
attr runnumber 29
attr seedset 29
param **.coreDebug false
param **.debug false
param *.**.nic.mac1609_4.bitrate 18Mbps
param *.**.nic.mac1609_4.txPower 20mW
param *.**.nic.mac1609_4.useServiceChannel false
param *.**.nic.phy80211p.analogueModels "xmldoc(\"config.xml\")"
param *.**.nic.phy80211p.decider "xmldoc(\"config.xml\")"
param *.**.nic.phy80211p.sensitivity -89dBm
param *.**.nic.phy80211p.thermalNoise -110dBm
param *.**.nic.phy80211p.usePropagationDelay true
param *.**.nic.phy80211p.useThermalNoise true
param *.annotations.draw false
param *.connectionManager.alpha 2.0
param *.connectionManager.carrierFrequency "5.890e9 Hz"
param *.connectionManager.pMax 20mW
param *.connectionManager.sat -89dBm
param *.connectionManager.sendDirect true
param *.manager.autoShutdown true
param *.manager.host "\"localhost\""
param *.manager.launchConfig "xmldoc(\"paramics.launchd.xml\")"
param *.manager.margin 25
param *.manager.moduleDisplayString "\"\""
param *.manager.moduleName "\"node\""
param *.manager.moduleType "\"org.car2x.veins.nodes.Car\""
param *.manager.port 9999
param *.manager.updateInterval 250ms
param *.node[*0].veinsmobility.accidentCount 0
param *.node[*0].veinsmobility.accidentDuration 30s
param *.node[*0].veinsmobility.accidentStart 75s
param *.node[*].appl.LiderSelectZoneRadio 55.0
param *.node[*].appl.ShareDataZoneRadio 110.0
param *.node[*].appl.TiempoSemaforo 30.0
param *.node[*].appl.beaconInterval 1s
param *.node[*].appl.beaconPriority 3
param *.node[*].appl.dataOnSch false
param *.node[*].appl.dataPriority 2
param *.node[*].appl.debug false
param *.node[*].appl.headerLength "256 bit"
param *.node[*].appl.maxOffset 0.005s
param *.node[*].appl.sendBeacons false
param *.node[*].appl.sendData true
param *.node[*].applType "\"Dummy\""
param *.node[*].mobilityType "\"TraCIMobility\""
param *.node[*].mobilityType.debug true
param *.node[*].veinsmobility.x 0
param *.node[*].veinsmobility.y 0
param *.node[*].veinsmobility.z 1.895
param *.node[*].veinsmobilityType "\"org.car2x.veins.modules.mobility.traci.TraCIMobility\""
param *.node[*].veinsmobilityType.debug true
param *.playgroundSizeX 8500m
param *.playgroundSizeY 8500m
param *.playgroundSizeZ 50m
param *.world.use2D false
param *.world.useTorus false

vector 24026  IntersectionExampleScenario.manager  vehiclesinsim  ETV
attr type  int
vector 24027  IntersectionExampleScenario.manager  realtime  ETV
attr type  int
attr unit  s
vector 24030  IntersectionExampleScenario.node[0].veinsmobility  posx  ETV
vector 24031  IntersectionExampleScenario.node[0].veinsmobility  posy  ETV
vector 24032  IntersectionExampleScenario.node[0].veinsmobility  speed  ETV
vector 24033  IntersectionExampleScenario.node[0].veinsmobility  acceleration  ETV
vector 24034  IntersectionExampleScenario.node[0].veinsmobility  co2emission  ETV
vector 24037  IntersectionExampleScenario.node[1].veinsmobility  posx  ETV
vector 24038  IntersectionExampleScenario.node[1].veinsmobility  posy  ETV
vector 24039  IntersectionExampleScenario.node[1].veinsmobility  speed  ETV
vector 24044  IntersectionExampleScenario.node[2].veinsmobility  posx  ETV
vector 24045  IntersectionExampleScenario.node[2].veinsmobility  posy  ETV
vector 24040  IntersectionExampleScenario.node[1].veinsmobility  acceleration  ETV
vector 24041  IntersectionExampleScenario.node[1].veinsmobility  co2emission  ETV
vector 24046  IntersectionExampleScenario.node[2].veinsmobility  speed  ETV
vector 24047  IntersectionExampleScenario.node[2].veinsmobility  acceleration  ETV
vector 24048  IntersectionExampleScenario.node[2].veinsmobility  co2emission  ETV
vector 24051  IntersectionExampleScenario.node[3].veinsmobility  posx  ETV
vector 24052  IntersectionExampleScenario.node[3].veinsmobility  posy  ETV
vector 24053  IntersectionExampleScenario.node[3].veinsmobility  speed  ETV
vector 24054  IntersectionExampleScenario.node[3].veinsmobility  acceleration  ETV
vector 24055  IntersectionExampleScenario.node[3].veinsmobility  co2emission  ETV
vector 24058  IntersectionExampleScenario.node[4].veinsmobility  posx  ETV
vector 24059  IntersectionExampleScenario.node[4].veinsmobility  posy  ETV
vector 24060  IntersectionExampleScenario.node[4].veinsmobility  speed  ETV
vector 24061  IntersectionExampleScenario.node[4].veinsmobility  acceleration  ETV
vector 24062  IntersectionExampleScenario.node[4].veinsmobility  co2emission  ETV
vector 24065  IntersectionExampleScenario.node[5].veinsmobility  posx  ETV
vector 24066  IntersectionExampleScenario.node[5].veinsmobility  posy  ETV
vector 24067  IntersectionExampleScenario.node[5].veinsmobility  speed  ETV
vector 24072  IntersectionExampleScenario.node[6].veinsmobility  posx  ETV
vector 24073  IntersectionExampleScenario.node[6].veinsmobility  posy  ETV
vector 24068  IntersectionExampleScenario.node[5].veinsmobility  acceleration  ETV
vector 24069  IntersectionExampleScenario.node[5].veinsmobility  co2emission  ETV
vector 24074  IntersectionExampleScenario.node[6].veinsmobility  speed  ETV
vector 24075  IntersectionExampleScenario.node[6].veinsmobility  acceleration  ETV
vector 24076  IntersectionExampleScenario.node[6].veinsmobility  co2emission  ETV
vector 24079  IntersectionExampleScenario.node[7].veinsmobility  posx  ETV
vector 24080  IntersectionExampleScenario.node[7].veinsmobility  posy  ETV
vector 24081  IntersectionExampleScenario.node[7].veinsmobility  speed  ETV
vector 24082  IntersectionExampleScenario.node[7].veinsmobility  acceleration  ETV
vector 24083  IntersectionExampleScenario.node[7].veinsmobility  co2emission  ETV
vector 24086  IntersectionExampleScenario.node[8].veinsmobility  posx  ETV
vector 24087  IntersectionExampleScenario.node[8].veinsmobility  posy  ETV
vector 24088  IntersectionExampleScenario.node[8].veinsmobility  speed  ETV
vector 24089  IntersectionExampleScenario.node[8].veinsmobility  acceleration  ETV
vector 24090  IntersectionExampleScenario.node[8].veinsmobility  co2emission  ETV
vector 24093  IntersectionExampleScenario.node[9].veinsmobility  posx  ETV
vector 24094  IntersectionExampleScenario.node[9].veinsmobility  posy  ETV
vector 24095  IntersectionExampleScenario.node[9].veinsmobility  speed  ETV
vector 24096  IntersectionExampleScenario.node[9].veinsmobility  acceleration  ETV
vector 24097  IntersectionExampleScenario.node[9].veinsmobility  co2emission  ETV
vector 24100  IntersectionExampleScenario.node[10].veinsmobility  posx  ETV
vector 24101  IntersectionExampleScenario.node[10].veinsmobility  posy  ETV
vector 24102  IntersectionExampleScenario.node[10].veinsmobility  speed  ETV
vector 24103  IntersectionExampleScenario.node[10].veinsmobility  acceleration  ETV
vector 24104  IntersectionExampleScenario.node[10].veinsmobility  co2emission  ETV
vector 24107  IntersectionExampleScenario.node[11].veinsmobility  posx  ETV
vector 24108  IntersectionExampleScenario.node[11].veinsmobility  posy  ETV
vector 24109  IntersectionExampleScenario.node[11].veinsmobility  speed  ETV
vector 24110  IntersectionExampleScenario.node[11].veinsmobility  acceleration  ETV
vector 24111  IntersectionExampleScenario.node[11].veinsmobility  co2emission  ETV
24041	7698 4997 42 2365 3.75 43.5 160 0.973 11.648172402475 506.62173068736 2743.0137753722
24040	12695 4465 42 2365 3.75 43.5 160 -3.47731590271 2.5 38.341367721558 280.06653551157
24039	17160 4873 37 2365 3.5 43.5 161 5.6500000953674 15.64999961853 2188.2595562935 31102.263563451
24038	22033 5212 32 2365 3.25 43.5 162 486.85000610352 734.19282531738 87133.305480957 47801203.514396
24037	27245 5218 32 2365 3.25 43.5 162 486.81842041016 785.82187652588 92685.972343445 54775674.841421
vector 24114  IntersectionExampleScenario.node[12].veinsmobility  posx  ETV
vector 24115  IntersectionExampleScenario.node[12].veinsmobility  posy  ETV
24062	32617 5014 255 2669 10 49.5 159 0.97223939240464 11.648172402475 507.83139045613 2802.5785409332
24061	37631 4600 255 2669 10 49.5 159 -3.4534454345703 2.5 38.680875778198 280.21850177506
24060	42231 4916 244 2669 9.75 49.5 160 5.6500000953674 15.64999961853 2187.4568681717 31266.731216281
24059	47147 5245 233 2669 9.5 49.5 161 486.85000610352 734.01191711426 86582.134796143 47491093.134314
24058	52392 5247 233 2669 9.5 49.5 161 486.85000610352 785.82187652588 92157.441902161 54491059.136378
vector 24116  IntersectionExampleScenario.node[12].veinsmobility  speed  ETV
vector 24117  IntersectionExampleScenario.node[12].veinsmobility  acceleration  ETV
vector 24118  IntersectionExampleScenario.node[12].veinsmobility  co2emission  ETV
vector 24121  IntersectionExampleScenario.node[13].veinsmobility  posx  ETV
vector 24122  IntersectionExampleScenario.node[13].veinsmobility  posy  ETV
vector 24123  IntersectionExampleScenario.node[13].veinsmobility  speed  ETV
vector 24124  IntersectionExampleScenario.node[13].veinsmobility  acceleration  ETV
vector 24125  IntersectionExampleScenario.node[13].veinsmobility  co2emission  ETV
vector 24128  IntersectionExampleScenario.node[14].veinsmobility  posx  ETV
vector 24129  IntersectionExampleScenario.node[14].veinsmobility  posy  ETV
vector 24130  IntersectionExampleScenario.node[14].veinsmobility  speed  ETV
vector 24131  IntersectionExampleScenario.node[14].veinsmobility  acceleration  ETV
vector 24132  IntersectionExampleScenario.node[14].veinsmobility  co2emission  ETV
vector 24135  IntersectionExampleScenario.node[15].veinsmobility  posx  ETV
vector 24136  IntersectionExampleScenario.node[15].veinsmobility  posy  ETV
vector 24137  IntersectionExampleScenario.node[15].veinsmobility  speed  ETV
vector 24138  IntersectionExampleScenario.node[15].veinsmobility  acceleration  ETV
vector 24139  IntersectionExampleScenario.node[15].veinsmobility  co2emission  ETV
vector 24142  IntersectionExampleScenario.node[16].veinsmobility  posx  ETV
vector 24143  IntersectionExampleScenario.node[16].veinsmobility  posy  ETV
vector 24144  IntersectionExampleScenario.node[16].veinsmobility  speed  ETV
vector 24145  IntersectionExampleScenario.node[16].veinsmobility  acceleration  ETV
vector 24146  IntersectionExampleScenario.node[16].veinsmobility  co2emission  ETV
24048	59490 6353 56 3206 4.25 59 220 0.973 11.90022389248 597.86098070338 3104.1744952535
24047	65843 5979 56 3206 4.25 59 220 -8.6357612609863 4 39.020376205444 507.82205708136
24046	71822 6128 49 3206 4 59 221 0 16 2207.987319231 31650.641637973
24045	77950 7176 42 3206 3.75 59 222 184.17810058594 732.41050720215 100992.8349762 50059767.446958
24044	85126 7207 42 3206 3.75 59 222 486.85000610352 486.85000610352 108080.70135498 52619090.114344
24034	92333 6699 11 3237 1.5 59.5 233 0.973 11.450879080643 595.87642240935 2859.0874930658
24033	99032 5991 11 3237 1.5 59.5 233 -7.3439340591431 4 37.32285118103 471.71975753043
24032	105023 6418 8 3237 1.25 59.5 234 0 15.375 2212.9979789257 30954.471572816
24031	111441 7586 5 3237 1 59.5 235 236.18798828125 785.82187652588 120710.83519745 66235874.623076
24030	119027 7601 5 3237 1 59.5 235 483.14999389648 483.14999389648 113540.24856567 54856970.40151
24055	126628 6732 116 3298 6.25 60.5 218 0.97223939240464 11.648172402475 597.23305515391 2970.3760769939
24054	133360 6441 116 3298 6.25 60.5 218 -4.5 2.5 38.680875778198 443.01711250592
24053	139801 6747 107 3298 6 60.5 219 0 15.64999961853 2276.924911825 31847.596487797
24052	146548 7111 98 3298 5.75 60.5 220 166.078125 487.05746459961 90078.065704346 39154296.101255
24051	153659 7163 98 3298 5.75 60.5 220 237.57019042969 486.85000610352 98791.418945312 45429037.382754
vector 24149  IntersectionExampleScenario.node[17].veinsmobility  posx  ETV
vector 24150  IntersectionExampleScenario.node[17].veinsmobility  posy  ETV
vector 24151  IntersectionExampleScenario.node[17].veinsmobility  speed  ETV
vector 24152  IntersectionExampleScenario.node[17].veinsmobility  acceleration  ETV
vector 24153  IntersectionExampleScenario.node[17].veinsmobility  co2emission  ETV
24069	161223 5360 633 3381 18.5 61.75 174 0.973 11.648172402475 528.72663996393 2836.9591552584
24068	166583 5308 633 3381 18.5 61.75 174 -2.1921081542969 2.5 38.511121749878 272.84840900296
24067	171891 5566 620 3381 18.25 61.75 175 4.3671827316284 15.64999961853 2217.1501708031 30192.125937784
24066	177457 5746 607 3381 18 61.75 176 184.17810058594 732.99674987793 78559.25 39204277.008549
24065	183203 5781 607 3381 18 61.75 176 486.85000610352 486.85000610352 85685.601074219 41716035.405967
24076	188984 5436 663 3446 19 62.75 176 0.973 11.200708441096 539.16546293988 2831.18379062
24075	194420 5343 663 3446 19 62.75 176 -2.897668838501 2.5000019073486 36.98334312439 315.62060026588
24074	199763 5522 648 3446 18.75 62.75 177 5.5580816268921 15.072730064392 2186.8510375023 28926.742418613
24073	205285 5842 633 3446 18.5 62.75 178 486.75814819336 785.82187652588 101395.07941437 59542436.677761
24072	211127 5809 633 3446 18.5 62.75 178 236.39324951172 483.14999389648 77601.246612549 34812150.217567
24083	216936 5075 1027 3596 25 65.25 162 0.973 11.356308230354 492.63461914395 2788.3649369777
24082	222011 4910 1027 3596 25 65.25 162 -2.8749542236328 2.5 36.304327011108 232.48994852559
24081	226921 5161 1010 3596 24.75 65.25 163 5.6500000953674 15.242860794067 2216.4370908737 30726.57392933
24080	232082 5378 993 3596 24.5 65.25 164 184.17810058594 733.24168395996 73406.048843384 37120469.545425
24079	237460 5411 993 3596 24.5 65.25 164 486.85000610352 486.85000610352 79843.401000977 38871760.264651
vector 24156  IntersectionExampleScenario.node[18].veinsmobility  posx  ETV
vector 24157  IntersectionExampleScenario.node[18].veinsmobility  posy  ETV
24097	243025 4991 1466 3896 31.5 70.25 156 0.973 11.810082123732 516.79110054762 2816.8893443829
24096	248016 4571 1466 3896 31.5 70.25 156 -4.2861747741699 2.5 40.208654403687 292.68586824814
24095	252587 4857 1447 3896 31.25 70.25 157 5.6500000953674 15.875 2177.7815437317 31696.373848887
24094	257444 5178 1428 3896 31 70.25 158 184.17810058594 483.17889404297 62705.452911377 26607062.125644
24093	262622 5204 1428 3896 31 70.25 158 486.85000610352 731.71415710449 84791.486358643 46390786.507784
vector 24158  IntersectionExampleScenario.node[18].veinsmobility  speed  ETV
vector 24159  IntersectionExampleScenario.node[18].veinsmobility  acceleration  ETV
vector 24160  IntersectionExampleScenario.node[18].veinsmobility  co2emission  ETV
vector 24163  IntersectionExampleScenario.node[19].veinsmobility  posx  ETV
vector 24164  IntersectionExampleScenario.node[19].veinsmobility  posy  ETV
vector 24165  IntersectionExampleScenario.node[19].veinsmobility  speed  ETV
vector 24166  IntersectionExampleScenario.node[19].veinsmobility  acceleration  ETV
vector 24167  IntersectionExampleScenario.node[19].veinsmobility  co2emission  ETV
24104	268474 4857 1855 4194 37 74.5 151 0.973 11.990504229548 479.97191342524 2613.7218177773
24103	273331 4343 1855 4194 37 74.5 151 -3.2447547912598 2.5 39.869146347046 201.41922718971
24102	277674 4763 1836 4194 36.75 74.5 152 5.6500000953674 16.125 2212.2037334442 32921.068151754
24101	282437 5012 1817 4194 36.5 74.5 153 238.06097412109 785.82187652588 79972.657585144 45844433.356388
24100	287449 5049 1817 4194 36.5 74.5 153 483.14999389648 483.14999389648 73921.949066162 35715389.240132
vector 24170  IntersectionExampleScenario.node[20].veinsmobility  posx  ETV
vector 24171  IntersectionExampleScenario.node[20].veinsmobility  posy  ETV
vector 24172  IntersectionExampleScenario.node[20].veinsmobility  speed  ETV
vector 24173  IntersectionExampleScenario.node[20].veinsmobility  acceleration  ETV
vector 24174  IntersectionExampleScenario.node[20].veinsmobility  co2emission  ETV
24090	292899 5956 1241 4416 28.25 77.5 198 0.973 12.099024792222 592.44564310478 3253.6913310884
24089	298855 5488 1241 4416 28.25 77.5 198 -6.9978852272034 4 41.227170944214 492.65880119239
24088	304343 5780 1224 4416 28 77.5 199 0 16.27499961853 2205.6507912874 32465.664712985
24087	310123 6600 1207 4416 27.75 77.5 200 483.14999389648 483.14999389648 96629.998779297 46686783.320434
24086	316723 6569 1207 4416 27.75 77.5 200 184.17810058594 731.40208435059 90527.637420654 44967832.921042
vector 24177  IntersectionExampleScenario.node[21].veinsmobility  posx  ETV
vector 24178  IntersectionExampleScenario.node[21].veinsmobility  posy  ETV
vector 24179  IntersectionExampleScenario.node[21].veinsmobility  speed  ETV
vector 24180  IntersectionExampleScenario.node[21].veinsmobility  acceleration  ETV
vector 24181  IntersectionExampleScenario.node[21].veinsmobility  co2emission  ETV
24125	323693 5028 2728 5143 50.75 89.5 156 0.973 11.54047740176 464.63231158543 2336.4085283449
24124	328721 4461 2728 5143 50.75 89.5 156 -2.906135559082 2.5 37.32285118103 179.22973075835
24123	333182 4945 2715 5143 50.5 89.5 157 5.6500000953674 15.5 2216.590294838 31875.992361842
24122	338127 5215 2702 5143 50.25 89.5 158 483.14999389648 483.14999389648 76337.699035645 36882558.823143
24121	343342 5142 2702 5143 50.25 89.5 158 184.17810058594 733.22798156738 70908.541702271 36014724.094117
vector 24184  IntersectionExampleScenario.node[22].veinsmobility  posx  ETV
vector 24185  IntersectionExampleScenario.node[22].veinsmobility  posy  ETV
vector 24186  IntersectionExampleScenario.node[22].veinsmobility  speed  ETV
vector 24187  IntersectionExampleScenario.node[22].veinsmobility  acceleration  ETV
vector 24188  IntersectionExampleScenario.node[22].veinsmobility  co2emission  ETV
24146	348885 5133 3070 5417 57 96.75 160 0.973 11.450879080643 482.04855883014 2493.3576507118
24145	354018 4668 3070 5417 57 96.75 160 -3.7600936889648 2.5 36.813589096069 225.15493778399
24144	358686 5025 3053 5417 56.75 96.75 161 5.6500000953674 15.375 2209.2100419998 31127.028744497
24143	363711 5335 3036 5417 56.5 96.75 162 235.64947509766 486.85000610352 70184.510131836 31396396.377148
24142	369046 5337 3036 5417 56.5 96.75 162 482.9638671875 785.82187652588 92633.137214661 54766786.528403
vector 24191  IntersectionExampleScenario.node[23].veinsmobility  posx  ETV
vector 24192  IntersectionExampleScenario.node[23].veinsmobility  posy  ETV
vector 24193  IntersectionExampleScenario.node[23].veinsmobility  speed  ETV
vector 24194  IntersectionExampleScenario.node[23].veinsmobility  acceleration  ETV
vector 24195  IntersectionExampleScenario.node[23].veinsmobility  co2emission  ETV
24111	374784 6656 2220 5469 41.75 98.25 227 0.97223939240464 11.810082123732 599.11938794988 3070.6123900478
24110	381440 6356 2220 5469 41.75 98.25 227 -6.8043613433838 4 38.680875778198 476.17829839409
24109	387796 6346 2199 5469 41.5 98.25 228 0 15.875 2184.6253731251 30897.847954178
24108	394142 7531 2178 5469 41.25 98.25 229 184.17810058594 483.36395263672 96054.55480957 42288516.321461
24107	401673 7487 2178 5469 41.25 98.25 229 486.85000610352 734.74661254883 119728.70191956 63659652.831679
24153	409160 4907 3347 5514 61.25 99.5 154 0.973 12.099024792222 522.73431395474 2997.3504578696
24152	414067 4800 3347 5514 61.25 99.5 154 -3.4002304077148 2.5 41.057416915894 267.92241163811
24151	418867 5077 3330 5514 61 99.5 155 5.6500000953674 16.27499961853 2212.887922287 32804.702170163
24150	423944 5136 3313 5514 60.75 99.5 156 483.14999389648 785.82187652588 89141.613853455 52685399.610132
24149	429080 5145 3313 5514 60.75 99.5 156 483.14999389648 734.14767456055 83520.99760437 45649500.084592
vector 24198  IntersectionExampleScenario.node[24].veinsmobility  posx  ETV
vector 24199  IntersectionExampleScenario.node[24].veinsmobility  posy  ETV
vector 24200  IntersectionExampleScenario.node[24].veinsmobility  speed  ETV
24118	434457 6240 2691 5624 50 102.5 211 0.973 12.099024792222 594.78575508773 3218.2016743997
24117	440697 6523 2691 5624 50 102.5 211 -22.636669158936 4 40.038900375366 922.68065656721
24116	447220 6739 2680 5624 49.75 102.5 212 0 16.27499961853 2184.3189303763 29406.018216631
24115	453959 7010 2669 5624 49.5 102.5 213 184.17810058594 483.30502319336 87743.79876709 38010934.183792
24114	460969 7029 2669 5624 49.5 102.5 213 486.85000610352 735.00459289551 111795.73291016 59703702.404226
vector 24201  IntersectionExampleScenario.node[24].veinsmobility  acceleration  ETV
vector 24202  IntersectionExampleScenario.node[24].veinsmobility  co2emission  ETV
vector 24205  IntersectionExampleScenario.node[25].veinsmobility  posx  ETV
vector 24206  IntersectionExampleScenario.node[25].veinsmobility  posy  ETV
vector 24207  IntersectionExampleScenario.node[25].veinsmobility  speed  ETV
vector 24208  IntersectionExampleScenario.node[25].veinsmobility  acceleration  ETV
vector 24209  IntersectionExampleScenario.node[25].veinsmobility  co2emission  ETV
24132	468568 6032 2935 5685 54.75 103.75 197 0.97223939240464 11.648172402475 569.15547150256 2971.8163307899
24131	474600 6033 2935 5685 54.75 103.75 197 -4.5 2.5000019073486 38.680875778198 419.47828289649
24130	480633 6394 2922 5685 54.5 103.75 198 1.8658595085144 15.64999961853 2222.4827086926 29340.757507672
24129	487027 6545 2909 5685 54.25 103.75 199 184.17810058594 735.2660369873 89032.939422607 44024924.071141
24128	493572 6585 2909 5685 54.25 103.75 199 486.85000610352 486.85000610352 96883.1512146 47167562.760155
24139	500157 6276 2991 5827 55.75 106.5 204 0.973 11.36141391502 578.65095914289 2916.7474655224
24138	506433 6273 2991 5827 55.75 106.5 204 -4.5 2.5 37.32285118103 430.57544775539
24137	512706 6469 2976 5827 55.5 106.5 205 2.4129207134247 15.25 2275.1113741398 29261.41532833
24136	519175 6796 2961 5827 55.25 106.5 206 162.00311279297 483.14999389648 81474.08001709 34390666.221584
24135	525971 6825 2961 5827 55.25 106.5 206 486.85000610352 734.04647827148 108667.91487122 58359980.405472
vector 24212  IntersectionExampleScenario.node[26].veinsmobility  posx  ETV
vector 24213  IntersectionExampleScenario.node[26].veinsmobility  posy  ETV
vector 24214  IntersectionExampleScenario.node[26].veinsmobility  speed  ETV
vector 24219  IntersectionExampleScenario.node[27].veinsmobility  posx  ETV
vector 24220  IntersectionExampleScenario.node[27].veinsmobility  posy  ETV
vector 24215  IntersectionExampleScenario.node[26].veinsmobility  acceleration  ETV
vector 24216  IntersectionExampleScenario.node[26].veinsmobility  co2emission  ETV
vector 24221  IntersectionExampleScenario.node[27].veinsmobility  speed  ETV
vector 24226  IntersectionExampleScenario.node[28].veinsmobility  posx  ETV
vector 24227  IntersectionExampleScenario.node[28].veinsmobility  posy  ETV
vector 24222  IntersectionExampleScenario.node[27].veinsmobility  acceleration  ETV
vector 24223  IntersectionExampleScenario.node[27].veinsmobility  co2emission  ETV
vector 24228  IntersectionExampleScenario.node[28].veinsmobility  speed  ETV
vector 24233  IntersectionExampleScenario.node[29].veinsmobility  posx  ETV
vector 24234  IntersectionExampleScenario.node[29].veinsmobility  posy  ETV
vector 24229  IntersectionExampleScenario.node[28].veinsmobility  acceleration  ETV
vector 24230  IntersectionExampleScenario.node[28].veinsmobility  co2emission  ETV
vector 24235  IntersectionExampleScenario.node[29].veinsmobility  speed  ETV
vector 24236  IntersectionExampleScenario.node[29].veinsmobility  acceleration  ETV
vector 24237  IntersectionExampleScenario.node[29].veinsmobility  co2emission  ETV
24160	534400 5020 3930 6018 70.75 109.75 157 0.973 11.648172402475 503.33852258617 2859.7248019446
24159	539420 4810 3930 6018 70.75 109.75 157 -3.447826385498 2.5 38.341367721558 254.10664829016
24158	544230 4960 3913 6018 70.5 109.75 158 5.6500000953674 15.697811126709 2204.8495521545 31693.001270285
24157	549190 5282 3896 6018 70.25 109.75 159 483.14999389648 785.82187652588 90944.9164505 53792837.239907
24156	554472 5272 3896 6018 70.25 109.75 159 483.14999389648 732.43762207031 85183.75819397 46585617.055043
24167	559744 4908 4070 6151 72.75 111.5 156 0.96333723109819 12.12263015555 536.69573709526 3274.9058275199
24166	564652 4713 4070 6151 72.75 111.5 156 -3.6023902893066 2.5 40.208654403687 324.15335619427
24165	569365 4906 4051 6151 72.5 111.5 157 5.6500000953674 16.307590484619 2177.2371301651 31689.633160035
24164	574271 5234 4032 6151 72.25 111.5 158 184.17810058594 483.17276000977 62758.641784668 26643666.155892
24163	579505 5239 4032 6151 72.25 111.5 158 486.85000610352 731.62982177734 84796.4190979 46394799.153236
vector 24240  IntersectionExampleScenario.node[30].veinsmobility  posx  ETV
vector 24241  IntersectionExampleScenario.node[30].veinsmobility  posy  ETV
vector 24242  IntersectionExampleScenario.node[30].veinsmobility  speed  ETV
vector 24243  IntersectionExampleScenario.node[30].veinsmobility  acceleration  ETV
vector 24244  IntersectionExampleScenario.node[30].veinsmobility  co2emission  ETV
vector 24247  IntersectionExampleScenario.node[31].veinsmobility  posx  ETV
vector 24248  IntersectionExampleScenario.node[31].veinsmobility  posy  ETV
vector 24249  IntersectionExampleScenario.node[31].veinsmobility  speed  ETV
vector 24250  IntersectionExampleScenario.node[31].veinsmobility  acceleration  ETV
vector 24251  IntersectionExampleScenario.node[31].veinsmobility  co2emission  ETV
vector 24254  IntersectionExampleScenario.node[32].veinsmobility  posx  ETV
vector 24255  IntersectionExampleScenario.node[32].veinsmobility  posy  ETV
vector 24256  IntersectionExampleScenario.node[32].veinsmobility  speed  ETV
vector 24257  IntersectionExampleScenario.node[32].veinsmobility  acceleration  ETV
vector 24258  IntersectionExampleScenario.node[32].veinsmobility  co2emission  ETV
vector 24261  IntersectionExampleScenario.node[33].veinsmobility  posx  ETV
vector 24262  IntersectionExampleScenario.node[33].veinsmobility  posy  ETV
vector 24263  IntersectionExampleScenario.node[33].veinsmobility  speed  ETV
vector 24264  IntersectionExampleScenario.node[33].veinsmobility  acceleration  ETV
vector 24265  IntersectionExampleScenario.node[33].veinsmobility  co2emission  ETV
vector 24268  IntersectionExampleScenario.node[34].veinsmobility  posx  ETV
vector 24269  IntersectionExampleScenario.node[34].veinsmobility  posy  ETV
vector 24270  IntersectionExampleScenario.node[34].veinsmobility  speed  ETV
vector 24275  IntersectionExampleScenario.node[35].veinsmobility  posx  ETV
vector 24276  IntersectionExampleScenario.node[35].veinsmobility  posy  ETV
vector 24271  IntersectionExampleScenario.node[34].veinsmobility  acceleration  ETV
vector 24272  IntersectionExampleScenario.node[34].veinsmobility  co2emission  ETV
vector 24277  IntersectionExampleScenario.node[35].veinsmobility  speed  ETV
vector 24278  IntersectionExampleScenario.node[35].veinsmobility  acceleration  ETV
vector 24279  IntersectionExampleScenario.node[35].veinsmobility  co2emission  ETV
24181	587150 4753 4913 7154 85 121.25 146 0.96997852711604 12.553400930962 500.07528890332 3042.5637318576
24180	591903 4476 4913 7154 85 121.25 146 -3.3901748657227 2.5 42.585195541382 233.38480792026
24179	596379 4679 4898 7154 84.75 121.25 147 5.6500000953674 16.89999961853 2210.9946155548 34146.538812555
24178	601058 4970 4883 7154 84.5 121.25 148 486.85000610352 486.85000610352 72053.80090332 35079393.409563
24177	606028 4949 4883 7154 84.5 121.25 148 238.52563476562 785.82187652588 77508.962394714 44501060.880312
vector 24282  IntersectionExampleScenario.node[36].veinsmobility  posx  ETV
vector 24283  IntersectionExampleScenario.node[36].veinsmobility  posy  ETV
vector 24284  IntersectionExampleScenario.node[36].veinsmobility  speed  ETV
vector 24285  IntersectionExampleScenario.node[36].veinsmobility  acceleration  ETV
vector 24286  IntersectionExampleScenario.node[36].veinsmobility  co2emission  ETV
vector 24289  IntersectionExampleScenario.node[37].veinsmobility  posx  ETV
vector 24290  IntersectionExampleScenario.node[37].veinsmobility  posy  ETV
vector 24296  IntersectionExampleScenario.node[38].veinsmobility  posx  ETV
vector 24297  IntersectionExampleScenario.node[38].veinsmobility  posy  ETV
vector 24291  IntersectionExampleScenario.node[37].veinsmobility  speed  ETV
vector 24298  IntersectionExampleScenario.node[38].veinsmobility  speed  ETV
vector 24292  IntersectionExampleScenario.node[37].veinsmobility  acceleration  ETV
vector 24293  IntersectionExampleScenario.node[37].veinsmobility  co2emission  ETV
vector 24299  IntersectionExampleScenario.node[38].veinsmobility  acceleration  ETV
vector 24300  IntersectionExampleScenario.node[38].veinsmobility  co2emission  ETV
vector 24303  IntersectionExampleScenario.node[39].veinsmobility  posx  ETV
vector 24304  IntersectionExampleScenario.node[39].veinsmobility  posy  ETV
vector 24305  IntersectionExampleScenario.node[39].veinsmobility  speed  ETV
vector 24306  IntersectionExampleScenario.node[39].veinsmobility  acceleration  ETV
vector 24307  IntersectionExampleScenario.node[39].veinsmobility  co2emission  ETV
vector 24310  IntersectionExampleScenario.node[40].veinsmobility  posx  ETV
vector 24311  IntersectionExampleScenario.node[40].veinsmobility  posy  ETV
vector 24312  IntersectionExampleScenario.node[40].veinsmobility  speed  ETV
vector 24313  IntersectionExampleScenario.node[40].veinsmobility  acceleration  ETV
vector 24314  IntersectionExampleScenario.node[40].veinsmobility  co2emission  ETV
24195	612982 5064 5442 8645 97.5 135.25 152 0.973 11.648172402475 476.72556722631 2492.501653983
24194	618046 4473 5442 8645 97.5 135.25 152 -3.3434906005859 2.5 39.359884262085 196.83124836095
24193	622519 4961 5433 8645 97.25 135.25 153 5.6500000953674 15.64999961853 2214.5847415924 32741.77757842
24192	627480 5223 5424 8645 97 135.25 154 486.85000610352 486.85000610352 74974.900939941 36501530.980221
24191	632703 5207 5424 8645 97 135.25 154 237.44360351562 785.82187652588 80412.387107849 46066752.950755
24174	637910 7561 4283 8934 75.75 138.25 251 0.973 11.00486315618 599.84772936117 2640.9130438632
24173	645471 6838 4283 8934 75.75 138.25 251 -46.19974899292 4 34.097539901733 2417.3221780626
24172	652309 7096 4264 8934 75.5 138.25 252 0 14.75 2257.6808633804 30729.200134588
24171	659405 8476 4245 8934 75.25 138.25 253 171.40313720703 732.90614318848 114621.21353149 56632649.60217
24170	667881 8504 4245 8934 75.25 138.25 253 486.85000610352 486.85000610352 123173.05154419 59966800.896077
24188	676385 5925 5211 8998 91.25 139 192 0.973 11.810082123732 552.61624014517 2992.8721048989
24187	682310 6096 5211 8998 91.25 139 192 -2.1222877502441 2.5000009536743 38.850629806519 316.82700157536
24186	688406 6202 5200 8998 91 139 193 1.7430872917175 15.875 2194.0614196062 29237.980986216
24185	694608 6531 5189 8998 90.75 139 194 184.17810058594 483.14999389648 78730.2472229 33763542.899887
24184	701139 6555 5189 8998 90.75 139 194 486.85000610352 735.22471618652 102697.62435913 55376511.290815
vector 24317  IntersectionExampleScenario.node[41].veinsmobility  posx  ETV
vector 24318  IntersectionExampleScenario.node[41].veinsmobility  posy  ETV
vector 24319  IntersectionExampleScenario.node[41].veinsmobility  speed  ETV
24202	707926 5096 5635 9180 102.75 141.5 156 0.973 11.758343416442 528.55424014317 3037.5399939533
24201	713022 5042 5635 9180 102.75 141.5 156 -3.6125297546387 2.5 39.699392318726 261.1121882551
24200	718064 5114 5624 9180 102.5 141.5 157 5.6500000953674 15.80316734314 2224.0702314377 32235.964189412
24199	723178 5335 5613 9180 102.25 141.5 158 184.17810058594 734.8511505127 70771.631271362 35830902.691885
24198	728513 5373 5613 9180 102.25 141.5 158 486.85000610352 486.85000610352 76922.300964355 37449622.693993
vector 24320  IntersectionExampleScenario.node[41].veinsmobility  acceleration  ETV
vector 24321  IntersectionExampleScenario.node[41].veinsmobility  co2emission  ETV
24209	734055 5175 5672 9256 103.5 142.5 157 0.973 11.810082123732 515.43055861261 2886.8724378541
24208	739230 4676 5672 9256 103.5 142.5 157 -3.4797992706299 2.5 39.869146347046 288.3537892539
24207	743906 5061 5659 9256 103.25 142.5 158 5.6500000953674 15.875 2188.3650727272 31769.767524
24206	748967 5395 5646 9256 103 142.5 159 486.85000610352 785.82187652588 91043.511863708 53856883.081526
24205	754362 5368 5646 9256 103 142.5 159 235.78228759766 483.14999389648 68758.902191162 30650667.211468
24237	759730 4727 5999 9416 109.5 144.75 142 0.973 11.648172402475 466.60468844538 2512.8115415378
24236	764457 4617 5999 9416 109.5 144.75 142 -3.5287475585938 2.5 40.887662887573 201.24759096638
24235	769074 4632 5980 9416 109.25 144.75 143 5.6500000953674 15.940965652466 2098.3394985199 31551.266337225
24234	773706 4855 5961 9416 109 144.75 144 213.88439941406 733.40734863281 66560.915405273 34192203.056274
24233	778561 4896 5961 9416 109 144.75 144 486.85000610352 486.85000610352 70106.400878906 34131301.695791
vector 24324  IntersectionExampleScenario.node[42].veinsmobility  posx  ETV
vector 24325  IntersectionExampleScenario.node[42].veinsmobility  posy  ETV
vector 24331  IntersectionExampleScenario.node[43].veinsmobility  posx  ETV
vector 24332  IntersectionExampleScenario.node[43].veinsmobility  posy  ETV
24216	783765 5325 5897 9607 108 148 161 0.973 11.54047740176 490.02352621566 2442.4395862688
24215	789090 5082 5897 9607 108 148 161 -4.5 2.5 38.511121749878 223.92500075668
24214	794172 5281 5884 9607 107.75 148 162 5.6500000953674 15.614373207092 2221.5094513893 31580.826073596
24213	799453 5528 5871 9607 107.5 148 163 184.17810058594 734.39012145996 71849.247467041 36136366.783745
24212	804981 5541 5871 9607 107.5 148 163 486.85000610352 486.85000610352 79356.550994873 38634737.336208
vector 24326  IntersectionExampleScenario.node[42].veinsmobility  speed  ETV
vector 24333  IntersectionExampleScenario.node[43].veinsmobility  speed  ETV
vector 24327  IntersectionExampleScenario.node[42].veinsmobility  acceleration  ETV
vector 24328  IntersectionExampleScenario.node[42].veinsmobility  co2emission  ETV
vector 24334  IntersectionExampleScenario.node[43].veinsmobility  acceleration  ETV
vector 24335  IntersectionExampleScenario.node[43].veinsmobility  co2emission  ETV
24223	811016 5524 5927 9743 108.5 150 167 0.973 10.65035628006 480.03717200706 2138.3700419554
24222	816540 5533 5927 9743 108.5 150 167 -3.1387596130371 2.5 37.662351608276 150.42329292198
24221	822073 5495 5912 9743 108.25 150 168 5.6500000953674 15.326475143433 2307.1123790741 32581.504084534
24220	827568 5702 5897 9743 108 150 169 160.43438720703 732.26951599121 72592.401611328 36168220.058393
24219	833270 5744 5897 9743 108 150 169 486.85000610352 486.85000610352 82277.651031494 40056874.906866
vector 24338  IntersectionExampleScenario.node[44].veinsmobility  posx  ETV
vector 24339  IntersectionExampleScenario.node[44].veinsmobility  posy  ETV
vector 24340  IntersectionExampleScenario.node[44].veinsmobility  speed  ETV
vector 24341  IntersectionExampleScenario.node[44].veinsmobility  acceleration  ETV
vector 24342  IntersectionExampleScenario.node[44].veinsmobility  co2emission  ETV
24258	839415 5186 6396 9943 114.25 153 156 0.973 11.54047740176 466.15982120664 2342.423113526
24257	844601 4528 6396 9943 114.25 153 156 -3.0623931884766 2.5 37.492597579956 180.55984296702
24256	849129 5106 6371 9943 114 153 157 5.6500000953674 15.5 2221.0238161087 32010.779935585
24255	854235 5360 6346 9943 113.75 153 158 235.65802001953 785.82187652588 82274.189613342 47050363.778562
24254	859595 5371 6346 9943 113.75 153 158 483.14999389648 483.14999389648 76337.699035645 36882558.823143
vector 24345  IntersectionExampleScenario.node[45].veinsmobility  posx  ETV
vector 24346  IntersectionExampleScenario.node[45].veinsmobility  posy  ETV
vector 24347  IntersectionExampleScenario.node[45].veinsmobility  speed  ETV
vector 24348  IntersectionExampleScenario.node[45].veinsmobility  acceleration  ETV
vector 24349  IntersectionExampleScenario.node[45].veinsmobility  co2emission  ETV
24251	865367 5612 6300 10092 113.25 155.25 169 0.973 11.00486315618 478.73596079739 2268.1593383857
24250	870979 5011 6300 10092 113.25 155.25 169 -3.2703323364258 2.5 34.77654838562 203.20789983703
24249	875990 5513 6277 10092 113 155.25 170 5.6500000953674 14.75 2272.7267799377 31084.980224819
24248	881503 5816 6254 10092 112.75 155.25 171 166.28564453125 486.85000610352 66886.206848145 28282305.291705
24247	887319 5802 6254 10092 112.75 155.25 171 238.30938720703 486.85000610352 74452.436767578 33422457.967508
24244	893121 5591 6212 10126 112.25 155.75 175 0.973 12.099024792222 565.78412260187 3101.5565272287
24243	898712 5438 6212 10126 112.25 155.75 175 -7.2880325317383 4 41.057416915894 483.78915667994
24242	904150 5502 6191 10126 112 155.75 176 0 16.27499961853 2178.9059786797 31663.342908439
24241	909652 5964 6170 10126 111.75 155.75 177 486.85000610352 733.23387145996 94049.085952759 50909056.028313
24240	915616 6018 6170 10126 111.75 155.75 177 486.63604736328 785.82187652588 99909.276451111 58196154.488691
24230	921634 6110 5961 10194 109 156.75 192 0.973 11.36141391502 547.2384068989 2753.6457422127
24229	927744 5735 5961 10194 109 156.75 192 -7.0918092727661 4 36.474081039429 459.18080908697
24228	933479 5962 5944 10194 108.75 156.75 193 0 15.25 2183.440841198 29929.300743937
24227	939441 6541 5927 10194 108.5 156.75 194 235.26263427734 483.14999389648 85199.828125 38449713.97186
24226	945982 6591 5927 10194 108.5 156.75 194 184.17810058594 483.36395263672 79268.286560059 34290910.353791
vector 24352  IntersectionExampleScenario.node[46].veinsmobility  posx  ETV
vector 24353  IntersectionExampleScenario.node[46].veinsmobility  posy  ETV
vector 24354  IntersectionExampleScenario.node[46].veinsmobility  speed  ETV
vector 24355  IntersectionExampleScenario.node[46].veinsmobility  acceleration  ETV
vector 24356  IntersectionExampleScenario.node[46].veinsmobility  co2emission  ETV
vector 24359  IntersectionExampleScenario.node[47].veinsmobility  posx  ETV
vector 24360  IntersectionExampleScenario.node[47].veinsmobility  posy  ETV
vector 24361  IntersectionExampleScenario.node[47].veinsmobility  speed  ETV
vector 24362  IntersectionExampleScenario.node[47].veinsmobility  acceleration  ETV
vector 24363  IntersectionExampleScenario.node[47].veinsmobility  co2emission  ETV
24265	953375 5513 6775 10434 118 160.25 170 0.973 11.200708441096 522.00186920272 2869.415548028
24264	958888 5268 6775 10434 118 160.25 170 -2.8793182373047 2.5 35.455564498901 281.75770258587
24263	964156 5567 6748 10434 117.75 160.25 171 5.6500000953674 15.02499961853 2209.2446899414 29489.053762161
24262	969723 5860 6721 10434 117.5 160.25 172 483.14999389648 733.8413848877 91953.948791504 50184495.963426
24261	975583 5842 6721 10434 117.5 160.25 172 184.17810058594 486.85000610352 68737.215270996 29296660.037613
vector 24366  IntersectionExampleScenario.node[48].veinsmobility  posx  ETV
vector 24367  IntersectionExampleScenario.node[48].veinsmobility  posy  ETV
vector 24368  IntersectionExampleScenario.node[48].veinsmobility  speed  ETV
vector 24373  IntersectionExampleScenario.node[49].veinsmobility  posx  ETV
vector 24374  IntersectionExampleScenario.node[49].veinsmobility  posy  ETV
vector 24369  IntersectionExampleScenario.node[48].veinsmobility  acceleration  ETV
vector 24370  IntersectionExampleScenario.node[48].veinsmobility  co2emission  ETV
vector 24375  IntersectionExampleScenario.node[49].veinsmobility  speed  ETV
vector 24376  IntersectionExampleScenario.node[49].veinsmobility  acceleration  ETV
vector 24377  IntersectionExampleScenario.node[49].veinsmobility  co2emission  ETV
24279	982227 5667 6949 10556 119.5 162 171 0.973 11.94264807888 555.93974785611 3047.0936735675
24278	987894 5272 6949 10556 119.5 162 171 -4.5 2.5 39.529638290405 362.12021499768
24277	993166 5682 6918 10556 119.25 162 172 5.6500000953674 16.058763504028 2315.8476896286 32447.636004328
24276	998848 5913 6887 10556 119 162 173 486.85000610352 486.85000610352 84225.051055908 41004966.620638
24275	1004761 5890 6887 10556 119 162 173 236.05444335938 809.56562805176 92545.133911133 54209420.666815
24272	1010651 5588 6887 10575 119 162.25 174 0.973 11.648172402475 581.05814300519 3214.2486370867
24271	1016239 5487 6887 10575 119 162.25 174 -29.208951950073 4 39.869146347046 1254.6137574806
24270	1021726 5609 6858 10575 118.75 162.25 175 0 15.64999961853 2189.9435448647 30518.85390676
24269	1027335 6009 6829 10575 118.5 162.25 176 486.85000610352 735.15725708008 93836.968475342 50994765.930134
24268	1033344 6005 6829 10575 118.5 162.25 176 486.765625 785.82187652588 99835.753868103 58416090.852285
vector 24380  IntersectionExampleScenario.node[50].veinsmobility  posx  ETV
vector 24381  IntersectionExampleScenario.node[50].veinsmobility  posy  ETV
vector 24387  IntersectionExampleScenario.node[51].veinsmobility  posx  ETV
vector 24388  IntersectionExampleScenario.node[51].veinsmobility  posy  ETV
vector 24382  IntersectionExampleScenario.node[50].veinsmobility  speed  ETV
vector 24383  IntersectionExampleScenario.node[50].veinsmobility  acceleration  ETV
vector 24384  IntersectionExampleScenario.node[50].veinsmobility  co2emission  ETV
vector 24389  IntersectionExampleScenario.node[51].veinsmobility  speed  ETV
vector 24390  IntersectionExampleScenario.node[51].veinsmobility  acceleration  ETV
vector 24391  IntersectionExampleScenario.node[51].veinsmobility  co2emission  ETV
vector 24394  IntersectionExampleScenario.node[52].veinsmobility  posx  ETV
vector 24395  IntersectionExampleScenario.node[52].veinsmobility  posy  ETV
vector 24401  IntersectionExampleScenario.node[53].veinsmobility  posx  ETV
vector 24402  IntersectionExampleScenario.node[53].veinsmobility  posy  ETV
vector 24396  IntersectionExampleScenario.node[52].veinsmobility  speed  ETV
vector 24397  IntersectionExampleScenario.node[52].veinsmobility  acceleration  ETV
vector 24398  IntersectionExampleScenario.node[52].veinsmobility  co2emission  ETV
vector 24403  IntersectionExampleScenario.node[53].veinsmobility  speed  ETV
24293	1040784 5433 7666 11007 126 167.25 166 0.973 11.200708441096 518.85642669753 2892.2319719747
24292	1046217 5118 7666 11007 126 167.25 166 -3.1379375457764 2.5 35.795072555542 295.87722032437
24291	1051335 5421 7637 11007 125.75 167.25 167 5.6500000953674 15.02499961853 2181.8705973625 29640.230668312
24290	1056756 5754 7607 11007 125.5 167.25 168 486.85000610352 732.94486999512 90306.956008911 49505482.146929
24289	1062510 5756 7607 11007 125.5 167.25 168 486.85000610352 785.82187652588 96077.739616394 56728280.751767
vector 24408  IntersectionExampleScenario.node[54].veinsmobility  posx  ETV
vector 24409  IntersectionExampleScenario.node[54].veinsmobility  posy  ETV
vector 24404  IntersectionExampleScenario.node[53].veinsmobility  acceleration  ETV
vector 24405  IntersectionExampleScenario.node[53].veinsmobility  co2emission  ETV
vector 24410  IntersectionExampleScenario.node[54].veinsmobility  speed  ETV
vector 24411  IntersectionExampleScenario.node[54].veinsmobility  acceleration  ETV
vector 24412  IntersectionExampleScenario.node[54].veinsmobility  co2emission  ETV
24307	1068836 5175 8073 11121 129.75 168.25 155 0.973 11.990504229548 513.33369594542 2865.0494522485
24306	1074011 4830 8073 11121 129.75 168.25 155 -4.5 2.5 39.699392318726 256.79984205458
24305	1078841 5109 8046 11121 129.5 168.25 156 5.6500000953674 16.125 2253.0546112061 33251.469448712
24304	1083950 5397 8018 11121 129.25 168.25 157 486.85000610352 486.85000610352 76435.450958252 37212599.76555
24303	1089347 5386 8018 11121 129.25 168.25 157 236.18664550781 793.78281402588 82569.234771729 47694383.32682
vector 24415  IntersectionExampleScenario.node[55].veinsmobility  posx  ETV
vector 24416  IntersectionExampleScenario.node[55].veinsmobility  posy  ETV
vector 24417  IntersectionExampleScenario.node[55].veinsmobility  speed  ETV
vector 24422  IntersectionExampleScenario.node[56].veinsmobility  posx  ETV
vector 24423  IntersectionExampleScenario.node[56].veinsmobility  posy  ETV
vector 24418  IntersectionExampleScenario.node[55].veinsmobility  acceleration  ETV
vector 24419  IntersectionExampleScenario.node[55].veinsmobility  co2emission  ETV
vector 24424  IntersectionExampleScenario.node[56].veinsmobility  speed  ETV
vector 24425  IntersectionExampleScenario.node[56].veinsmobility  acceleration  ETV
vector 24426  IntersectionExampleScenario.node[56].veinsmobility  co2emission  ETV
vector 24429  IntersectionExampleScenario.node[57].veinsmobility  posx  ETV
vector 24430  IntersectionExampleScenario.node[57].veinsmobility  posy  ETV
24314	1095689 5263 8545 11685 134.25 173 156 0.973 11.54047740176 466.15982120664 2342.423113526
24313	1100952 4605 8545 11685 134.25 173 156 -3.0623893737793 2.5 37.492597579956 180.55980135192
24312	1105557 5183 8519 11685 134 173 157 5.6500000953674 15.5 2221.0238361359 32010.780434557
24311	1110740 5448 8492 11685 133.75 173 158 483.14999389648 483.14999389648 76337.699035645 36882558.823143
24310	1116188 5399 8492 11685 133.75 173 158 184.17810058594 734.34188842773 70985.805145264 36100629.995172
vector 24431  IntersectionExampleScenario.node[57].veinsmobility  speed  ETV
vector 24432  IntersectionExampleScenario.node[57].veinsmobility  acceleration  ETV
vector 24433  IntersectionExampleScenario.node[57].veinsmobility  co2emission  ETV
24300	1121834 6448 7666 12147 126 176.5 203 0.973 11.36141391502 563.43576604097 2785.4438629632
24299	1128282 5850 7666 12147 126 176.5 203 -7.3439340591431 4 37.32285118103 466.2801642023
24298	1134132 6231 7637 12147 125.75 176.5 204 0 15.25 2179.0751368999 30203.864518701
24297	1140363 7050 7607 12147 125.5 176.5 205 486.63604736328 785.82187652588 114301.14308929 65667924.265137
24296	1147413 6996 7607 12147 125.5 176.5 205 236.31317138672 483.14999389648 90694.921295166 41155277.545955
vector 24436  IntersectionExampleScenario.node[58].veinsmobility  posx  ETV
vector 24437  IntersectionExampleScenario.node[58].veinsmobility  posy  ETV
vector 24438  IntersectionExampleScenario.node[58].veinsmobility  speed  ETV
vector 24439  IntersectionExampleScenario.node[58].veinsmobility  acceleration  ETV
vector 24440  IntersectionExampleScenario.node[58].veinsmobility  co2emission  ETV
24286	1154810 6834 7418 12285 123.75 177.5 216 0.973 10.756497587458 558.46585363163 2560.6991912099
24285	1161644 6261 7418 12285 123.75 177.5 216 -6.7751665115356 4 33.248777389526 443.67720973288
24284	1167905 6699 7391 12285 123.5 177.5 217 0 14.39999961853 2208.1363153458 29028.064908076
24283	1174604 7469 7364 12285 123.25 177.5 218 184.17810058594 732.67573547363 99202.898101807 49559995.651589
24282	1182073 7508 7364 12285 123.25 177.5 218 486.85000610352 486.85000610352 106133.30133057 51670998.400572
vector 24443  IntersectionExampleScenario.node[59].veinsmobility  posx  ETV
vector 24444  IntersectionExampleScenario.node[59].veinsmobility  posy  ETV
vector 24445  IntersectionExampleScenario.node[59].veinsmobility  speed  ETV
vector 24446  IntersectionExampleScenario.node[59].veinsmobility  acceleration  ETV
vector 24447  IntersectionExampleScenario.node[59].veinsmobility  co2emission  ETV
vector 24450  IntersectionExampleScenario.node[60].veinsmobility  posx  ETV
vector 24451  IntersectionExampleScenario.node[60].veinsmobility  posy  ETV
vector 24452  IntersectionExampleScenario.node[60].veinsmobility  speed  ETV
vector 24453  IntersectionExampleScenario.node[60].veinsmobility  acceleration  ETV
vector 24454  IntersectionExampleScenario.node[60].veinsmobility  co2emission  ETV
vector 24457  IntersectionExampleScenario.node[61].veinsmobility  posx  ETV
vector 24458  IntersectionExampleScenario.node[61].veinsmobility  posy  ETV
vector 24459  IntersectionExampleScenario.node[61].veinsmobility  speed  ETV
vector 24460  IntersectionExampleScenario.node[61].veinsmobility  acceleration  ETV
vector 24461  IntersectionExampleScenario.node[61].veinsmobility  co2emission  ETV
24328	1190784 5319 9641 13506 148.5 187.25 156 0.97223939240464 11.648172402475 492.14756265096 2642.1924718167
24327	1196103 4782 9641 13506 148.5 187.25 156 -4.056884765625 2.5 38.680875778198 242.46451577521
24326	1200885 5190 9624 13506 148.25 187.25 157 5.6500000953674 15.64999961853 2203.143330574 31848.467378614
24325	1206075 5501 9607 13506 148 187.25 158 482.97259521484 785.82187652588 90413.027381897 53503927.365405
24324	1211576 5496 9607 13506 148 187.25 158 483.14999389648 732.75762939453 84674.011764526 46324231.231023
vector 24464  IntersectionExampleScenario.node[62].veinsmobility  posx  ETV
vector 24465  IntersectionExampleScenario.node[62].veinsmobility  posy  ETV
vector 24466  IntersectionExampleScenario.node[62].veinsmobility  speed  ETV
vector 24467  IntersectionExampleScenario.node[62].veinsmobility  acceleration  ETV
vector 24468  IntersectionExampleScenario.node[62].veinsmobility  co2emission  ETV
vector 24471  IntersectionExampleScenario.node[63].veinsmobility  posx  ETV
vector 24472  IntersectionExampleScenario.node[63].veinsmobility  posy  ETV
vector 24473  IntersectionExampleScenario.node[63].veinsmobility  speed  ETV
vector 24474  IntersectionExampleScenario.node[63].veinsmobility  acceleration  ETV
vector 24475  IntersectionExampleScenario.node[63].veinsmobility  co2emission  ETV
vector 24478  IntersectionExampleScenario.node[64].veinsmobility  posx  ETV
vector 24479  IntersectionExampleScenario.node[64].veinsmobility  posy  ETV
vector 24480  IntersectionExampleScenario.node[64].veinsmobility  speed  ETV
vector 24481  IntersectionExampleScenario.node[64].veinsmobility  acceleration  ETV
vector 24482  IntersectionExampleScenario.node[64].veinsmobility  co2emission  ETV
vector 24485  IntersectionExampleScenario.node[65].veinsmobility  posx  ETV
vector 24486  IntersectionExampleScenario.node[65].veinsmobility  posy  ETV
vector 24492  IntersectionExampleScenario.node[66].veinsmobility  posx  ETV
vector 24493  IntersectionExampleScenario.node[66].veinsmobility  posy  ETV
vector 24487  IntersectionExampleScenario.node[65].veinsmobility  speed  ETV
vector 24488  IntersectionExampleScenario.node[65].veinsmobility  acceleration  ETV
vector 24489  IntersectionExampleScenario.node[65].veinsmobility  co2emission  ETV
vector 24494  IntersectionExampleScenario.node[66].veinsmobility  speed  ETV
vector 24495  IntersectionExampleScenario.node[66].veinsmobility  acceleration  ETV
vector 24496  IntersectionExampleScenario.node[66].veinsmobility  co2emission  ETV
vector 24499  IntersectionExampleScenario.node[67].veinsmobility  posx  ETV
vector 24500  IntersectionExampleScenario.node[67].veinsmobility  posy  ETV
24321	1219231 6682 9199 14549 141.75 194.75 213 0.973 11.810082123732 594.60312068545 3079.6057133959
24320	1225913 6147 9199 14549 141.75 194.75 213 -8.8617515563965 4 40.038900375366 510.78597540477
24319	1232060 6416 9180 14549 141.5 194.75 214 0 15.875 2168.5519087315 31186.252863985
24318	1238476 7405 9161 14549 141.25 194.75 215 239.04711914062 483.14999389648 96038.604797363 43884174.129956
24317	1245881 7456 9161 14549 141.25 194.75 215 184.17810058594 483.36395263672 89575.283782959 39267321.572615
vector 24501  IntersectionExampleScenario.node[67].veinsmobility  speed  ETV
vector 24506  IntersectionExampleScenario.node[68].veinsmobility  posx  ETV
vector 24507  IntersectionExampleScenario.node[68].veinsmobility  posy  ETV
vector 24502  IntersectionExampleScenario.node[67].veinsmobility  acceleration  ETV
vector 24503  IntersectionExampleScenario.node[67].veinsmobility  co2emission  ETV
vector 24508  IntersectionExampleScenario.node[68].veinsmobility  speed  ETV
24342	1253816 5973 9793 14674 150.75 195.5 180 0.973 11.36141391502 539.34798256408 2757.2670287943
24341	1259789 5503 9793 14674 150.75 195.5 180 -8.4870567321777 4 37.15309715271 476.36065124764
24340	1265292 5848 9776 14674 150.5 195.5 181 0 15.25 2176.7448656559 30094.704683899
24339	1271140 6294 9759 14674 150.25 195.5 182 486.85000610352 733.15849304199 96944.039550781 52621974.069557
24338	1277434 6345 9759 14674 150.25 195.5 182 486.63604736328 785.82187652588 102861.61016083 59981642.120145
vector 24509  IntersectionExampleScenario.node[68].veinsmobility  acceleration  ETV
vector 24510  IntersectionExampleScenario.node[68].veinsmobility  co2emission  ETV
24335	1283948 6026 9641 14760 148.5 196 191 0.973 12.099024792222 560.96178428561 3156.9169910731
24334	1289974 6333 9641 14760 148.5 196 191 -2.5355224609375 2.5 40.038900375366 333.29642817303
24333	1296307 6529 9624 14760 148.25 196 192 1.105819940567 16.27499961853 2221.0725579262 30723.768144903
24332	1302836 6729 9607 14760 148 196 193 483.14999389648 483.14999389648 93247.948822021 45052745.904219
24331	1309565 6698 9607 14760 148 196 193 184.17810058594 734.48057556152 86712.805297852 43050747.993993
24349	1316263 5693 10007 14803 154 196.25 170 0.973 11.54047740176 522.10773557948 2742.0831190985
24348	1321956 5331 10007 14803 154 196.25 170 -4.5 2.5 37.15309715271 344.66729370908
24347	1327287 5786 9990 14803 153.75 196.25 171 4.0264949798584 15.5 2261.1742858887 31458.494229475
24346	1333073 6018 9973 14803 153.5 196.25 172 486.85000610352 486.85000610352 83738.201049805 40767943.692195
24345	1339091 5979 9973 14803 153.5 196.25 172 236.60162353516 797.07032012939 90435.814247131 52011931.478103
24363	1345070 5497 10363 15413 159.25 200 164 0.973 11.200708441096 504.34541246533 2768.2874879378
24362	1350567 5288 10363 15413 159.25 200 164 -2.8327865600586 2.5 35.795072555542 245.69098303008
24361	1355855 5553 10344 15413 159 200 165 5.6500000953674 15.02499961853 2221.0602407455 30491.356340719
24360	1361408 5809 10325 15413 158.75 200 166 486.85000610352 486.85000610352 80817.101013184 39345806.121537
24359	1367217 5792 10325 15413 158.75 200 166 235.36029052734 785.82187652588 86503.571357727 49388018.415776
vector 24513  IntersectionExampleScenario.node[69].veinsmobility  posx  ETV
vector 24514  IntersectionExampleScenario.node[69].veinsmobility  posy  ETV
vector 24515  IntersectionExampleScenario.node[69].veinsmobility  speed  ETV
vector 24520  IntersectionExampleScenario.node[70].veinsmobility  posx  ETV
vector 24521  IntersectionExampleScenario.node[70].veinsmobility  posy  ETV
vector 24516  IntersectionExampleScenario.node[69].veinsmobility  acceleration  ETV
vector 24517  IntersectionExampleScenario.node[69].veinsmobility  co2emission  ETV
vector 24522  IntersectionExampleScenario.node[70].veinsmobility  speed  ETV
vector 24527  IntersectionExampleScenario.node[71].veinsmobility  posx  ETV
vector 24528  IntersectionExampleScenario.node[71].veinsmobility  posy  ETV
vector 24523  IntersectionExampleScenario.node[70].veinsmobility  acceleration  ETV
vector 24524  IntersectionExampleScenario.node[70].veinsmobility  co2emission  ETV
vector 24529  IntersectionExampleScenario.node[71].veinsmobility  speed  ETV
vector 24530  IntersectionExampleScenario.node[71].veinsmobility  acceleration  ETV
vector 24531  IntersectionExampleScenario.node[71].veinsmobility  co2emission  ETV
vector 24534  IntersectionExampleScenario.node[72].veinsmobility  posx  ETV
vector 24535  IntersectionExampleScenario.node[72].veinsmobility  posy  ETV
vector 24536  IntersectionExampleScenario.node[72].veinsmobility  speed  ETV
vector 24537  IntersectionExampleScenario.node[72].veinsmobility  acceleration  ETV
vector 24538  IntersectionExampleScenario.node[72].veinsmobility  co2emission  ETV
vector 24541  IntersectionExampleScenario.node[73].veinsmobility  posx  ETV
vector 24542  IntersectionExampleScenario.node[73].veinsmobility  posy  ETV
vector 24543  IntersectionExampleScenario.node[73].veinsmobility  speed  ETV
vector 24544  IntersectionExampleScenario.node[73].veinsmobility  acceleration  ETV
vector 24545  IntersectionExampleScenario.node[73].veinsmobility  co2emission  ETV
vector 24548  IntersectionExampleScenario.node[74].veinsmobility  posx  ETV
vector 24549  IntersectionExampleScenario.node[74].veinsmobility  posy  ETV
vector 24550  IntersectionExampleScenario.node[74].veinsmobility  speed  ETV
vector 24551  IntersectionExampleScenario.node[74].veinsmobility  acceleration  ETV
vector 24552  IntersectionExampleScenario.node[74].veinsmobility  co2emission  ETV
24419	1375415 5275 11499 16764 171.5 210 155 0.973 11.90022389248 500.52554855579 2781.3659964429
24418	1380690 4779 11499 16764 171.5 210 155 -3.2846527099609 2.5 39.869146347046 241.68198894314
24417	1385469 5161 11470 16764 171.25 210 156 5.6500000953674 16 2213.0224189758 32437.108865515
24416	1390630 5474 11440 16764 171 210 157 483.14999389648 734.23080444336 84137.684555054 46037684.003542
24415	1396104 5472 11440 16764 171 210 157 184.17810058594 486.85000610352 62504.023132324 26643239.540765
vector 24555  IntersectionExampleScenario.node[75].veinsmobility  posx  ETV
vector 24556  IntersectionExampleScenario.node[75].veinsmobility  posy  ETV
vector 24557  IntersectionExampleScenario.node[75].veinsmobility  speed  ETV
vector 24558  IntersectionExampleScenario.node[75].veinsmobility  acceleration  ETV
vector 24559  IntersectionExampleScenario.node[75].veinsmobility  co2emission  ETV
24433	1401977 5518 11751 17251 173.5 213.5 161 0.973 11.093806525473 449.42272911861 2077.8756380115
24432	1407495 4956 11751 17251 173.5 213.5 161 -3.1093864440918 2.5 34.77654838562 161.23923372262
24431	1412451 5446 11718 17251 173.25 213.5 162 5.6500000953674 14.875 2210.9392957687 30635.335301716
24430	1417897 5704 11685 17251 173 213.5 163 486.85000610352 486.85000610352 79356.550994873 38634737.336208
24429	1423601 5685 11685 17251 173 213.5 163 237.91613769531 785.82187652588 84898.456161499 48520695.623804
24356	1429286 7093 10274 17391 158 214.5 227 0.94600815583079 12.353032912318 629.75976727738 3424.6834461638
24355	1436379 6380 10274 17391 158 214.5 227 -9.4400005340576 4 41.566686630249 599.44234808391
24354	1442759 6709 10257 17391 157.75 214.5 228 0 16.625 2210.9730472565 32979.016966367
24353	1449468 8009 10240 17391 157.5 214.5 229 236.96490478516 785.82187652588 117802.01351166 64618046.45584
24352	1457477 8015 10240 17391 157.5 214.5 229 483.14999389648 483.14999389648 110641.34860229 53456366.901897
24405	1465492 6179 11034 17493 167.5 215.25 192 0.97223939240464 11.648172402475 555.69076329175 2924.950477624
24404	1471671 5739 11034 17493 167.5 215.25 192 -7.8628492355347 4 38.680875778198 490.96257518925
24403	1477410 6003 11007 17493 167.25 215.25 193 0 15.64999961853 2071.8360035419 29388.898910418
24402	1483413 6759 10980 17493 167 215.25 194 219.95471191406 734.53523254395 90746.500396729 45860079.990344
24401	1490172 6789 10980 17493 167 215.25 194 486.85000610352 486.85000610352 94448.901184082 45982448.117941
24377	1496961 7336 10537 17658 161.75 216.5 220 0.973 11.648172402475 595.24171208086 2882.1008787325
24376	1504297 7393 10537 17658 161.75 216.5 220 -4.5 2.5000002384186 39.529638290405 450.29385707305
24375	1511690 7419 10518 17658 161.5 216.5 221 0 15.64999961853 2127.2746222112 29758.903094431
24374	1519109 7760 10499 17658 161.25 216.5 222 486.85000610352 773.15079498291 121970.31158447 68734762.295249
24373	1526869 7768 10499 17658 161.25 216.5 222 238.23980712891 483.14999389648 99287.562408447 45413762.649577
24391	1534637 6918 10794 17823 165 217.75 212 0.973 11.54047740176 604.56464256716 2879.9710663262
24390	1541555 6984 10794 17823 165 217.75 212 -4.5 2.5 40.208654403687 402.74736987232
24389	1548539 7274 10771 17823 164.75 217.75 213 0 15.785245895386 2310.6385082453 31463.554365896
24388	1555813 7456 10748 17823 164.5 217.75 214 159.76721191406 732.26113891602 92503.100692749 44927935.72243
24387	1563269 7491 10748 17823 164.5 217.75 214 486.85000610352 486.85000610352 104185.90130615 50722906.6868
24384	1570760 6991 10771 17855 164.75 218 214 0.973 10.479481231924 643.424298634 3056.4814628697
24383	1577751 6894 10771 17855 164.75 218 214 -20 4 39.869146347046 1001.1091287513
24382	1584645 7022 10748 17855 164.5 218 215 0 15.712313652039 2190.5397657994 29713.549338977
24381	1591667 7525 10727 17855 164.25 218 216 184.17810058594 486.85000610352 88063.58996582 38104402.193053
24380	1599192 7551 10727 17855 164.25 218 216 238.97198486328 486.85000610352 97027.959442139 44613567.302656
24370	1606743 7507 10499 17886 161.25 218.25 229 0.973 11.54047740176 607.40734875762 2909.9939690988
24369	1614250 7590 10499 17886 161.25 218.25 229 -4.5 2.5 38.850629806519 410.01386649168
24368	1621840 7859 10482 17886 161 218.25 230 0 15.519684791565 2262.9447356425 30489.721231664
24367	1629699 8061 10465 17886 160.75 218.25 231 236.05096435547 797.07032012939 121914.84181213 68945945.341627
24366	1637760 8085 10465 17886 160.75 218.25 231 483.14999389648 483.14999389648 111607.64859009 53923234.735102
24412	1645845 6607 11092 18069 168 219.75 208 0.973 11.648172402475 580.0078381892 2953.6890928199
24411	1652452 6893 11092 18069 168 219.75 208 -3.9814095497131 2.5 40.378400802612 358.50270857135
24410	1659345 7101 11063 18069 167.75 219.75 209 0 15.795337677002 2216.3162921742 29894.127965526
24409	1666446 7329 11034 18069 167.5 219.75 210 236.89904785156 785.82187652588 110194.86029816 61891126.14436
24408	1673775 7351 11034 18069 167.5 219.75 210 483.14999389648 483.14999389648 101461.49871826 49021122.486456
24398	1681126 6972 11007 18127 167.25 220.25 213 0.973 11.123435594285 588.93573666669 2673.000210647
24397	1688098 7163 11007 18127 167.25 220.25 213 -4.5 2.5000001192093 38.680875778198 387.78688540276
24396	1695261 7300 10980 18127 167 220.25 214 0 15.473323822021 2336.1664260924 31233.162890154
24395	1702561 7478 10955 18127 166.75 220.25 215 155.08673095703 734.28176879883 92927.082199097 45225432.534318
24394	1710039 7525 10955 18127 166.75 220.25 215 486.85000610352 486.85000610352 104672.75131226 50959929.615243
vector 24562  IntersectionExampleScenario.node[76].veinsmobility  posx  ETV
vector 24563  IntersectionExampleScenario.node[76].veinsmobility  posy  ETV
vector 24564  IntersectionExampleScenario.node[76].veinsmobility  speed  ETV
vector 24565  IntersectionExampleScenario.node[76].veinsmobility  acceleration  ETV
vector 24566  IntersectionExampleScenario.node[76].veinsmobility  co2emission  ETV
vector 24569  IntersectionExampleScenario.node[77].veinsmobility  posx  ETV
vector 24570  IntersectionExampleScenario.node[77].veinsmobility  posy  ETV
vector 24576  IntersectionExampleScenario.node[78].veinsmobility  posx  ETV
vector 24577  IntersectionExampleScenario.node[78].veinsmobility  posy  ETV
vector 24571  IntersectionExampleScenario.node[77].veinsmobility  speed  ETV
vector 24583  IntersectionExampleScenario.node[79].veinsmobility  posx  ETV
vector 24584  IntersectionExampleScenario.node[79].veinsmobility  posy  ETV
vector 24572  IntersectionExampleScenario.node[77].veinsmobility  acceleration  ETV
vector 24573  IntersectionExampleScenario.node[77].veinsmobility  co2emission  ETV
vector 24578  IntersectionExampleScenario.node[78].veinsmobility  speed  ETV
vector 24579  IntersectionExampleScenario.node[78].veinsmobility  acceleration  ETV
vector 24580  IntersectionExampleScenario.node[78].veinsmobility  co2emission  ETV
vector 24585  IntersectionExampleScenario.node[79].veinsmobility  speed  ETV
vector 24586  IntersectionExampleScenario.node[79].veinsmobility  acceleration  ETV
vector 24587  IntersectionExampleScenario.node[79].veinsmobility  co2emission  ETV
24426	1719168 6904 11561 18650 172 224.75 212 0.973 10.756497587458 556.99076140768 2579.6493346952
24425	1726072 6867 11561 18650 172 224.75 212 -4.2698287963867 2.5000019073486 33.248777389526 361.36553622354
24424	1732939 7157 11530 18650 171.75 224.75 213 2.779304265976 14.39999961853 2257.8745443821 27532.402773509
24423	1740096 7475 11499 18650 171.5 224.75 214 165.97375488281 483.14999389648 85096.128631592 36014740.920331
24422	1747571 7484 11499 18650 171.5 224.75 214 486.85000610352 733.9940032959 113140.02275085 60915145.318903
vector 24590  IntersectionExampleScenario.node[80].veinsmobility  posx  ETV
vector 24591  IntersectionExampleScenario.node[80].veinsmobility  posy  ETV
vector 24592  IntersectionExampleScenario.node[80].veinsmobility  speed  ETV
vector 24593  IntersectionExampleScenario.node[80].veinsmobility  acceleration  ETV
vector 24594  IntersectionExampleScenario.node[80].veinsmobility  co2emission  ETV
24468	1755456 5074 13727 18826 189 226.25 150 0.973 12.099024792222 494.93632561949 2872.4001085173
24467	1760530 4899 13727 18826 189 226.25 150 -3.0511665344238 2.5000038146973 40.378400802612 219.41816909571
24466	1765429 5054 13694 18826 188.75 226.25 151 5.6500000953674 16.27499961853 2210.504067421 33106.157475557
24465	1770483 5292 13661 18826 188.5 226.25 152 184.17810058594 731.46839904785 67939.788040161 34373840.778248
24464	1775775 5320 13661 18826 188.5 226.25 152 486.85000610352 486.85000610352 74001.200927734 36027485.123335
vector 24597  IntersectionExampleScenario.node[81].veinsmobility  posx  ETV
vector 24598  IntersectionExampleScenario.node[81].veinsmobility  posy  ETV
vector 24599  IntersectionExampleScenario.node[81].veinsmobility  speed  ETV
vector 24600  IntersectionExampleScenario.node[81].veinsmobility  acceleration  ETV
vector 24601  IntersectionExampleScenario.node[81].veinsmobility  co2emission  ETV
vector 24604  IntersectionExampleScenario.node[82].veinsmobility  posx  ETV
vector 24605  IntersectionExampleScenario.node[82].veinsmobility  posy  ETV
vector 24606  IntersectionExampleScenario.node[82].veinsmobility  speed  ETV
vector 24611  IntersectionExampleScenario.node[83].veinsmobility  posx  ETV
vector 24612  IntersectionExampleScenario.node[83].veinsmobility  posy  ETV
vector 24607  IntersectionExampleScenario.node[82].veinsmobility  acceleration  ETV
vector 24608  IntersectionExampleScenario.node[82].veinsmobility  co2emission  ETV
vector 24613  IntersectionExampleScenario.node[83].veinsmobility  speed  ETV
vector 24614  IntersectionExampleScenario.node[83].veinsmobility  acceleration  ETV
vector 24615  IntersectionExampleScenario.node[83].veinsmobility  co2emission  ETV
vector 24618  IntersectionExampleScenario.node[84].veinsmobility  posx  ETV
vector 24619  IntersectionExampleScenario.node[84].veinsmobility  posy  ETV
vector 24620  IntersectionExampleScenario.node[84].veinsmobility  speed  ETV
vector 24621  IntersectionExampleScenario.node[84].veinsmobility  acceleration  ETV
vector 24622  IntersectionExampleScenario.node[84].veinsmobility  co2emission  ETV
24475	1782699 5519 13962 19399 190.75 231 162 0.973 11.648172402475 499.24285052657 2648.7336208697
24474	1788218 5015 13962 19399 190.75 231 162 -3.0906829833984 2.5 38.171613693237 230.23257164334
24473	1793233 5419 13927 19399 190.5 231 163 5.6500000953674 15.64999961853 2276.7258176804 32717.439840162
24472	1798652 5725 13892 19399 190.25 231 164 164.94219970703 486.87716674805 63987.949707031 27038530.907069
24471	1804377 5711 13892 19399 190.25 231 164 238.72644042969 486.85000610352 71538.192382812 32157913.327662
vector 24625  IntersectionExampleScenario.node[85].veinsmobility  posx  ETV
vector 24626  IntersectionExampleScenario.node[85].veinsmobility  posy  ETV
vector 24627  IntersectionExampleScenario.node[85].veinsmobility  speed  ETV
vector 24628  IntersectionExampleScenario.node[85].veinsmobility  acceleration  ETV
vector 24629  IntersectionExampleScenario.node[85].veinsmobility  co2emission  ETV
24440	1810489 7249 12250 19817 177.25 234.5 230 0.973 11.200708441096 579.93540271611 2693.3095983224
24439	1817738 6565 12250 19817 177.25 234.5 230 -7.5492105484009 4 35.964826583862 464.95118037559
24438	1824303 6967 12215 19817 177 234.5 231 0 15.02499961853 2180.5861537457 29808.471098454
24437	1831270 8118 12180 19817 176.75 234.5 232 483.14999389648 733.02844238281 120805.82087708 64031379.447542
24436	1839388 8089 12180 19817 176.75 234.5 232 184.17810058594 486.85000610352 97370.008056641 42929823.112585
24447	1847477 7342 12648 19879 180.25 235 220 0.973 11.990504229548 607.94012948427 3038.4589761028
24446	1854819 7304 12648 19879 180.25 235 220 -4.5 2.5000019073486 39.529638290405 453.7355679288
24445	1862123 7534 12616 19879 180 235 221 0 16.125 2266.8142176708 32307.220673352
24444	1869657 7769 12582 19879 179.75 235 222 483.14999389648 483.14999389648 107259.29864502 51822329.485682
24443	1877426 7719 12582 19879 179.75 235 222 171.40313720703 733.2017364502 99468.54397583 48963299.760013
vector 24632  IntersectionExampleScenario.node[86].veinsmobility  posx  ETV
vector 24633  IntersectionExampleScenario.node[86].veinsmobility  posy  ETV
vector 24634  IntersectionExampleScenario.node[86].veinsmobility  speed  ETV
vector 24635  IntersectionExampleScenario.node[86].veinsmobility  acceleration  ETV
vector 24636  IntersectionExampleScenario.node[86].veinsmobility  co2emission  ETV
24454	1885546 6845 12914 20100 182.5 236.75 218 0.973 12.099024792222 602.98376417583 3115.326137416
24453	1892391 6473 12914 20100 182.5 236.75 218 -7.8776445388794 4 40.038900375366 520.62194632959
24452	1898864 6612 12883 20100 182.25 236.75 219 0 16.27499961853 2180.331154108 31398.347680055
24451	1905476 7692 12852 20100 182 236.75 220 486.85000610352 733.14251708984 115086.93089294 61219822.666161
24450	1913168 7680 12852 20100 182 236.75 220 486.75677490234 785.82187652588 121419.33371735 68971266.340734
vector 24639  IntersectionExampleScenario.node[87].veinsmobility  posx  ETV
vector 24640  IntersectionExampleScenario.node[87].veinsmobility  posy  ETV
vector 24641  IntersectionExampleScenario.node[87].veinsmobility  speed  ETV
vector 24642  IntersectionExampleScenario.node[87].veinsmobility  acceleration  ETV
vector 24643  IntersectionExampleScenario.node[87].veinsmobility  co2emission  ETV
24461	1921249 7083 13041 20273 183.5 238 219 0.973 11.810082123732 597.53608586127 3082.3989168323
24460	1928332 7211 13041 20273 183.5 238 219 -3.8896412849426 2.5000004768372 39.699392318726 373.96031401758
24459	1935543 7377 13009 20273 183.25 238 220 0 15.875 2257.2005468644 30515.43527635
24458	1942920 7725 12976 20273 183 238 221 236.26220703125 483.14999389648 98724.996704102 45129803.201134
24457	1950645 7701 12976 20273 183 238 221 166.54217529297 483.14999389648 89672.561553955 38540723.863486
24489	1958346 5835 14471 20403 194.25 239 180 0.973 12.099024792222 558.2196045128 3147.3000270459
24488	1964181 5799 14471 20403 194.25 239 180 -2.1541862487793 2.5 41.057416915894 314.06474822689
24487	1969980 6056 14431 20403 194 239 181 3.3423306941986 16.27499961853 2190.2948105335 30012.121496647
24486	1976036 6360 14392 20403 193.75 239 182 486.85000610352 734.48489379883 96555.217575073 52183226.322879
24485	1982396 6353 14392 20403 193.75 239 182 486.78430175781 785.82187652588 103149.7962265 60219017.69759
vector 24646  IntersectionExampleScenario.node[88].veinsmobility  posx  ETV
vector 24647  IntersectionExampleScenario.node[88].veinsmobility  posy  ETV
vector 24648  IntersectionExampleScenario.node[88].veinsmobility  speed  ETV
vector 24649  IntersectionExampleScenario.node[88].veinsmobility  acceleration  ETV
vector 24650  IntersectionExampleScenario.node[88].veinsmobility  co2emission  ETV
24531	1989150 5054 15812 20653 202.75 241 154 0.973 11.648172402475 514.98197503852 3186.5822253183
24530	1994204 4842 15812 20653 202.75 241 154 -3.2771492004395 2.5 38.171613693237 282.7944251347
24529	1999046 5196 15777 20653 202.5 241 155 5.6500000953674 15.64999961853 2101.2414703369 29175.672803141
24528	2004242 5460 15740 20653 202.25 241 156 486.85000610352 486.85000610352 75948.600952148 36975576.837107
24527	2009702 5432 15740 20653 202.25 241 156 237.68438720703 757.99687957764 79741.704956055 44340227.563625
vector 24653  IntersectionExampleScenario.node[89].veinsmobility  posx  ETV
vector 24654  IntersectionExampleScenario.node[89].veinsmobility  posy  ETV
24482	2015288 6300 14281 20715 193 241.5 195 0.973 11.648172402475 570.79087678891 3014.7197872181
24481	2021588 6494 14281 20715 193 241.5 195 -4.5 2.5 38.171613693237 370.54717737999
24480	2028082 6830 14244 20715 192.75 241.5 196 3.2589814662933 15.64999961853 2209.9452736378 28506.302503005
24479	2034912 6889 14207 20715 192.5 241.5 197 483.14999389648 733.53019714355 103682.66900635 55613638.028808
24478	2041801 6868 14207 20715 192.5 241.5 197 184.17810058594 486.90844726562 79914.292144775 34268970.845295
vector 24655  IntersectionExampleScenario.node[89].veinsmobility  speed  ETV
vector 24656  IntersectionExampleScenario.node[89].veinsmobility  acceleration  ETV
vector 24657  IntersectionExampleScenario.node[89].veinsmobility  co2emission  ETV
24510	2048916 6284 14717 20873 195.75 242.75 189 0.973 11.648172402475 566.61556257057 2869.4299897131
24509	2055200 6682 14717 20873 195.75 242.75 189 -4.5 2.5 40.752500534058 329.61338493231
24508	2061882 6619 14674 20873 195.5 242.75 190 3.9657745361328 15.943875312805 2267.4162530899 30374.239656665
24507	2068501 6677 14631 20873 195.25 242.75 191 483.14999389648 733.98728942871 100629.18096924 54046361.055543
24506	2075178 6659 14631 20873 195.25 242.75 191 169.95465087891 486.88629150391 76039.263183594 32292620.617526
24517	2081837 5587 15663 20966 201.75 243.5 168 0.973 11.450879080643 536.28697883195 2865.1662217031
24516	2087424 5348 15663 20966 201.75 243.5 168 -4.5 2.5 38.680875778198 287.36442250925
24515	2092772 5640 15626 20966 201.5 243.5 169 5.6500000953674 15.480606079102 2209.5709786415 30126.99785002
24514	2098412 5950 15589 20966 201.25 243.5 170 236.32489013672 486.85000610352 74362.044952393 33514095.632706
24513	2104362 5939 15589 20966 201.25 243.5 170 483.14999389648 785.82187652588 97931.949821472 58340909.624804
24545	2110301 4752 16494 21058 208 244.25 146 0.88938306007307 12.908821332201 569.56365074345 4185.8982066249
24544	2115053 4707 16494 21058 208 244.25 146 -3.3915176391602 2.5 44.452489852905 306.55734542449
24543	2119760 4869 16461 21058 207.75 244.25 147 5.6500000953674 17.38542175293 2223.2512102127 34600.785102145
24542	2124629 5180 16428 21058 207.5 244.25 148 483.14999389648 483.14999389648 71506.19909668 34548219.657121
24541	2129809 5150 16428 21058 207.5 244.25 148 184.17810058594 734.69216918945 66040.629562378 33381967.492263
vector 24660  IntersectionExampleScenario.node[90].veinsmobility  posx  ETV
vector 24661  IntersectionExampleScenario.node[90].veinsmobility  posy  ETV
vector 24662  IntersectionExampleScenario.node[90].veinsmobility  speed  ETV
24524	2135191 5878 15740 21229 202.25 245.75 175 0.973 11.36141391502 527.51552099034 2673.1427227014
24523	2141069 5693 15740 21229 202.25 245.75 175 -4.5 2.5 38.850629806519 253.71205107032
24522	2146762 5860 15702 21229 202 245.75 176 5.6500000953674 15.634386062622 2284.6134266853 31159.085719425
24521	2152622 6192 15663 21229 201.75 245.75 177 486.85000610352 734.56411743164 94385.829727173 51302485.078397
24520	2158814 6189 15663 21229 201.75 245.75 177 486.85000610352 809.56562805176 103584.329216 62885904.08548
vector 24663  IntersectionExampleScenario.node[90].veinsmobility  acceleration  ETV
vector 24664  IntersectionExampleScenario.node[90].veinsmobility  co2emission  ETV
vector 24667  IntersectionExampleScenario.node[91].veinsmobility  posx  ETV
vector 24668  IntersectionExampleScenario.node[91].veinsmobility  posy  ETV
vector 24669  IntersectionExampleScenario.node[91].veinsmobility  speed  ETV
vector 24670  IntersectionExampleScenario.node[91].veinsmobility  acceleration  ETV
vector 24671  IntersectionExampleScenario.node[91].veinsmobility  co2emission  ETV
vector 24674  IntersectionExampleScenario.node[92].veinsmobility  posx  ETV
vector 24675  IntersectionExampleScenario.node[92].veinsmobility  posy  ETV
vector 24676  IntersectionExampleScenario.node[92].veinsmobility  speed  ETV
vector 24677  IntersectionExampleScenario.node[92].veinsmobility  acceleration  ETV
vector 24678  IntersectionExampleScenario.node[92].veinsmobility  co2emission  ETV
24496	2165974 7503 14510 22114 194.5 254 239 0.973 11.90022389248 642.86963764652 3294.6945648829
24495	2173477 6587 14510 22114 194.5 254 239 -43.025596618652 4 39.869146347046 2208.9146114342
24494	2180064 7043 14471 22114 194.25 254 240 0 16 2285.6705217361 33793.39922605
24493	2187107 8411 14431 22114 194 254 241 166.59918212891 735.07762145996 108707.26528931 53590467.20039
24492	2195518 8433 14431 22114 194 254 241 486.85000610352 486.85000610352 117330.85147095 57122525.754761
24538	2203951 6224 16397 22164 207.25 254.5 190 0.973 11.450879080643 550.8776646053 2814.7673726909
24537	2210175 6104 16397 22164 207.25 254.5 190 -7.5557622909546 4 36.813589096069 482.77127106281
24536	2216279 6123 16366 22164 207 254.5 191 0 15.375 2206.0319237709 30684.927410765
24535	2222402 6695 16334 22164 206.75 254.5 192 237.89031982422 785.82187652588 99383.306083679 55649706.399208
24534	2229097 6720 16334 22164 206.75 254.5 192 483.14999389648 483.14999389648 92764.798828125 44819311.987617
24503	2235817 8046 14631 22264 195.25 255.5 242 0.973 11.450879080643 628.58596594643 2945.6332311666
24502	2243863 8086 14631 22264 195.25 255.5 242 -4.5 2.5 38.341367721558 429.66072441321
24501	2251949 8099 14590 22264 195 255.5 243 0 15.446123123169 2327.5867211744 32303.481045522
24500	2260048 8508 14549 22264 194.75 255.5 244 152.39019775391 486.86486816406 99528.122802734 43289630.407551
24499	2268556 8524 14549 22264 194.75 255.5 244 238.46728515625 486.85000610352 110491.97625732 51125924.564017
vector 24681  IntersectionExampleScenario.node[93].veinsmobility  posx  ETV
vector 24682  IntersectionExampleScenario.node[93].veinsmobility  posy  ETV
vector 24683  IntersectionExampleScenario.node[93].veinsmobility  speed  ETV
vector 24684  IntersectionExampleScenario.node[93].veinsmobility  acceleration  ETV
vector 24685  IntersectionExampleScenario.node[93].veinsmobility  co2emission  ETV
24559	2277481 6268 17006 22564 211.75 258.5 188 0.973 11.36141391502 567.45258398587 2872.6273883171
24558	2283749 5810 17006 22564 211.75 258.5 188 -22.450763702393 4 38.511121749878 1016.436043976
24557	2289559 6334 16971 22564 211.5 258.5 189 0 15.321217536926 2083.7143889535 28672.564592499
24556	2295893 6629 16936 22564 211.25 258.5 190 486.59878540039 761.71875762939 104979.58542633 59507694.621349
24555	2302522 6634 16936 22564 211.25 258.5 190 235.82330322266 483.14999389648 83564.416900635 37748947.088967
vector 24688  IntersectionExampleScenario.node[94].veinsmobility  posx  ETV
vector 24689  IntersectionExampleScenario.node[94].veinsmobility  posy  ETV
vector 24695  IntersectionExampleScenario.node[95].veinsmobility  posx  ETV
vector 24696  IntersectionExampleScenario.node[95].veinsmobility  posy  ETV
vector 24690  IntersectionExampleScenario.node[94].veinsmobility  speed  ETV
vector 24691  IntersectionExampleScenario.node[94].veinsmobility  acceleration  ETV
vector 24692  IntersectionExampleScenario.node[94].veinsmobility  co2emission  ETV
vector 24697  IntersectionExampleScenario.node[95].veinsmobility  speed  ETV
24552	2309789 6669 16729 22707 209.75 260.25 203 0.973 11.810082123732 634.89710495766 3301.3023488714
24551	2316458 6593 16729 22707 209.75 260.25 203 -4.5 2.5 41.057416915894 568.76352904302
24550	2323051 6903 16694 22707 209.5 260.25 204 1.2240855693817 15.964495658875 2244.9718440771 30491.918183739
24549	2329954 7151 16659 22707 209.25 260.25 205 486.78909301758 801.41563415527 117189.60462952 69268783.542777
24548	2337105 7172 16659 22707 209.25 260.25 205 236.30419921875 483.14999389648 91152.238189697 41519552.372373
vector 24698  IntersectionExampleScenario.node[95].veinsmobility  acceleration  ETV
vector 24699  IntersectionExampleScenario.node[95].veinsmobility  co2emission  ETV
24573	2344446 5116 18433 22730 223 260.5 151 0.973 11.990504229548 482.29104210865 2622.1888746982
24572	2349562 4502 18433 22730 223 260.5 151 -3.7816619873047 2.5 40.038900375366 207.77284938036
[...]
vector 28780  IntersectionExampleScenario.node[678].veinsmobility  co2emission  ETV
28675	21643140 5532 170727 175390 1747.25 1785.25 153 0.97223939240464 11.648172402475 471.97184688762 2517.335638339
28674	21648672 5357 170727 175390 1747.25 1785.25 153 -3.1368217468262 2.5 38.680875778198 192.0809334681
28673	21654029 5469 170698 175390 1747 1785.25 154 5.6500000953674 15.64999961853 2209.6237287521 32362.152314427
28672	21659498 5724 170669 175390 1746.75 1785.25 155 238.54803466797 785.82187652588 80963.680793762 46376351.700733
28671	21665222 5735 170669 175390 1746.75 1785.25 155 483.14999389648 483.14999389648 74888.249053955 36182257.073337
vector 28783  IntersectionExampleScenario.node[679].veinsmobility  posx  ETV
vector 28784  IntersectionExampleScenario.node[679].veinsmobility  posy  ETV
vector 28785  IntersectionExampleScenario.node[679].veinsmobility  speed  ETV
vector 28786  IntersectionExampleScenario.node[679].veinsmobility  acceleration  ETV
vector 28787  IntersectionExampleScenario.node[679].veinsmobility  co2emission  ETV
vector 28790  IntersectionExampleScenario.node[680].veinsmobility  posx  ETV
vector 28791  IntersectionExampleScenario.node[680].veinsmobility  posy  ETV
vector 28792  IntersectionExampleScenario.node[680].veinsmobility  speed  ETV
vector 28793  IntersectionExampleScenario.node[680].veinsmobility  acceleration  ETV
vector 28794  IntersectionExampleScenario.node[680].veinsmobility  co2emission  ETV
28682	21671769 5957 170789 175747 1747.75 1788.5 164 0.973 11.54047740176 485.67021317687 2382.117477265
28681	21677726 5643 170789 175747 1747.75 1788.5 164 -4.5 2.5 37.492597579956 198.59230851595
28680	21683369 5879 170758 175747 1747.5 1788.5 165 5.6500000953674 15.5 2314.4590930939 33089.67688389
28679	21689248 6102 170727 175747 1747.25 1788.5 166 236.34753417969 809.56562805176 88543.860870361 52000815.416684
28678	21695350 6143 170727 175747 1747.25 1788.5 166 483.14999389648 483.14999389648 80202.898986816 38750030.155961
vector 28797  IntersectionExampleScenario.node[681].veinsmobility  posx  ETV
vector 28798  IntersectionExampleScenario.node[681].veinsmobility  posy  ETV
vector 28804  IntersectionExampleScenario.node[682].veinsmobility  posx  ETV
vector 28805  IntersectionExampleScenario.node[682].veinsmobility  posy  ETV
vector 28799  IntersectionExampleScenario.node[681].veinsmobility  speed  ETV
vector 28800  IntersectionExampleScenario.node[681].veinsmobility  acceleration  ETV
vector 28801  IntersectionExampleScenario.node[681].veinsmobility  co2emission  ETV
vector 28806  IntersectionExampleScenario.node[682].veinsmobility  speed  ETV
vector 28807  IntersectionExampleScenario.node[682].veinsmobility  acceleration  ETV
vector 28808  IntersectionExampleScenario.node[682].veinsmobility  co2emission  ETV
28696	21702305 5461 171616 176100 1754 1791.5 151 0.973 11.990504229548 479.97191342524 2613.7218177773
28695	21707766 4947 171616 176100 1754 1791.5 151 -3.2447547912598 2.5 39.869146347046 201.41922718971
28694	21712713 5371 171581 176100 1753.75 1791.5 152 5.6500000953674 16.125 2212.2037334442 32921.068151754
28693	21718084 5608 171546 176100 1753.5 1791.5 153 184.17810058594 731.93894958496 68437.339279175 34655173.1069
28692	21723692 5661 171546 176100 1753.5 1791.5 153 486.85000610352 486.85000610352 74488.050933838 36264508.051778
28647	21729353 7164 170109 176410 1741.25 1794 212 0.973 11.648172402475 589.20287405397 2967.6466474902
28646	21736517 6520 170109 176410 1741.25 1794 212 -8.1522026062012 4 39.529638290405 484.58676931908
28645	21743037 6897 170088 176410 1741 1794 213 0 15.64999961853 2176.9476463795 31047.316425053
28644	21749934 7846 170067 176410 1740.75 1794 214 237.08636474609 483.14999389648 95365.760498047 43508630.510248
28643	21757780 7898 170067 176410 1740.75 1794 214 184.17810058594 483.36395263672 89048.667999268 39003016.600507
28633	21765678 7535 169883 176529 1738.5 1795 227 0.973 12.099024792222 618.72093212754 3243.2209481173
28632	21773213 6970 169883 176529 1738.5 1795 227 -8.5871305465698 4 41.057416915894 526.16632166958
28631	21780183 7356 169862 176529 1738.25 1795 228 0 16.27499961853 2180.1589119434 31793.779983753
28630	21787539 8461 169841 176529 1738 1795 229 486.85000610352 734.01123046875 119405.49078369 63284934.328013
28629	21796000 8460 169841 176529 1738 1795 229 486.59307861328 785.82187652588 125811.25176239 71097959.790041
vector 28811  IntersectionExampleScenario.node[683].veinsmobility  posx  ETV
vector 28812  IntersectionExampleScenario.node[683].veinsmobility  posy  ETV
vector 28813  IntersectionExampleScenario.node[683].veinsmobility  speed  ETV
vector 28814  IntersectionExampleScenario.node[683].veinsmobility  acceleration  ETV
vector 28815  IntersectionExampleScenario.node[683].veinsmobility  co2emission  ETV
vector 28818  IntersectionExampleScenario.node[684].veinsmobility  posx  ETV
vector 28819  IntersectionExampleScenario.node[684].veinsmobility  posy  ETV
vector 28820  IntersectionExampleScenario.node[684].veinsmobility  speed  ETV
28640	21805101 8146 169926 176715 1739 1796.5 231 0.973 11.54047740176 613.3462405102 2942.5438217309
28639	21813247 7933 169926 176715 1739 1796.5 231 -4.5 2.5 38.511121749878 434.07311761139
28638	21821180 8186 169905 176715 1738.75 1796.5 232 0 15.5 2308.5167137207 32190.032066626
28637	21829366 8621 169883 176715 1738.5 1796.5 233 486.85000610352 486.85000610352 113436.05142212 55226342.327217
28636	21837987 8604 169883 176715 1738.5 1796.5 233 237.02471923828 809.56562805176 122594.86243439 69262851.483496
vector 28821  IntersectionExampleScenario.node[684].veinsmobility  acceleration  ETV
vector 28822  IntersectionExampleScenario.node[684].veinsmobility  co2emission  ETV
28661	21846762 7816 170201 176814 1742.25 1797.25 221 0.973 11.36141391502 578.90134718201 2736.1656939546
28660	21854578 7742 170201 176814 1742.25 1797.25 221 -4.5 2.5 35.964826583862 406.52774997418
28659	21862320 7921 170176 176814 1742 1797.25 222 0 15.25 2272.9586841688 30522.808374572
28658	21870241 8247 170151 176814 1741.75 1797.25 223 236.32318115234 483.14999389648 99213.484863281 45215351.368197
28657	21878488 8204 170151 176814 1741.75 1797.25 223 162.00311279297 483.14999389648 90524.494232178 39099580.908707
vector 28825  IntersectionExampleScenario.node[685].veinsmobility  posx  ETV
vector 28826  IntersectionExampleScenario.node[685].veinsmobility  posy  ETV
vector 28832  IntersectionExampleScenario.node[686].veinsmobility  posx  ETV
vector 28833  IntersectionExampleScenario.node[686].veinsmobility  posy  ETV
vector 28827  IntersectionExampleScenario.node[685].veinsmobility  speed  ETV
vector 28828  IntersectionExampleScenario.node[685].veinsmobility  acceleration  ETV
vector 28829  IntersectionExampleScenario.node[685].veinsmobility  co2emission  ETV
vector 28834  IntersectionExampleScenario.node[686].veinsmobility  speed  ETV
vector 28839  IntersectionExampleScenario.node[687].veinsmobility  posx  ETV
vector 28840  IntersectionExampleScenario.node[687].veinsmobility  posy  ETV
vector 28835  IntersectionExampleScenario.node[686].veinsmobility  acceleration  ETV
vector 28836  IntersectionExampleScenario.node[686].veinsmobility  co2emission  ETV
vector 28841  IntersectionExampleScenario.node[687].veinsmobility  speed  ETV
vector 28842  IntersectionExampleScenario.node[687].veinsmobility  acceleration  ETV
vector 28843  IntersectionExampleScenario.node[687].veinsmobility  co2emission  ETV
28668	21887910 7541 170480 177139 1745 1799.75 220 0.973 11.200708441096 567.99332328246 2696.7981197494
28667	21895451 7770 170480 177139 1745 1799.75 220 -3.7397310733795 2.5 35.964826583862 326.20194115149
28666	21903221 7875 170453 177139 1744.75 1799.75 221 0 15.106519699097 2285.8332825676 29371.134877296
28665	21911096 8212 170426 177139 1744.5 1799.75 222 236.34777832031 483.14999389648 98727.646881104 44979116.032147
28664	21919308 8180 170426 177139 1744.5 1799.75 222 158.8671875 483.16854858398 89024.734649658 38033344.469619
28689	21927488 7271 170886 177173 1748.5 1800 207 0.973 11.54047740176 578.51188801248 2849.9966639101
28688	21934759 7202 170886 177173 1748.5 1800 207 -4.5 2.5000009536743 38.171613693237 398.49644026802
28687	21941961 7482 170853 177173 1748.25 1800 208 0 15.5 2256.8635237068 30021.22913183
28686	21949443 7731 170820 177173 1748 1800 209 483.14999389648 483.14999389648 100978.34872437 48787688.569854
28685	21957174 7701 170820 177173 1748 1800 209 161.87890625 720.96992492676 90640.017166138 43707570.98973
28703	21964875 5802 171760 177173 1755 1800 181 0.973 11.200708441096 450.27602826256 2158.5480698859
28702	21970677 5358 171760 177173 1755 1800 181 -19.913524627686 4 28.39999961853 781.82998109298
28701	21976035 5408 171723 177173 1754.75 1800 182 0 15.304773330688 1312.4985170364 17740.283640001
28700	21981443 6761 171686 177173 1754.5 1800 183 486.63604736328 785.82187652588 103840.52309418 60675860.306564
28699	21988204 6729 171686 177173 1754.5 1800 183 452.2109375 483.14999389648 88190.970367432 42504932.971639
28710	21994933 5598 172261 177173 1758.5 1800 167 0.973 10.492249747153 420.88619119303 1886.7368826724
28709	22000531 5441 172261 177173 1758.5 1800 167 -4.5 2.5 13.39999961853 499.87668300689
28708	22005972 5560 172224 177173 1758.25 1800 168 0 15.263325691223 1251.3470219551 15450.22926859
28707	22011532 6230 172187 177173 1758 1800 169 184.17810058594 483.14999389648 64506.948974609 26396882.238661
28706	22017762 6250 172187 177173 1758 1800 169 486.85000610352 502.41543579102 82356.615386963 40134575.875708
28717	22024012 5455 172511 177173 1760.25 1800 160 0.973 9.1679408566752 356.51599990706 1402.8706413133
28716	22029467 5910 172511 177173 1760.25 1800 160 -4.5 2.5 5.3999996185303 296.36797485144
28715	22035377 5846 172474 177173 1760 1800 161 0 15.304203033447 1253.2991911303 15453.878112292
28714	22041223 5968 172437 177173 1759.75 1800 162 164.94219970703 476.0068359375 59563.656341553 23675692.290342
28713	22047191 5993 172437 177173 1759.75 1800 162 486.85000610352 487.67459106445 78870.941345215 38398922.944243
28724	22053184 5083 172589 177173 1760.75 1800 158 0.973 11.450879080643 465.48857840353 2762.8378197097
28723	22058267 4706 172589 177173 1760.75 1800 158 -7.0782413482666 4 38.89999961853 493.10039983675
28722	22062973 4856 172550 177173 1760.5 1800 159 0 15.375 1208.574048996 15730.592327267
28721	22067829 5908 172511 177173 1760.25 1800 160 217.29217529297 516.24063110352 65447.917053223 28032688.633913
28720	22073737 5920 172511 177173 1760.25 1800 160 486.85000610352 486.85000610352 77896.000976562 37923668.550879
28731	22079657 4691 173501 177173 1767.75 1800 130 0.973 11.54047740176 408.61737734854 2215.1314257698
28730	22084348 4288 173501 177173 1767.75 1800 130 -3.3398857116699 2.5 37.153402328491 186.64487886883
28729	22088636 4610 173472 177173 1767.5 1800 131 5.6500000953674 15.5 1825.2605066299 25981.582238641
28728	22093246 4884 173442 177173 1767.25 1800 132 483.14999389648 483.14999389648 63775.799194336 30813276.991487
28727	22098130 4852 173442 177173 1767.25 1800 132 184.17810058594 635.3897857666 53029.204467773 23714117.807855
28738	22102982 4289 173844 177173 1770.75 1800 118 0.973 10.756497587458 355.12442684032 1785.1073562288
28737	22107271 3806 173844 177173 1770.75 1800 118 -3.6567459106445 2.5 34.268285751343 159.25467139663
28736	22111077 4185 173815 177173 1770.5 1800 119 5.6500000953674 14.39999961853 1580.5878658295 21404.873662416
28735	22115262 4440 173786 177173 1770.25 1800 120 486.85000610352 486.85000610352 58422.000732422 28442751.413159
28734	22119702 4431 173786 177173 1770.25 1800 120 395.50219726562 785.82187652588 71579.307479858 44368057.06672
28745	22124133 3793 173964 177173 1771.75 1800 114 0.973 12.099024792222 313.11254797463 1705.5590330156
28744	22127926 3990 173964 177173 1771.75 1800 114 -2.1759452819824 2.5 5.3999996185303 218.7742037216
28743	22131916 4093 173933 177173 1771.5 1800 115 3.3420231342316 16.27499961853 1220.8160290718 15305.584007125
28742	22136009 4279 173902 177173 1771.25 1800 116 486.89025878906 785.82187652588 70992.951438904 44546848.451417
28741	22140288 4291 173902 177173 1771.25 1800 116 474.96118164062 483.14999389648 56016.886657715 27050937.866644
28752	22144579 2749 174957 177173 1781 1800 77 0.973 11.200708441096 255.07355446204 1459.2214916972
28751	22147328 2703 174957 177173 1781 1800 77 -3.1184921264648 2.5 25.917558670044 141.4885001672
28750	22150031 2870 174934 177173 1780.75 1800 78 5.6500000953674 15.200744628906 1065.7754878998 14928.636104157
28749	22152901 2922 174910 177173 1780.5 1800 79 486.85000610352 486.85000610352 38461.150482178 18724811.346996
28748	22155823 2915 174910 177173 1780.5 1800 79 523.30020141602 785.82187652588 52426.249946594 35308859.761653
28759	22158738 2808 174957 177173 1781 1800 77 0.973 10.756497587458 234.69844319911 1173.2384430519
28758	22161546 2574 174957 177173 1781 1800 77 -2.7378005981445 2.5 29.28367805481 97.274444017636
28757	22164120 2870 174934 177173 1780.75 1800 78 5.6500000953674 14.39999961853 1042.0406827927 14238.837468549
28756	22166990 2922 174910 177173 1780.5 1800 79 483.14999389648 483.14999389648 38168.849517822 18441279.411572
28755	22169912 2893 174910 177173 1780.5 1800 79 184.17810058594 440.32174682617 23987.273132324 7773383.4011951
28766	22172805 2761 175007 177173 1781.5 1800 75 0.973 11.03740266928 254.56785486417 1362.6418780477
28765	22175566 2488 175007 177173 1781.5 1800 75 -4.5 2.5 34.011121749878 113.54899273432
28764	22178054 2807 174982 177173 1781.25 1800 76 5.6500000953674 15.359389305115 1069.1808376312 15516.785997084
28763	22180861 2847 174957 177173 1781 1800 77 486.85000610352 486.85000610352 37487.450469971 18250765.49011
28762	22183708 2836 174957 177173 1781 1800 77 547.09158325195 809.56562805176 53107.497024536 37136869.166973
28773	22186544 2566 175086 177173 1782.25 1800 72 0.973 12.099024792222 317.29978529931 2382.9858366515
28772	22189110 2428 175086 177173 1782.25 1800 72 -2.7340126037598 2.5000038146973 41.768606185913 185.20093530431
28771	22191538 2679 175059 177173 1782 1800 73 5.6500000953674 16.27499961853 1044.019370079 15436.807691487
28770	22194217 2715 175032 177173 1781.75 1800 74 184.17810058594 439.64514160156 22406.665313721 7252153.6928597
28769	22196932 2737 175032 177173 1781.75 1800 74 486.85000610352 486.85000610352 36026.90045166 17539696.704781
28780	22199669 2160 175390 177173 1785.25 1800 60 0.973 10.947002683434 236.33344425928 1478.1089324878
28779	22201829 2157 175390 177173 1785.25 1800 60 -4.5 2.5 38.34189414978 157.19676721108
28778	22203986 2250 175365 177173 1785 1800 61 5.6500000953674 15.656383514404 755.7153711319 10000.076929868
28777	22206236 2293 175339 177173 1784.75 1800 62 486.85000610352 486.85000610352 30184.700378418 14695421.563466
28776	22208529 2283 175339 177173 1784.75 1800 62 622.3759765625 806.50472259521 45160.163948059 33090407.820819
28787	22210812 2064 175494 177173 1786.25 1800 56 1.9968774366509 10.756497587458 219.49175199247 1215.9362066358
28786	22212876 2025 175494 177173 1786.25 1800 56 -0.056877136230469 2.5 39.529802322388 88.839894782945
28785	22214901 2094 175467 177173 1786 1800 57 5.6500000953674 15.589285850525 794.53858375549 11501.086742561
28784	22216995 2145 175440 177173 1785.75 1800 58 483.14999389648 483.14999389648 28022.699645996 13539167.162926
28783	22219140 2128 175440 177173 1785.75 1800 58 184.17810058594 377.65222167969 15687.903259277 4454570.5127135
28794	22221268 1842 175660 177173 1787.75 1800 50 2.0947737808434 11.648172402475 209.08759339071 1353.6030254756
28793	22223110 1775 175660 177173 1787.75 1800 50 -0.03271484375 2.5 39.869146347046 100.00243678713
28792	22224885 1873 175631 177173 1787.5 1800 51 5.6500000953674 15.64999961853 712.13581943512 10383.210022908
28791	22226758 1924 175602 177173 1787.25 1800 52 486.85000610352 486.85000610352 25316.200317383 12325192.279036
28790	22228682 1917 175602 177173 1787.25 1800 52 588.63891601562 761.75705718994 35626.657722473 24562634.178785
28801	22230599 1360 176038 177173 1791 1800 37 1.2918632710966 11.648172402475 176.68956187134 1275.8489161136
28800	22231959 1254 176038 177173 1791 1800 37 -0.24490737915039 2.5 39.022703170776 100.13708582326
28799	22233213 1394 176007 177173 1790.75 1800 38 5.6500000953674 15.64999961853 505.28992271423 7093.8722735927
28798	22234607 1442 175978 177173 1790.5 1800 39 486.85000610352 486.85000610352 18987.150238037 9243894.2092767
28797	22236049 1442 175978 177173 1790.5 1800 39 676.36497497559 797.53095245361 29081.069206238 21742211.115298
28808	22237491 1329 176069 177173 1791.25 1800 36 1.6707323430481 11.648172402475 176.60451514499 1279.1175752683
28807	22238820 1216 176069 177173 1791.25 1800 36 -0.14390563964844 2.5 39.483255386353 100.05270485995
28806	22240036 1355 176038 177173 1791 1800 37 5.6500000953674 15.64999961853 493.29362106323 6962.377438928
28805	22241391 1405 176007 177173 1790.75 1800 38 483.14999389648 483.14999389648 18359.699768066 8870488.8308826
28804	22242796 1388 176007 177173 1790.75 1800 38 184.17810058594 302.30334472656 8907.3958129883 2141061.8778747
28815	22244184 652 176620 177173 1795.75 1800 18 0.973 11.200708441096 126.02795804822 1057.1604250067
28814	22244836 503 176620 177173 1795.75 1800 18 -0.38379669189453 2.5 36.612470626831 94.026751863395
28813	22245339 693 176589 177173 1795.5 1800 19 5.6500000953674 15.02499961853 209.98925304413 2505.3768361485
28812	22246032 723 176558 177173 1795.25 1800 20 184.17810058594 231.73669433594 4062.6901855469 829749.64565431
28811	22246755 740 176558 177173 1795.25 1800 20 486.85000610352 486.85000610352 9737.0001220703 4740458.5688599
28822	22247495 475 176748 177173 1796.75 1800 14 0.973 7.726741696285 54.051048228731 309.49916466483
28821	22247970 402 176748 177173 1796.75 1800 14 -4.5 2.5 4.0212440490723 104.65803227063
28820	22248372 553 176715 177173 1796.5 1800 15 5.6500000953674 10.02499961853 112.4986410141 866.91893248267
28819	22248925 592 176682 177173 1796.25 1800 16 486.85000610352 486.85000610352 7789.6000976562 3792366.8550879
28818	22249517 592 176682 177173 1796.25 1800 16 759.55718231201 785.82187652588 12379.919891357 9580157.9974235
28829	22250109 221 177006 177173 1798.75 1800 6 1.9254327558176 5.8221152969482 24.288590439856 114.2547775199
28828	22250330 198 177006 177173 1798.75 1800 6 0.2289924621582 2.5 9.0296955108643 19.36755210254
28827	22250528 258 176973 177173 1798.5 1800 7 5.6500000953674 7.9074239730835 48.832776069641 344.64465826279
28826	22250786 296 176941 177173 1798.25 1800 8 486.85000610352 486.85000610352 3894.8000488281 1896183.4275439
28825	22251082 296 176941 177173 1798.25 1800 8 794.04369354248 803.92188262939 6398.6739349365 5117974.4712537
28836	22251378 183 177039 177173 1799 1800 5 5.2162187258585 6.8826618500064 30.239051553249 184.61558649684
28835	22251561 135 177039 177173 1799 1800 5 2.4999980926514 2.5 12.499998092651 31.24999046326
28834	22251696 221 177006 177173 1798.75 1800 6 5.6500000953674 8.7749996185303 43.27499961853 318.95686711311
28833	22251917 258 176973 177173 1798.5 1800 7 486.85000610352 486.85000610352 3407.9500427246 1659160.499101
28832	22252175 258 176973 177173 1798.5 1800 7 744.47344207764 752.70781707764 5245.8141021729 3931284.0974159
28843	22252433 110 177106 177173 1799.5 1800 3 5.2162187258585 6.0461819274774 16.892854010144 95.467258699338
28842	22252543 74 177106 177173 1799.5 1800 3 2.5 2.5 7.5 18.75
28841	22252617 148 177073 177173 1799.25 1800 4 5.6500000953674 7.5250000953674 26.35000038147 175.53375502586
28840	22252765 183 177039 177173 1799 1800 5 781.35000610352 785.82187652588 3920.4781417847 3074044.631164
28839	22252948 183 177039 177173 1799 1800 5 483.14999389648 483.14999389648 2415.7499694824 1167169.5830109
24026	22253131 636 0 177172 0 1800 31 0 24 548 10484
24027	22253767 650 0 177172 0 1800 31 0 189 2852 360100
