version 2
run nodebug-11-20200606-21:35:33-21964
attr configname nodebug
attr datetime 20200606-21:35:33
attr experiment nodebug
attr inifile omnetpp.ini
attr iterationvars ""
attr iterationvars2 $repetition=11
attr measurement ""
attr network "\"org.car2x.veins.modules.application.ExtTraCIScenarioManagerLaunchd.IntersectionExampleScenario\""
attr processid 21964
attr repetition 11
attr replication #11
attr resultdir results
attr runnumber 11
attr seedset 11
param **.coreDebug false
param **.debug false
param *.**.nic.mac1609_4.bitrate 18Mbps
param *.**.nic.mac1609_4.txPower 20mW
param *.**.nic.mac1609_4.useServiceChannel false
param *.**.nic.phy80211p.analogueModels "xmldoc(\"config.xml\")"
param *.**.nic.phy80211p.decider "xmldoc(\"config.xml\")"
param *.**.nic.phy80211p.sensitivity -89dBm
param *.**.nic.phy80211p.thermalNoise -110dBm
param *.**.nic.phy80211p.usePropagationDelay true
param *.**.nic.phy80211p.useThermalNoise true
param *.annotations.draw false
param *.connectionManager.alpha 2.0
param *.connectionManager.carrierFrequency "5.890e9 Hz"
param *.connectionManager.pMax 20mW
param *.connectionManager.sat -89dBm
param *.connectionManager.sendDirect true
param *.manager.autoShutdown true
param *.manager.host "\"localhost\""
param *.manager.launchConfig "xmldoc(\"paramics.launchd.xml\")"
param *.manager.margin 25
param *.manager.moduleDisplayString "\"\""
param *.manager.moduleName "\"node\""
param *.manager.moduleType "\"org.car2x.veins.nodes.Car\""
param *.manager.port 9999
param *.manager.updateInterval 250ms
param *.node[*0].veinsmobility.accidentCount 0
param *.node[*0].veinsmobility.accidentDuration 30s
param *.node[*0].veinsmobility.accidentStart 75s
param *.node[*].appl.LiderSelectZoneRadio 55.0
param *.node[*].appl.ShareDataZoneRadio 110.0
param *.node[*].appl.TiempoSemaforo 30.0
param *.node[*].appl.beaconInterval 1s
param *.node[*].appl.beaconPriority 3
param *.node[*].appl.dataOnSch false
param *.node[*].appl.dataPriority 2
param *.node[*].appl.debug false
param *.node[*].appl.headerLength "256 bit"
param *.node[*].appl.maxOffset 0.005s
param *.node[*].appl.sendBeacons false
param *.node[*].appl.sendData true
param *.node[*].applType "\"Dummy\""
param *.node[*].mobilityType "\"TraCIMobility\""
param *.node[*].mobilityType.debug true
param *.node[*].veinsmobility.x 0
param *.node[*].veinsmobility.y 0
param *.node[*].veinsmobility.z 1.895
param *.node[*].veinsmobilityType "\"org.car2x.veins.modules.mobility.traci.TraCIMobility\""
param *.node[*].veinsmobilityType.debug true
param *.playgroundSizeX 8500m
param *.playgroundSizeY 8500m
param *.playgroundSizeZ 50m
param *.world.use2D false
param *.world.useTorus false

scalar IntersectionExampleScenario.node[1].appl 	VehicleRemoved 	0
scalar IntersectionExampleScenario.node[1].appl 	ArrivedAtDest 	1
scalar IntersectionExampleScenario.node[1].appl 	IntersectionEnterTime 	1.5
scalar IntersectionExampleScenario.node[1].appl 	IntersectionExitTime 	24.810921450611
scalar IntersectionExampleScenario.node[1].appl 	NumberOfCollisions 	0
scalar IntersectionExampleScenario.node[1].nic.phy80211p 	busyTime 	0
scalar IntersectionExampleScenario.node[1].nic.mac1609_4 	ReceivedUnicastPackets 	0
scalar IntersectionExampleScenario.node[1].nic.mac1609_4 	ReceivedBroadcasts 	0
scalar IntersectionExampleScenario.node[1].nic.mac1609_4 	SentPackets 	0
scalar IntersectionExampleScenario.node[1].nic.mac1609_4 	SNIRLostPackets 	0
scalar IntersectionExampleScenario.node[1].nic.mac1609_4 	RXTXLostPackets 	0
scalar IntersectionExampleScenario.node[1].nic.mac1609_4 	TotalLostPackets 	0
scalar IntersectionExampleScenario.node[1].nic.mac1609_4 	DroppedPacketsInMac 	0
scalar IntersectionExampleScenario.node[1].nic.mac1609_4 	TooLittleTime 	0
scalar IntersectionExampleScenario.node[1].nic.mac1609_4 	TimesIntoBackoff 	0
scalar IntersectionExampleScenario.node[1].nic.mac1609_4 	SlotsBackoff 	0
scalar IntersectionExampleScenario.node[1].nic.mac1609_4 	NumInternalContention 	0
scalar IntersectionExampleScenario.node[1].nic.mac1609_4 	totalBusyTime 	0
scalar IntersectionExampleScenario.node[1].veinsmobility 	startTime 	1.5
scalar IntersectionExampleScenario.node[1].veinsmobility 	totalTime 	39.5
scalar IntersectionExampleScenario.node[1].veinsmobility 	stopTime 	41.25
scalar IntersectionExampleScenario.node[1].veinsmobility 	minSpeed 	5.6500000953674
scalar IntersectionExampleScenario.node[1].veinsmobility 	maxSpeed 	15.64999961853
scalar IntersectionExampleScenario.node[1].veinsmobility 	totalDistance 	550.74516096505
scalar IntersectionExampleScenario.node[1].veinsmobility 	totalCO2Emission 	122.88181662431
scalar IntersectionExampleScenario.node[4].appl 	VehicleRemoved 	0
scalar IntersectionExampleScenario.node[4].appl 	ArrivedAtDest 	1
scalar IntersectionExampleScenario.node[4].appl 	IntersectionEnterTime 	15.75
scalar IntersectionExampleScenario.node[4].appl 	IntersectionExitTime 	40.269739038835
scalar IntersectionExampleScenario.node[4].appl 	NumberOfCollisions 	0
scalar IntersectionExampleScenario.node[4].nic.phy80211p 	busyTime 	0
scalar IntersectionExampleScenario.node[4].nic.mac1609_4 	ReceivedUnicastPackets 	0
scalar IntersectionExampleScenario.node[4].nic.mac1609_4 	ReceivedBroadcasts 	0
scalar IntersectionExampleScenario.node[4].nic.mac1609_4 	SentPackets 	0
scalar IntersectionExampleScenario.node[4].nic.mac1609_4 	SNIRLostPackets 	0
scalar IntersectionExampleScenario.node[4].nic.mac1609_4 	RXTXLostPackets 	0
scalar IntersectionExampleScenario.node[4].nic.mac1609_4 	TotalLostPackets 	0
scalar IntersectionExampleScenario.node[4].nic.mac1609_4 	DroppedPacketsInMac 	0
scalar IntersectionExampleScenario.node[4].nic.mac1609_4 	TooLittleTime 	0
scalar IntersectionExampleScenario.node[4].nic.mac1609_4 	TimesIntoBackoff 	0
scalar IntersectionExampleScenario.node[4].nic.mac1609_4 	SlotsBackoff 	0
scalar IntersectionExampleScenario.node[4].nic.mac1609_4 	NumInternalContention 	0
scalar IntersectionExampleScenario.node[4].nic.mac1609_4 	totalBusyTime 	0
scalar IntersectionExampleScenario.node[4].veinsmobility 	startTime 	15.75
scalar IntersectionExampleScenario.node[4].veinsmobility 	totalTime 	42.25
scalar IntersectionExampleScenario.node[4].veinsmobility 	stopTime 	58.25
scalar IntersectionExampleScenario.node[4].veinsmobility 	minSpeed 	5.6500000953674
scalar IntersectionExampleScenario.node[4].veinsmobility 	maxSpeed 	14.625
scalar IntersectionExampleScenario.node[4].veinsmobility 	totalDistance 	545.19325784545
scalar IntersectionExampleScenario.node[4].veinsmobility 	totalCO2Emission 	120.49801881574
scalar IntersectionExampleScenario.node[5].appl 	VehicleRemoved 	0
scalar IntersectionExampleScenario.node[5].appl 	ArrivedAtDest 	1
scalar IntersectionExampleScenario.node[5].appl 	IntersectionEnterTime 	16.5
scalar IntersectionExampleScenario.node[5].appl 	IntersectionExitTime 	43.289849850145
scalar IntersectionExampleScenario.node[5].appl 	NumberOfCollisions 	0
scalar IntersectionExampleScenario.node[5].nic.phy80211p 	busyTime 	0
scalar IntersectionExampleScenario.node[5].nic.mac1609_4 	ReceivedUnicastPackets 	0
scalar IntersectionExampleScenario.node[5].nic.mac1609_4 	ReceivedBroadcasts 	0
scalar IntersectionExampleScenario.node[5].nic.mac1609_4 	SentPackets 	0
scalar IntersectionExampleScenario.node[5].nic.mac1609_4 	SNIRLostPackets 	0
scalar IntersectionExampleScenario.node[5].nic.mac1609_4 	RXTXLostPackets 	0
scalar IntersectionExampleScenario.node[5].nic.mac1609_4 	TotalLostPackets 	0
scalar IntersectionExampleScenario.node[5].nic.mac1609_4 	DroppedPacketsInMac 	0
scalar IntersectionExampleScenario.node[5].nic.mac1609_4 	TooLittleTime 	0
scalar IntersectionExampleScenario.node[5].nic.mac1609_4 	TimesIntoBackoff 	0
scalar IntersectionExampleScenario.node[5].nic.mac1609_4 	SlotsBackoff 	0
scalar IntersectionExampleScenario.node[5].nic.mac1609_4 	NumInternalContention 	0
scalar IntersectionExampleScenario.node[5].nic.mac1609_4 	totalBusyTime 	0
scalar IntersectionExampleScenario.node[5].veinsmobility 	startTime 	16.5
scalar IntersectionExampleScenario.node[5].veinsmobility 	totalTime 	42.25
scalar IntersectionExampleScenario.node[5].veinsmobility 	stopTime 	59
scalar IntersectionExampleScenario.node[5].veinsmobility 	minSpeed 	0
scalar IntersectionExampleScenario.node[5].veinsmobility 	maxSpeed 	16.27499961853
scalar IntersectionExampleScenario.node[5].veinsmobility 	totalDistance 	548.09854997745
scalar IntersectionExampleScenario.node[5].veinsmobility 	totalCO2Emission 	138.72376773782
scalar IntersectionExampleScenario.node[0].appl 	VehicleRemoved 	0
scalar IntersectionExampleScenario.node[0].appl 	ArrivedAtDest 	1
scalar IntersectionExampleScenario.node[0].appl 	IntersectionEnterTime 	0.25
scalar IntersectionExampleScenario.node[0].appl 	IntersectionExitTime 	43.340616740665
scalar IntersectionExampleScenario.node[0].appl 	NumberOfCollisions 	0
scalar IntersectionExampleScenario.node[0].nic.phy80211p 	busyTime 	0
scalar IntersectionExampleScenario.node[0].nic.mac1609_4 	ReceivedUnicastPackets 	0
scalar IntersectionExampleScenario.node[0].nic.mac1609_4 	ReceivedBroadcasts 	0
scalar IntersectionExampleScenario.node[0].nic.mac1609_4 	SentPackets 	0
scalar IntersectionExampleScenario.node[0].nic.mac1609_4 	SNIRLostPackets 	0
scalar IntersectionExampleScenario.node[0].nic.mac1609_4 	RXTXLostPackets 	0
scalar IntersectionExampleScenario.node[0].nic.mac1609_4 	TotalLostPackets 	0
scalar IntersectionExampleScenario.node[0].nic.mac1609_4 	DroppedPacketsInMac 	0
scalar IntersectionExampleScenario.node[0].nic.mac1609_4 	TooLittleTime 	0
scalar IntersectionExampleScenario.node[0].nic.mac1609_4 	TimesIntoBackoff 	0
scalar IntersectionExampleScenario.node[0].nic.mac1609_4 	SlotsBackoff 	0
scalar IntersectionExampleScenario.node[0].nic.mac1609_4 	NumInternalContention 	0
scalar IntersectionExampleScenario.node[0].nic.mac1609_4 	totalBusyTime 	0
scalar IntersectionExampleScenario.node[0].veinsmobility 	startTime 	0.25
scalar IntersectionExampleScenario.node[0].veinsmobility 	totalTime 	59.25
scalar IntersectionExampleScenario.node[0].veinsmobility 	stopTime 	59.75
scalar IntersectionExampleScenario.node[0].veinsmobility 	minSpeed 	0
scalar IntersectionExampleScenario.node[0].veinsmobility 	maxSpeed 	15.64999961853
scalar IntersectionExampleScenario.node[0].veinsmobility 	totalDistance 	552.10218919864
scalar IntersectionExampleScenario.node[0].veinsmobility 	totalCO2Emission 	152.29039483868
scalar IntersectionExampleScenario.node[7].appl 	VehicleRemoved 	0
scalar IntersectionExampleScenario.node[7].appl 	ArrivedAtDest 	1
scalar IntersectionExampleScenario.node[7].appl 	IntersectionEnterTime 	20
scalar IntersectionExampleScenario.node[7].appl 	IntersectionExitTime 	44.105997375184
scalar IntersectionExampleScenario.node[7].appl 	NumberOfCollisions 	0
scalar IntersectionExampleScenario.node[7].nic.phy80211p 	busyTime 	0
scalar IntersectionExampleScenario.node[7].nic.mac1609_4 	ReceivedUnicastPackets 	0
scalar IntersectionExampleScenario.node[7].nic.mac1609_4 	ReceivedBroadcasts 	0
scalar IntersectionExampleScenario.node[7].nic.mac1609_4 	SentPackets 	0
scalar IntersectionExampleScenario.node[7].nic.mac1609_4 	SNIRLostPackets 	0
scalar IntersectionExampleScenario.node[7].nic.mac1609_4 	RXTXLostPackets 	0
scalar IntersectionExampleScenario.node[7].nic.mac1609_4 	TotalLostPackets 	0
scalar IntersectionExampleScenario.node[7].nic.mac1609_4 	DroppedPacketsInMac 	0
scalar IntersectionExampleScenario.node[7].nic.mac1609_4 	TooLittleTime 	0
scalar IntersectionExampleScenario.node[7].nic.mac1609_4 	TimesIntoBackoff 	0
scalar IntersectionExampleScenario.node[7].nic.mac1609_4 	SlotsBackoff 	0
scalar IntersectionExampleScenario.node[7].nic.mac1609_4 	NumInternalContention 	0
scalar IntersectionExampleScenario.node[7].nic.mac1609_4 	totalBusyTime 	0
scalar IntersectionExampleScenario.node[7].veinsmobility 	startTime 	20
scalar IntersectionExampleScenario.node[7].veinsmobility 	totalTime 	39.75
scalar IntersectionExampleScenario.node[7].veinsmobility 	stopTime 	60
scalar IntersectionExampleScenario.node[7].veinsmobility 	minSpeed 	5.6500000953674
scalar IntersectionExampleScenario.node[7].veinsmobility 	maxSpeed 	16.125
scalar IntersectionExampleScenario.node[7].veinsmobility 	totalDistance 	564.25035095215
scalar IntersectionExampleScenario.node[7].veinsmobility 	totalCO2Emission 	128.4928893217
scalar IntersectionExampleScenario.node[2].appl 	VehicleRemoved 	0
scalar IntersectionExampleScenario.node[2].appl 	ArrivedAtDest 	1
scalar IntersectionExampleScenario.node[2].appl 	IntersectionEnterTime 	12.5
scalar IntersectionExampleScenario.node[2].appl 	IntersectionExitTime 	44.263592008851
scalar IntersectionExampleScenario.node[2].appl 	NumberOfCollisions 	0
scalar IntersectionExampleScenario.node[2].nic.phy80211p 	busyTime 	0
scalar IntersectionExampleScenario.node[2].nic.mac1609_4 	ReceivedUnicastPackets 	0
scalar IntersectionExampleScenario.node[2].nic.mac1609_4 	ReceivedBroadcasts 	0
scalar IntersectionExampleScenario.node[2].nic.mac1609_4 	SentPackets 	0
scalar IntersectionExampleScenario.node[2].nic.mac1609_4 	SNIRLostPackets 	0
scalar IntersectionExampleScenario.node[2].nic.mac1609_4 	RXTXLostPackets 	0
scalar IntersectionExampleScenario.node[2].nic.mac1609_4 	TotalLostPackets 	0
scalar IntersectionExampleScenario.node[2].nic.mac1609_4 	DroppedPacketsInMac 	0
scalar IntersectionExampleScenario.node[2].nic.mac1609_4 	TooLittleTime 	0
scalar IntersectionExampleScenario.node[2].nic.mac1609_4 	TimesIntoBackoff 	0
scalar IntersectionExampleScenario.node[2].nic.mac1609_4 	SlotsBackoff 	0
scalar IntersectionExampleScenario.node[2].nic.mac1609_4 	NumInternalContention 	0
scalar IntersectionExampleScenario.node[2].nic.mac1609_4 	totalBusyTime 	0
scalar IntersectionExampleScenario.node[2].veinsmobility 	startTime 	12.5
scalar IntersectionExampleScenario.node[2].veinsmobility 	totalTime 	48
scalar IntersectionExampleScenario.node[2].veinsmobility 	stopTime 	60.75
scalar IntersectionExampleScenario.node[2].veinsmobility 	minSpeed 	1.7283611297607
scalar IntersectionExampleScenario.node[2].veinsmobility 	maxSpeed 	15.02499961853
scalar IntersectionExampleScenario.node[2].veinsmobility 	totalDistance 	550.9939956665
scalar IntersectionExampleScenario.node[2].veinsmobility 	totalCO2Emission 	134.57779696324
scalar IntersectionExampleScenario.node[3].appl 	VehicleRemoved 	0
scalar IntersectionExampleScenario.node[3].appl 	ArrivedAtDest 	1
scalar IntersectionExampleScenario.node[3].appl 	IntersectionEnterTime 	14.5
scalar IntersectionExampleScenario.node[3].appl 	IntersectionExitTime 	46.579041751887
scalar IntersectionExampleScenario.node[3].appl 	NumberOfCollisions 	0
scalar IntersectionExampleScenario.node[3].nic.phy80211p 	busyTime 	0
scalar IntersectionExampleScenario.node[3].nic.mac1609_4 	ReceivedUnicastPackets 	0
scalar IntersectionExampleScenario.node[3].nic.mac1609_4 	ReceivedBroadcasts 	0
scalar IntersectionExampleScenario.node[3].nic.mac1609_4 	SentPackets 	0
scalar IntersectionExampleScenario.node[3].nic.mac1609_4 	SNIRLostPackets 	0
scalar IntersectionExampleScenario.node[3].nic.mac1609_4 	RXTXLostPackets 	0
scalar IntersectionExampleScenario.node[3].nic.mac1609_4 	TotalLostPackets 	0
scalar IntersectionExampleScenario.node[3].nic.mac1609_4 	DroppedPacketsInMac 	0
scalar IntersectionExampleScenario.node[3].nic.mac1609_4 	TooLittleTime 	0
scalar IntersectionExampleScenario.node[3].nic.mac1609_4 	TimesIntoBackoff 	0
scalar IntersectionExampleScenario.node[3].nic.mac1609_4 	SlotsBackoff 	0
scalar IntersectionExampleScenario.node[3].nic.mac1609_4 	NumInternalContention 	0
scalar IntersectionExampleScenario.node[3].nic.mac1609_4 	totalBusyTime 	0
scalar IntersectionExampleScenario.node[3].veinsmobility 	startTime 	14.5
scalar IntersectionExampleScenario.node[3].veinsmobility 	totalTime 	47.75
scalar IntersectionExampleScenario.node[3].veinsmobility 	stopTime 	62.5
scalar IntersectionExampleScenario.node[3].veinsmobility 	minSpeed 	3.7524530887604
scalar IntersectionExampleScenario.node[3].veinsmobility 	maxSpeed 	15.381495475769
scalar IntersectionExampleScenario.node[3].veinsmobility 	totalDistance 	569.09748077393
scalar IntersectionExampleScenario.node[3].veinsmobility 	totalCO2Emission 	139.75411570452
scalar IntersectionExampleScenario.node[6].appl 	VehicleRemoved 	0
scalar IntersectionExampleScenario.node[6].appl 	ArrivedAtDest 	1
scalar IntersectionExampleScenario.node[6].appl 	IntersectionEnterTime 	18
scalar IntersectionExampleScenario.node[6].appl 	IntersectionExitTime 	48.824942924286
scalar IntersectionExampleScenario.node[6].appl 	NumberOfCollisions 	0
scalar IntersectionExampleScenario.node[6].nic.phy80211p 	busyTime 	0
scalar IntersectionExampleScenario.node[6].nic.mac1609_4 	ReceivedUnicastPackets 	0
scalar IntersectionExampleScenario.node[6].nic.mac1609_4 	ReceivedBroadcasts 	0
scalar IntersectionExampleScenario.node[6].nic.mac1609_4 	SentPackets 	0
scalar IntersectionExampleScenario.node[6].nic.mac1609_4 	SNIRLostPackets 	0
scalar IntersectionExampleScenario.node[6].nic.mac1609_4 	RXTXLostPackets 	0
scalar IntersectionExampleScenario.node[6].nic.mac1609_4 	TotalLostPackets 	0
scalar IntersectionExampleScenario.node[6].nic.mac1609_4 	DroppedPacketsInMac 	0
scalar IntersectionExampleScenario.node[6].nic.mac1609_4 	TooLittleTime 	0
scalar IntersectionExampleScenario.node[6].nic.mac1609_4 	TimesIntoBackoff 	0
scalar IntersectionExampleScenario.node[6].nic.mac1609_4 	SlotsBackoff 	0
scalar IntersectionExampleScenario.node[6].nic.mac1609_4 	NumInternalContention 	0
scalar IntersectionExampleScenario.node[6].nic.mac1609_4 	totalBusyTime 	0
scalar IntersectionExampleScenario.node[6].veinsmobility 	startTime 	18
scalar IntersectionExampleScenario.node[6].veinsmobility 	totalTime 	47
scalar IntersectionExampleScenario.node[6].veinsmobility 	stopTime 	65.25
scalar IntersectionExampleScenario.node[6].veinsmobility 	minSpeed 	2.7575240135193
scalar IntersectionExampleScenario.node[6].veinsmobility 	maxSpeed 	15.875
scalar IntersectionExampleScenario.node[6].veinsmobility 	totalDistance 	561.65700332869
scalar IntersectionExampleScenario.node[6].veinsmobility 	totalCO2Emission 	148.70905913541
scalar IntersectionExampleScenario.node[8].appl 	VehicleRemoved 	0
scalar IntersectionExampleScenario.node[8].appl 	ArrivedAtDest 	1
scalar IntersectionExampleScenario.node[8].appl 	IntersectionEnterTime 	26.25
scalar IntersectionExampleScenario.node[8].appl 	IntersectionExitTime 	61.618637799751
scalar IntersectionExampleScenario.node[8].appl 	NumberOfCollisions 	0
scalar IntersectionExampleScenario.node[8].nic.phy80211p 	busyTime 	0
scalar IntersectionExampleScenario.node[8].nic.mac1609_4 	ReceivedUnicastPackets 	0
scalar IntersectionExampleScenario.node[8].nic.mac1609_4 	ReceivedBroadcasts 	0
scalar IntersectionExampleScenario.node[8].nic.mac1609_4 	SentPackets 	0
scalar IntersectionExampleScenario.node[8].nic.mac1609_4 	SNIRLostPackets 	0
scalar IntersectionExampleScenario.node[8].nic.mac1609_4 	RXTXLostPackets 	0
scalar IntersectionExampleScenario.node[8].nic.mac1609_4 	TotalLostPackets 	0
scalar IntersectionExampleScenario.node[8].nic.mac1609_4 	DroppedPacketsInMac 	0
scalar IntersectionExampleScenario.node[8].nic.mac1609_4 	TooLittleTime 	0
scalar IntersectionExampleScenario.node[8].nic.mac1609_4 	TimesIntoBackoff 	0
scalar IntersectionExampleScenario.node[8].nic.mac1609_4 	SlotsBackoff 	0
scalar IntersectionExampleScenario.node[8].nic.mac1609_4 	NumInternalContention 	0
scalar IntersectionExampleScenario.node[8].nic.mac1609_4 	totalBusyTime 	0
scalar IntersectionExampleScenario.node[8].veinsmobility 	startTime 	26.25
scalar IntersectionExampleScenario.node[8].veinsmobility 	totalTime 	51.25
scalar IntersectionExampleScenario.node[8].veinsmobility 	stopTime 	77.75
scalar IntersectionExampleScenario.node[8].veinsmobility 	minSpeed 	0
scalar IntersectionExampleScenario.node[8].veinsmobility 	maxSpeed 	16.5
scalar IntersectionExampleScenario.node[8].veinsmobility 	totalDistance 	542.59136105925
scalar IntersectionExampleScenario.node[8].veinsmobility 	totalCO2Emission 	151.52627014953
scalar IntersectionExampleScenario.node[10].appl 	VehicleRemoved 	0
scalar IntersectionExampleScenario.node[10].appl 	ArrivedAtDest 	1
scalar IntersectionExampleScenario.node[10].appl 	IntersectionEnterTime 	30.25
scalar IntersectionExampleScenario.node[10].appl 	IntersectionExitTime 	61.559556646127
scalar IntersectionExampleScenario.node[10].appl 	NumberOfCollisions 	0
scalar IntersectionExampleScenario.node[10].nic.phy80211p 	busyTime 	0
scalar IntersectionExampleScenario.node[10].nic.mac1609_4 	ReceivedUnicastPackets 	0
scalar IntersectionExampleScenario.node[10].nic.mac1609_4 	ReceivedBroadcasts 	0
scalar IntersectionExampleScenario.node[10].nic.mac1609_4 	SentPackets 	0
scalar IntersectionExampleScenario.node[10].nic.mac1609_4 	SNIRLostPackets 	0
scalar IntersectionExampleScenario.node[10].nic.mac1609_4 	RXTXLostPackets 	0
scalar IntersectionExampleScenario.node[10].nic.mac1609_4 	TotalLostPackets 	0
scalar IntersectionExampleScenario.node[10].nic.mac1609_4 	DroppedPacketsInMac 	0
scalar IntersectionExampleScenario.node[10].nic.mac1609_4 	TooLittleTime 	0
scalar IntersectionExampleScenario.node[10].nic.mac1609_4 	TimesIntoBackoff 	0
scalar IntersectionExampleScenario.node[10].nic.mac1609_4 	SlotsBackoff 	0
scalar IntersectionExampleScenario.node[10].nic.mac1609_4 	NumInternalContention 	0
scalar IntersectionExampleScenario.node[10].nic.mac1609_4 	totalBusyTime 	0
scalar IntersectionExampleScenario.node[10].veinsmobility 	startTime 	30.25
scalar IntersectionExampleScenario.node[10].veinsmobility 	totalTime 	47.75
scalar IntersectionExampleScenario.node[10].veinsmobility 	stopTime 	78.25
scalar IntersectionExampleScenario.node[10].veinsmobility 	minSpeed 	0
scalar IntersectionExampleScenario.node[10].veinsmobility 	maxSpeed 	15.875
scalar IntersectionExampleScenario.node[10].veinsmobility 	totalDistance 	544.83433438689
scalar IntersectionExampleScenario.node[10].veinsmobility 	totalCO2Emission 	142.05645034678
scalar IntersectionExampleScenario.node[9].appl 	VehicleRemoved 	0
scalar IntersectionExampleScenario.node[9].appl 	ArrivedAtDest 	1
scalar IntersectionExampleScenario.node[9].appl 	IntersectionEnterTime 	30
scalar IntersectionExampleScenario.node[9].appl 	IntersectionExitTime 	63.349554468878
scalar IntersectionExampleScenario.node[9].appl 	NumberOfCollisions 	0
scalar IntersectionExampleScenario.node[9].nic.phy80211p 	busyTime 	0
scalar IntersectionExampleScenario.node[9].nic.mac1609_4 	ReceivedUnicastPackets 	0
scalar IntersectionExampleScenario.node[9].nic.mac1609_4 	ReceivedBroadcasts 	0
scalar IntersectionExampleScenario.node[9].nic.mac1609_4 	SentPackets 	0
scalar IntersectionExampleScenario.node[9].nic.mac1609_4 	SNIRLostPackets 	0
scalar IntersectionExampleScenario.node[9].nic.mac1609_4 	RXTXLostPackets 	0
scalar IntersectionExampleScenario.node[9].nic.mac1609_4 	TotalLostPackets 	0
scalar IntersectionExampleScenario.node[9].nic.mac1609_4 	DroppedPacketsInMac 	0
scalar IntersectionExampleScenario.node[9].nic.mac1609_4 	TooLittleTime 	0
scalar IntersectionExampleScenario.node[9].nic.mac1609_4 	TimesIntoBackoff 	0
scalar IntersectionExampleScenario.node[9].nic.mac1609_4 	SlotsBackoff 	0
scalar IntersectionExampleScenario.node[9].nic.mac1609_4 	NumInternalContention 	0
scalar IntersectionExampleScenario.node[9].nic.mac1609_4 	totalBusyTime 	0
scalar IntersectionExampleScenario.node[9].veinsmobility 	startTime 	30
scalar IntersectionExampleScenario.node[9].veinsmobility 	totalTime 	49.25
scalar IntersectionExampleScenario.node[9].veinsmobility 	stopTime 	79.5
scalar IntersectionExampleScenario.node[9].veinsmobility 	minSpeed 	0
scalar IntersectionExampleScenario.node[9].veinsmobility 	maxSpeed 	15.64999961853
scalar IntersectionExampleScenario.node[9].veinsmobility 	totalDistance 	561.34153747559
scalar IntersectionExampleScenario.node[9].veinsmobility 	totalCO2Emission 	140.78143995267
scalar IntersectionExampleScenario.node[11].appl 	VehicleRemoved 	0
scalar IntersectionExampleScenario.node[11].appl 	ArrivedAtDest 	1
scalar IntersectionExampleScenario.node[11].appl 	IntersectionEnterTime 	32.75
scalar IntersectionExampleScenario.node[11].appl 	IntersectionExitTime 	63.334691348893
scalar IntersectionExampleScenario.node[11].appl 	NumberOfCollisions 	0
scalar IntersectionExampleScenario.node[11].nic.phy80211p 	busyTime 	0
scalar IntersectionExampleScenario.node[11].nic.mac1609_4 	ReceivedUnicastPackets 	0
scalar IntersectionExampleScenario.node[11].nic.mac1609_4 	ReceivedBroadcasts 	0
scalar IntersectionExampleScenario.node[11].nic.mac1609_4 	SentPackets 	0
scalar IntersectionExampleScenario.node[11].nic.mac1609_4 	SNIRLostPackets 	0
scalar IntersectionExampleScenario.node[11].nic.mac1609_4 	RXTXLostPackets 	0
scalar IntersectionExampleScenario.node[11].nic.mac1609_4 	TotalLostPackets 	0
scalar IntersectionExampleScenario.node[11].nic.mac1609_4 	DroppedPacketsInMac 	0
scalar IntersectionExampleScenario.node[11].nic.mac1609_4 	TooLittleTime 	0
scalar IntersectionExampleScenario.node[11].nic.mac1609_4 	TimesIntoBackoff 	0
scalar IntersectionExampleScenario.node[11].nic.mac1609_4 	SlotsBackoff 	0
scalar IntersectionExampleScenario.node[11].nic.mac1609_4 	NumInternalContention 	0
scalar IntersectionExampleScenario.node[11].nic.mac1609_4 	totalBusyTime 	0
scalar IntersectionExampleScenario.node[11].veinsmobility 	startTime 	32.75
scalar IntersectionExampleScenario.node[11].veinsmobility 	totalTime 	46.5
scalar IntersectionExampleScenario.node[11].veinsmobility 	stopTime 	79.5
scalar IntersectionExampleScenario.node[11].veinsmobility 	minSpeed 	0
scalar IntersectionExampleScenario.node[11].veinsmobility 	maxSpeed 	15.64999961853
scalar IntersectionExampleScenario.node[11].veinsmobility 	totalDistance 	568.6049041748
scalar IntersectionExampleScenario.node[11].veinsmobility 	totalCO2Emission 	140.16146202125
scalar IntersectionExampleScenario.node[12].appl 	VehicleRemoved 	0
scalar IntersectionExampleScenario.node[12].appl 	ArrivedAtDest 	1
scalar IntersectionExampleScenario.node[12].appl 	IntersectionEnterTime 	32.75
scalar IntersectionExampleScenario.node[12].appl 	IntersectionExitTime 	65.506335048907
scalar IntersectionExampleScenario.node[12].appl 	NumberOfCollisions 	0
scalar IntersectionExampleScenario.node[12].nic.phy80211p 	busyTime 	0
scalar IntersectionExampleScenario.node[12].nic.mac1609_4 	ReceivedUnicastPackets 	0
scalar IntersectionExampleScenario.node[12].nic.mac1609_4 	ReceivedBroadcasts 	0
scalar IntersectionExampleScenario.node[12].nic.mac1609_4 	SentPackets 	0
scalar IntersectionExampleScenario.node[12].nic.mac1609_4 	SNIRLostPackets 	0
scalar IntersectionExampleScenario.node[12].nic.mac1609_4 	RXTXLostPackets 	0
scalar IntersectionExampleScenario.node[12].nic.mac1609_4 	TotalLostPackets 	0
scalar IntersectionExampleScenario.node[12].nic.mac1609_4 	DroppedPacketsInMac 	0
scalar IntersectionExampleScenario.node[12].nic.mac1609_4 	TooLittleTime 	0
scalar IntersectionExampleScenario.node[12].nic.mac1609_4 	TimesIntoBackoff 	0
scalar IntersectionExampleScenario.node[12].nic.mac1609_4 	SlotsBackoff 	0
scalar IntersectionExampleScenario.node[12].nic.mac1609_4 	NumInternalContention 	0
scalar IntersectionExampleScenario.node[12].nic.mac1609_4 	totalBusyTime 	0
scalar IntersectionExampleScenario.node[12].veinsmobility 	startTime 	32.75
scalar IntersectionExampleScenario.node[12].veinsmobility 	totalTime 	48.75
scalar IntersectionExampleScenario.node[12].veinsmobility 	stopTime 	81.75
scalar IntersectionExampleScenario.node[12].veinsmobility 	minSpeed 	2.7570130825043
scalar IntersectionExampleScenario.node[12].veinsmobility 	maxSpeed 	15.64999961853
scalar IntersectionExampleScenario.node[12].veinsmobility 	totalDistance 	571.71517944336
scalar IntersectionExampleScenario.node[12].veinsmobility 	totalCO2Emission 	140.78876101441
scalar IntersectionExampleScenario.node[14].appl 	VehicleRemoved 	0
scalar IntersectionExampleScenario.node[14].appl 	ArrivedAtDest 	1
scalar IntersectionExampleScenario.node[14].appl 	IntersectionEnterTime 	45
scalar IntersectionExampleScenario.node[14].appl 	IntersectionExitTime 	68.026850448048
scalar IntersectionExampleScenario.node[14].appl 	NumberOfCollisions 	0
scalar IntersectionExampleScenario.node[14].nic.phy80211p 	busyTime 	0
scalar IntersectionExampleScenario.node[14].nic.mac1609_4 	ReceivedUnicastPackets 	0
scalar IntersectionExampleScenario.node[14].nic.mac1609_4 	ReceivedBroadcasts 	0
scalar IntersectionExampleScenario.node[14].nic.mac1609_4 	SentPackets 	0
scalar IntersectionExampleScenario.node[14].nic.mac1609_4 	SNIRLostPackets 	0
scalar IntersectionExampleScenario.node[14].nic.mac1609_4 	RXTXLostPackets 	0
scalar IntersectionExampleScenario.node[14].nic.mac1609_4 	TotalLostPackets 	0
scalar IntersectionExampleScenario.node[14].nic.mac1609_4 	DroppedPacketsInMac 	0
scalar IntersectionExampleScenario.node[14].nic.mac1609_4 	TooLittleTime 	0
scalar IntersectionExampleScenario.node[14].nic.mac1609_4 	TimesIntoBackoff 	0
scalar IntersectionExampleScenario.node[14].nic.mac1609_4 	SlotsBackoff 	0
scalar IntersectionExampleScenario.node[14].nic.mac1609_4 	NumInternalContention 	0
scalar IntersectionExampleScenario.node[14].nic.mac1609_4 	totalBusyTime 	0
scalar IntersectionExampleScenario.node[14].veinsmobility 	startTime 	45
scalar IntersectionExampleScenario.node[14].veinsmobility 	totalTime 	39.25
scalar IntersectionExampleScenario.node[14].veinsmobility 	stopTime 	84.5
scalar IntersectionExampleScenario.node[14].veinsmobility 	minSpeed 	5.6500000953674
scalar IntersectionExampleScenario.node[14].veinsmobility 	maxSpeed 	15.5
scalar IntersectionExampleScenario.node[14].veinsmobility 	totalDistance 	552.79508209229
scalar IntersectionExampleScenario.node[14].veinsmobility 	totalCO2Emission 	116.15807789636
scalar IntersectionExampleScenario.node[15].appl 	VehicleRemoved 	0
scalar IntersectionExampleScenario.node[15].appl 	ArrivedAtDest 	1
scalar IntersectionExampleScenario.node[15].appl 	IntersectionEnterTime 	45.5
scalar IntersectionExampleScenario.node[15].appl 	IntersectionExitTime 	69.340070691775
scalar IntersectionExampleScenario.node[15].appl 	NumberOfCollisions 	0
scalar IntersectionExampleScenario.node[15].nic.phy80211p 	busyTime 	0
scalar IntersectionExampleScenario.node[15].nic.mac1609_4 	ReceivedUnicastPackets 	0
scalar IntersectionExampleScenario.node[15].nic.mac1609_4 	ReceivedBroadcasts 	0
scalar IntersectionExampleScenario.node[15].nic.mac1609_4 	SentPackets 	0
scalar IntersectionExampleScenario.node[15].nic.mac1609_4 	SNIRLostPackets 	0
scalar IntersectionExampleScenario.node[15].nic.mac1609_4 	RXTXLostPackets 	0
scalar IntersectionExampleScenario.node[15].nic.mac1609_4 	TotalLostPackets 	0
scalar IntersectionExampleScenario.node[15].nic.mac1609_4 	DroppedPacketsInMac 	0
scalar IntersectionExampleScenario.node[15].nic.mac1609_4 	TooLittleTime 	0
scalar IntersectionExampleScenario.node[15].nic.mac1609_4 	TimesIntoBackoff 	0
scalar IntersectionExampleScenario.node[15].nic.mac1609_4 	SlotsBackoff 	0
scalar IntersectionExampleScenario.node[15].nic.mac1609_4 	NumInternalContention 	0
scalar IntersectionExampleScenario.node[15].nic.mac1609_4 	totalBusyTime 	0
scalar IntersectionExampleScenario.node[15].veinsmobility 	startTime 	45.5
scalar IntersectionExampleScenario.node[15].veinsmobility 	totalTime 	40.75
scalar IntersectionExampleScenario.node[15].veinsmobility 	stopTime 	86.5
scalar IntersectionExampleScenario.node[15].veinsmobility 	minSpeed 	5.6500000953674
scalar IntersectionExampleScenario.node[15].veinsmobility 	maxSpeed 	14.875
scalar IntersectionExampleScenario.node[15].veinsmobility 	totalDistance 	552.54530334473
scalar IntersectionExampleScenario.node[15].veinsmobility 	totalCO2Emission 	114.87340008497
scalar IntersectionExampleScenario.node[18].appl 	VehicleRemoved 	0
scalar IntersectionExampleScenario.node[18].appl 	ArrivedAtDest 	1
scalar IntersectionExampleScenario.node[18].appl 	IntersectionEnterTime 	50
scalar IntersectionExampleScenario.node[18].appl 	IntersectionExitTime 	73.621731277439
scalar IntersectionExampleScenario.node[18].appl 	NumberOfCollisions 	0
scalar IntersectionExampleScenario.node[18].nic.phy80211p 	busyTime 	0
scalar IntersectionExampleScenario.node[18].nic.mac1609_4 	ReceivedUnicastPackets 	0
scalar IntersectionExampleScenario.node[18].nic.mac1609_4 	ReceivedBroadcasts 	0
scalar IntersectionExampleScenario.node[18].nic.mac1609_4 	SentPackets 	0
scalar IntersectionExampleScenario.node[18].nic.mac1609_4 	SNIRLostPackets 	0
scalar IntersectionExampleScenario.node[18].nic.mac1609_4 	RXTXLostPackets 	0
scalar IntersectionExampleScenario.node[18].nic.mac1609_4 	TotalLostPackets 	0
scalar IntersectionExampleScenario.node[18].nic.mac1609_4 	DroppedPacketsInMac 	0
scalar IntersectionExampleScenario.node[18].nic.mac1609_4 	TooLittleTime 	0
scalar IntersectionExampleScenario.node[18].nic.mac1609_4 	TimesIntoBackoff 	0
scalar IntersectionExampleScenario.node[18].nic.mac1609_4 	SlotsBackoff 	0
scalar IntersectionExampleScenario.node[18].nic.mac1609_4 	NumInternalContention 	0
scalar IntersectionExampleScenario.node[18].nic.mac1609_4 	totalBusyTime 	0
scalar IntersectionExampleScenario.node[18].veinsmobility 	startTime 	50
scalar IntersectionExampleScenario.node[18].veinsmobility 	totalTime 	40.25
scalar IntersectionExampleScenario.node[18].veinsmobility 	stopTime 	90.5
scalar IntersectionExampleScenario.node[18].veinsmobility 	minSpeed 	5.6500000953674
scalar IntersectionExampleScenario.node[18].veinsmobility 	maxSpeed 	15.25
scalar IntersectionExampleScenario.node[18].veinsmobility 	totalDistance 	544.56586098222
scalar IntersectionExampleScenario.node[18].veinsmobility 	totalCO2Emission 	126.04403686151
scalar IntersectionExampleScenario.node[19].appl 	VehicleRemoved 	0
scalar IntersectionExampleScenario.node[19].appl 	ArrivedAtDest 	1
scalar IntersectionExampleScenario.node[19].appl 	IntersectionEnterTime 	50.5
scalar IntersectionExampleScenario.node[19].appl 	IntersectionExitTime 	74.267443873134
scalar IntersectionExampleScenario.node[19].appl 	NumberOfCollisions 	0
scalar IntersectionExampleScenario.node[19].nic.phy80211p 	busyTime 	0
scalar IntersectionExampleScenario.node[19].nic.mac1609_4 	ReceivedUnicastPackets 	0
scalar IntersectionExampleScenario.node[19].nic.mac1609_4 	ReceivedBroadcasts 	0
scalar IntersectionExampleScenario.node[19].nic.mac1609_4 	SentPackets 	0
scalar IntersectionExampleScenario.node[19].nic.mac1609_4 	SNIRLostPackets 	0
scalar IntersectionExampleScenario.node[19].nic.mac1609_4 	RXTXLostPackets 	0
scalar IntersectionExampleScenario.node[19].nic.mac1609_4 	TotalLostPackets 	0
scalar IntersectionExampleScenario.node[19].nic.mac1609_4 	DroppedPacketsInMac 	0
scalar IntersectionExampleScenario.node[19].nic.mac1609_4 	TooLittleTime 	0
scalar IntersectionExampleScenario.node[19].nic.mac1609_4 	TimesIntoBackoff 	0
scalar IntersectionExampleScenario.node[19].nic.mac1609_4 	SlotsBackoff 	0
scalar IntersectionExampleScenario.node[19].nic.mac1609_4 	NumInternalContention 	0
scalar IntersectionExampleScenario.node[19].nic.mac1609_4 	totalBusyTime 	0
scalar IntersectionExampleScenario.node[19].veinsmobility 	startTime 	50.5
scalar IntersectionExampleScenario.node[19].veinsmobility 	totalTime 	41
scalar IntersectionExampleScenario.node[19].veinsmobility 	stopTime 	91.75
scalar IntersectionExampleScenario.node[19].veinsmobility 	minSpeed 	5.6500000953674
scalar IntersectionExampleScenario.node[19].veinsmobility 	maxSpeed 	15.44202041626
scalar IntersectionExampleScenario.node[19].veinsmobility 	totalDistance 	549.65485327408
scalar IntersectionExampleScenario.node[19].veinsmobility 	totalCO2Emission 	126.86815974561
scalar IntersectionExampleScenario.node[20].appl 	VehicleRemoved 	0
scalar IntersectionExampleScenario.node[20].appl 	ArrivedAtDest 	1
scalar IntersectionExampleScenario.node[20].appl 	IntersectionEnterTime 	51.25
scalar IntersectionExampleScenario.node[20].appl 	IntersectionExitTime 	77.09249393965
scalar IntersectionExampleScenario.node[20].appl 	NumberOfCollisions 	0
scalar IntersectionExampleScenario.node[20].nic.phy80211p 	busyTime 	0
scalar IntersectionExampleScenario.node[20].nic.mac1609_4 	ReceivedUnicastPackets 	0
scalar IntersectionExampleScenario.node[20].nic.mac1609_4 	ReceivedBroadcasts 	0
scalar IntersectionExampleScenario.node[20].nic.mac1609_4 	SentPackets 	0
scalar IntersectionExampleScenario.node[20].nic.mac1609_4 	SNIRLostPackets 	0
scalar IntersectionExampleScenario.node[20].nic.mac1609_4 	RXTXLostPackets 	0
scalar IntersectionExampleScenario.node[20].nic.mac1609_4 	TotalLostPackets 	0
scalar IntersectionExampleScenario.node[20].nic.mac1609_4 	DroppedPacketsInMac 	0
scalar IntersectionExampleScenario.node[20].nic.mac1609_4 	TooLittleTime 	0
scalar IntersectionExampleScenario.node[20].nic.mac1609_4 	TimesIntoBackoff 	0
scalar IntersectionExampleScenario.node[20].nic.mac1609_4 	SlotsBackoff 	0
scalar IntersectionExampleScenario.node[20].nic.mac1609_4 	NumInternalContention 	0
scalar IntersectionExampleScenario.node[20].nic.mac1609_4 	totalBusyTime 	0
scalar IntersectionExampleScenario.node[20].veinsmobility 	startTime 	51.25
scalar IntersectionExampleScenario.node[20].veinsmobility 	totalTime 	43
scalar IntersectionExampleScenario.node[20].veinsmobility 	stopTime 	94.5
scalar IntersectionExampleScenario.node[20].veinsmobility 	minSpeed 	5.6500000953674
scalar IntersectionExampleScenario.node[20].veinsmobility 	maxSpeed 	15.25
scalar IntersectionExampleScenario.node[20].veinsmobility 	totalDistance 	568.5896430063
scalar IntersectionExampleScenario.node[20].veinsmobility 	totalCO2Emission 	130.60811052561
scalar IntersectionExampleScenario.node[22].appl 	VehicleRemoved 	0
scalar IntersectionExampleScenario.node[22].appl 	ArrivedAtDest 	1
scalar IntersectionExampleScenario.node[22].appl 	IntersectionEnterTime 	56
scalar IntersectionExampleScenario.node[22].appl 	IntersectionExitTime 	79.581007055356
scalar IntersectionExampleScenario.node[22].appl 	NumberOfCollisions 	0
scalar IntersectionExampleScenario.node[22].nic.phy80211p 	busyTime 	0
scalar IntersectionExampleScenario.node[22].nic.mac1609_4 	ReceivedUnicastPackets 	0
scalar IntersectionExampleScenario.node[22].nic.mac1609_4 	ReceivedBroadcasts 	0
scalar IntersectionExampleScenario.node[22].nic.mac1609_4 	SentPackets 	0
scalar IntersectionExampleScenario.node[22].nic.mac1609_4 	SNIRLostPackets 	0
scalar IntersectionExampleScenario.node[22].nic.mac1609_4 	RXTXLostPackets 	0
scalar IntersectionExampleScenario.node[22].nic.mac1609_4 	TotalLostPackets 	0
scalar IntersectionExampleScenario.node[22].nic.mac1609_4 	DroppedPacketsInMac 	0
scalar IntersectionExampleScenario.node[22].nic.mac1609_4 	TooLittleTime 	0
scalar IntersectionExampleScenario.node[22].nic.mac1609_4 	TimesIntoBackoff 	0
scalar IntersectionExampleScenario.node[22].nic.mac1609_4 	SlotsBackoff 	0
scalar IntersectionExampleScenario.node[22].nic.mac1609_4 	NumInternalContention 	0
scalar IntersectionExampleScenario.node[22].nic.mac1609_4 	totalBusyTime 	0
scalar IntersectionExampleScenario.node[22].veinsmobility 	startTime 	56
scalar IntersectionExampleScenario.node[22].veinsmobility 	totalTime 	40
scalar IntersectionExampleScenario.node[22].veinsmobility 	stopTime 	96.25
scalar IntersectionExampleScenario.node[22].veinsmobility 	minSpeed 	5.6500000953674
scalar IntersectionExampleScenario.node[22].veinsmobility 	maxSpeed 	15.02499961853
scalar IntersectionExampleScenario.node[22].veinsmobility 	totalDistance 	551.98734283447
scalar IntersectionExampleScenario.node[22].veinsmobility 	totalCO2Emission 	113.58977997837
scalar IntersectionExampleScenario.node[23].appl 	VehicleRemoved 	0
scalar IntersectionExampleScenario.node[23].appl 	ArrivedAtDest 	1
scalar IntersectionExampleScenario.node[23].appl 	IntersectionEnterTime 	57.25
scalar IntersectionExampleScenario.node[23].appl 	IntersectionExitTime 	80.291760361783
scalar IntersectionExampleScenario.node[23].appl 	NumberOfCollisions 	0
scalar IntersectionExampleScenario.node[23].nic.phy80211p 	busyTime 	0
scalar IntersectionExampleScenario.node[23].nic.mac1609_4 	ReceivedUnicastPackets 	0
scalar IntersectionExampleScenario.node[23].nic.mac1609_4 	ReceivedBroadcasts 	0
scalar IntersectionExampleScenario.node[23].nic.mac1609_4 	SentPackets 	0
scalar IntersectionExampleScenario.node[23].nic.mac1609_4 	SNIRLostPackets 	0
scalar IntersectionExampleScenario.node[23].nic.mac1609_4 	RXTXLostPackets 	0
scalar IntersectionExampleScenario.node[23].nic.mac1609_4 	TotalLostPackets 	0
scalar IntersectionExampleScenario.node[23].nic.mac1609_4 	DroppedPacketsInMac 	0
scalar IntersectionExampleScenario.node[23].nic.mac1609_4 	TooLittleTime 	0
scalar IntersectionExampleScenario.node[23].nic.mac1609_4 	TimesIntoBackoff 	0
scalar IntersectionExampleScenario.node[23].nic.mac1609_4 	SlotsBackoff 	0
scalar IntersectionExampleScenario.node[23].nic.mac1609_4 	NumInternalContention 	0
scalar IntersectionExampleScenario.node[23].nic.mac1609_4 	totalBusyTime 	0
scalar IntersectionExampleScenario.node[23].veinsmobility 	startTime 	57.25
scalar IntersectionExampleScenario.node[23].veinsmobility 	totalTime 	39
scalar IntersectionExampleScenario.node[23].veinsmobility 	stopTime 	96.5
scalar IntersectionExampleScenario.node[23].veinsmobility 	minSpeed 	5.6500000953674
scalar IntersectionExampleScenario.node[23].veinsmobility 	maxSpeed 	16.325109481812
scalar IntersectionExampleScenario.node[23].veinsmobility 	totalDistance 	544.36812034097
scalar IntersectionExampleScenario.node[23].veinsmobility 	totalCO2Emission 	132.06798823645
scalar IntersectionExampleScenario.node[13].appl 	VehicleRemoved 	0
scalar IntersectionExampleScenario.node[13].appl 	ArrivedAtDest 	1
scalar IntersectionExampleScenario.node[13].appl 	IntersectionEnterTime 	42.25
scalar IntersectionExampleScenario.node[13].appl 	IntersectionExitTime 	81.58318600303
scalar IntersectionExampleScenario.node[13].appl 	NumberOfCollisions 	0
scalar IntersectionExampleScenario.node[13].nic.phy80211p 	busyTime 	0
scalar IntersectionExampleScenario.node[13].nic.mac1609_4 	ReceivedUnicastPackets 	0
scalar IntersectionExampleScenario.node[13].nic.mac1609_4 	ReceivedBroadcasts 	0
scalar IntersectionExampleScenario.node[13].nic.mac1609_4 	SentPackets 	0
scalar IntersectionExampleScenario.node[13].nic.mac1609_4 	SNIRLostPackets 	0
scalar IntersectionExampleScenario.node[13].nic.mac1609_4 	RXTXLostPackets 	0
scalar IntersectionExampleScenario.node[13].nic.mac1609_4 	TotalLostPackets 	0
scalar IntersectionExampleScenario.node[13].nic.mac1609_4 	DroppedPacketsInMac 	0
scalar IntersectionExampleScenario.node[13].nic.mac1609_4 	TooLittleTime 	0
scalar IntersectionExampleScenario.node[13].nic.mac1609_4 	TimesIntoBackoff 	0
scalar IntersectionExampleScenario.node[13].nic.mac1609_4 	SlotsBackoff 	0
scalar IntersectionExampleScenario.node[13].nic.mac1609_4 	NumInternalContention 	0
scalar IntersectionExampleScenario.node[13].nic.mac1609_4 	totalBusyTime 	0
scalar IntersectionExampleScenario.node[13].veinsmobility 	startTime 	42.25
scalar IntersectionExampleScenario.node[13].veinsmobility 	totalTime 	55.75
scalar IntersectionExampleScenario.node[13].veinsmobility 	stopTime 	98.25
scalar IntersectionExampleScenario.node[13].veinsmobility 	minSpeed 	0
scalar IntersectionExampleScenario.node[13].veinsmobility 	maxSpeed 	16.27499961853
scalar IntersectionExampleScenario.node[13].veinsmobility 	totalDistance 	546.3535680905
scalar IntersectionExampleScenario.node[13].veinsmobility 	totalCO2Emission 	151.61692273625
scalar IntersectionExampleScenario.node[21].appl 	VehicleRemoved 	0
scalar IntersectionExampleScenario.node[21].appl 	ArrivedAtDest 	1
scalar IntersectionExampleScenario.node[21].appl 	IntersectionEnterTime 	53.5
scalar IntersectionExampleScenario.node[21].appl 	IntersectionExitTime 	83.599234050809
scalar IntersectionExampleScenario.node[21].appl 	NumberOfCollisions 	0
scalar IntersectionExampleScenario.node[21].nic.phy80211p 	busyTime 	0
scalar IntersectionExampleScenario.node[21].nic.mac1609_4 	ReceivedUnicastPackets 	0
scalar IntersectionExampleScenario.node[21].nic.mac1609_4 	ReceivedBroadcasts 	0
scalar IntersectionExampleScenario.node[21].nic.mac1609_4 	SentPackets 	0
scalar IntersectionExampleScenario.node[21].nic.mac1609_4 	SNIRLostPackets 	0
scalar IntersectionExampleScenario.node[21].nic.mac1609_4 	RXTXLostPackets 	0
scalar IntersectionExampleScenario.node[21].nic.mac1609_4 	TotalLostPackets 	0
scalar IntersectionExampleScenario.node[21].nic.mac1609_4 	DroppedPacketsInMac 	0
scalar IntersectionExampleScenario.node[21].nic.mac1609_4 	TooLittleTime 	0
scalar IntersectionExampleScenario.node[21].nic.mac1609_4 	TimesIntoBackoff 	0
scalar IntersectionExampleScenario.node[21].nic.mac1609_4 	SlotsBackoff 	0
scalar IntersectionExampleScenario.node[21].nic.mac1609_4 	NumInternalContention 	0
scalar IntersectionExampleScenario.node[21].nic.mac1609_4 	totalBusyTime 	0
scalar IntersectionExampleScenario.node[21].veinsmobility 	startTime 	53.5
scalar IntersectionExampleScenario.node[21].veinsmobility 	totalTime 	45.25
scalar IntersectionExampleScenario.node[21].veinsmobility 	stopTime 	99
scalar IntersectionExampleScenario.node[21].veinsmobility 	minSpeed 	2.3538813591003
scalar IntersectionExampleScenario.node[21].veinsmobility 	maxSpeed 	16.27499961853
scalar IntersectionExampleScenario.node[21].veinsmobility 	totalDistance 	553.47257995605
scalar IntersectionExampleScenario.node[21].veinsmobility 	totalCO2Emission 	140.66215894169
scalar IntersectionExampleScenario.node[16].appl 	VehicleRemoved 	0
scalar IntersectionExampleScenario.node[16].appl 	ArrivedAtDest 	1
scalar IntersectionExampleScenario.node[16].appl 	IntersectionEnterTime 	45.75
scalar IntersectionExampleScenario.node[16].appl 	IntersectionExitTime 	82.331347574131
scalar IntersectionExampleScenario.node[16].appl 	NumberOfCollisions 	0
scalar IntersectionExampleScenario.node[16].nic.phy80211p 	busyTime 	0
scalar IntersectionExampleScenario.node[16].nic.mac1609_4 	ReceivedUnicastPackets 	0
scalar IntersectionExampleScenario.node[16].nic.mac1609_4 	ReceivedBroadcasts 	0
scalar IntersectionExampleScenario.node[16].nic.mac1609_4 	SentPackets 	0
scalar IntersectionExampleScenario.node[16].nic.mac1609_4 	SNIRLostPackets 	0
scalar IntersectionExampleScenario.node[16].nic.mac1609_4 	RXTXLostPackets 	0
scalar IntersectionExampleScenario.node[16].nic.mac1609_4 	TotalLostPackets 	0
scalar IntersectionExampleScenario.node[16].nic.mac1609_4 	DroppedPacketsInMac 	0
scalar IntersectionExampleScenario.node[16].nic.mac1609_4 	TooLittleTime 	0
scalar IntersectionExampleScenario.node[16].nic.mac1609_4 	TimesIntoBackoff 	0
scalar IntersectionExampleScenario.node[16].nic.mac1609_4 	SlotsBackoff 	0
scalar IntersectionExampleScenario.node[16].nic.mac1609_4 	NumInternalContention 	0
scalar IntersectionExampleScenario.node[16].nic.mac1609_4 	totalBusyTime 	0
scalar IntersectionExampleScenario.node[16].veinsmobility 	startTime 	45.75
scalar IntersectionExampleScenario.node[16].veinsmobility 	totalTime 	53.5
scalar IntersectionExampleScenario.node[16].veinsmobility 	stopTime 	99.5
scalar IntersectionExampleScenario.node[16].veinsmobility 	minSpeed 	0
scalar IntersectionExampleScenario.node[16].veinsmobility 	maxSpeed 	15.02499961853
scalar IntersectionExampleScenario.node[16].veinsmobility 	totalDistance 	544.51931707997
scalar IntersectionExampleScenario.node[16].veinsmobility 	totalCO2Emission 	143.34752109776
scalar IntersectionExampleScenario.node[17].appl 	VehicleRemoved 	0
scalar IntersectionExampleScenario.node[17].appl 	ArrivedAtDest 	1
scalar IntersectionExampleScenario.node[17].appl 	IntersectionEnterTime 	48.5
scalar IntersectionExampleScenario.node[17].appl 	IntersectionExitTime 	84.03556001134
scalar IntersectionExampleScenario.node[17].appl 	NumberOfCollisions 	0
scalar IntersectionExampleScenario.node[17].nic.phy80211p 	busyTime 	0
scalar IntersectionExampleScenario.node[17].nic.mac1609_4 	ReceivedUnicastPackets 	0
scalar IntersectionExampleScenario.node[17].nic.mac1609_4 	ReceivedBroadcasts 	0
scalar IntersectionExampleScenario.node[17].nic.mac1609_4 	SentPackets 	0
scalar IntersectionExampleScenario.node[17].nic.mac1609_4 	SNIRLostPackets 	0
scalar IntersectionExampleScenario.node[17].nic.mac1609_4 	RXTXLostPackets 	0
scalar IntersectionExampleScenario.node[17].nic.mac1609_4 	TotalLostPackets 	0
scalar IntersectionExampleScenario.node[17].nic.mac1609_4 	DroppedPacketsInMac 	0
scalar IntersectionExampleScenario.node[17].nic.mac1609_4 	TooLittleTime 	0
scalar IntersectionExampleScenario.node[17].nic.mac1609_4 	TimesIntoBackoff 	0
scalar IntersectionExampleScenario.node[17].nic.mac1609_4 	SlotsBackoff 	0
scalar IntersectionExampleScenario.node[17].nic.mac1609_4 	NumInternalContention 	0
scalar IntersectionExampleScenario.node[17].nic.mac1609_4 	totalBusyTime 	0
scalar IntersectionExampleScenario.node[17].veinsmobility 	startTime 	48.5
scalar IntersectionExampleScenario.node[17].veinsmobility 	totalTime 	51
scalar IntersectionExampleScenario.node[17].veinsmobility 	stopTime 	99.75
scalar IntersectionExampleScenario.node[17].veinsmobility 	minSpeed 	0
scalar IntersectionExampleScenario.node[17].veinsmobility 	maxSpeed 	16.125
scalar IntersectionExampleScenario.node[17].veinsmobility 	totalDistance 	567.92654418945
scalar IntersectionExampleScenario.node[17].veinsmobility 	totalCO2Emission 	150.17010032933
scalar IntersectionExampleScenario.node[24].appl 	VehicleRemoved 	0
scalar IntersectionExampleScenario.node[24].appl 	ArrivedAtDest 	1
scalar IntersectionExampleScenario.node[24].appl 	IntersectionEnterTime 	57.5
scalar IntersectionExampleScenario.node[24].appl 	IntersectionExitTime 	85.832336543652
scalar IntersectionExampleScenario.node[24].appl 	NumberOfCollisions 	0
scalar IntersectionExampleScenario.node[24].nic.phy80211p 	busyTime 	0
scalar IntersectionExampleScenario.node[24].nic.mac1609_4 	ReceivedUnicastPackets 	0
scalar IntersectionExampleScenario.node[24].nic.mac1609_4 	ReceivedBroadcasts 	0
scalar IntersectionExampleScenario.node[24].nic.mac1609_4 	SentPackets 	0
scalar IntersectionExampleScenario.node[24].nic.mac1609_4 	SNIRLostPackets 	0
scalar IntersectionExampleScenario.node[24].nic.mac1609_4 	RXTXLostPackets 	0
scalar IntersectionExampleScenario.node[24].nic.mac1609_4 	TotalLostPackets 	0
scalar IntersectionExampleScenario.node[24].nic.mac1609_4 	DroppedPacketsInMac 	0
scalar IntersectionExampleScenario.node[24].nic.mac1609_4 	TooLittleTime 	0
scalar IntersectionExampleScenario.node[24].nic.mac1609_4 	TimesIntoBackoff 	0
scalar IntersectionExampleScenario.node[24].nic.mac1609_4 	SlotsBackoff 	0
scalar IntersectionExampleScenario.node[24].nic.mac1609_4 	NumInternalContention 	0
scalar IntersectionExampleScenario.node[24].nic.mac1609_4 	totalBusyTime 	0
scalar IntersectionExampleScenario.node[24].veinsmobility 	startTime 	57.5
scalar IntersectionExampleScenario.node[24].veinsmobility 	totalTime 	44
scalar IntersectionExampleScenario.node[24].veinsmobility 	stopTime 	101.75
scalar IntersectionExampleScenario.node[24].veinsmobility 	minSpeed 	4.9103260040283
scalar IntersectionExampleScenario.node[24].veinsmobility 	maxSpeed 	16.125
scalar IntersectionExampleScenario.node[24].veinsmobility 	totalDistance 	561.23614501953
scalar IntersectionExampleScenario.node[24].veinsmobility 	totalCO2Emission 	134.68523179223
scalar IntersectionExampleScenario.node[26].appl 	VehicleRemoved 	0
scalar IntersectionExampleScenario.node[26].appl 	ArrivedAtDest 	1
scalar IntersectionExampleScenario.node[26].appl 	IntersectionEnterTime 	60.75
scalar IntersectionExampleScenario.node[26].appl 	IntersectionExitTime 	86.537622396281
scalar IntersectionExampleScenario.node[26].appl 	NumberOfCollisions 	0
scalar IntersectionExampleScenario.node[26].nic.phy80211p 	busyTime 	0
scalar IntersectionExampleScenario.node[26].nic.mac1609_4 	ReceivedUnicastPackets 	0
scalar IntersectionExampleScenario.node[26].nic.mac1609_4 	ReceivedBroadcasts 	0
scalar IntersectionExampleScenario.node[26].nic.mac1609_4 	SentPackets 	0
scalar IntersectionExampleScenario.node[26].nic.mac1609_4 	SNIRLostPackets 	0
scalar IntersectionExampleScenario.node[26].nic.mac1609_4 	RXTXLostPackets 	0
scalar IntersectionExampleScenario.node[26].nic.mac1609_4 	TotalLostPackets 	0
scalar IntersectionExampleScenario.node[26].nic.mac1609_4 	DroppedPacketsInMac 	0
scalar IntersectionExampleScenario.node[26].nic.mac1609_4 	TooLittleTime 	0
scalar IntersectionExampleScenario.node[26].nic.mac1609_4 	TimesIntoBackoff 	0
scalar IntersectionExampleScenario.node[26].nic.mac1609_4 	SlotsBackoff 	0
scalar IntersectionExampleScenario.node[26].nic.mac1609_4 	NumInternalContention 	0
scalar IntersectionExampleScenario.node[26].nic.mac1609_4 	totalBusyTime 	0
scalar IntersectionExampleScenario.node[26].veinsmobility 	startTime 	60.75
scalar IntersectionExampleScenario.node[26].veinsmobility 	totalTime 	42.5
scalar IntersectionExampleScenario.node[26].veinsmobility 	stopTime 	103.5
scalar IntersectionExampleScenario.node[26].veinsmobility 	minSpeed 	5.6500000953674
scalar IntersectionExampleScenario.node[26].veinsmobility 	maxSpeed 	15.64999961853
scalar IntersectionExampleScenario.node[26].veinsmobility 	totalDistance 	545.54420657163
scalar IntersectionExampleScenario.node[26].veinsmobility 	totalCO2Emission 	140.25730133473
scalar IntersectionExampleScenario.node[29].appl 	VehicleRemoved 	0
scalar IntersectionExampleScenario.node[29].appl 	ArrivedAtDest 	1
scalar IntersectionExampleScenario.node[29].appl 	IntersectionEnterTime 	63.5
scalar IntersectionExampleScenario.node[29].appl 	IntersectionExitTime 	88.55193795872
scalar IntersectionExampleScenario.node[29].appl 	NumberOfCollisions 	0
scalar IntersectionExampleScenario.node[29].nic.phy80211p 	busyTime 	0
scalar IntersectionExampleScenario.node[29].nic.mac1609_4 	ReceivedUnicastPackets 	0
scalar IntersectionExampleScenario.node[29].nic.mac1609_4 	ReceivedBroadcasts 	0
scalar IntersectionExampleScenario.node[29].nic.mac1609_4 	SentPackets 	0
scalar IntersectionExampleScenario.node[29].nic.mac1609_4 	SNIRLostPackets 	0
scalar IntersectionExampleScenario.node[29].nic.mac1609_4 	RXTXLostPackets 	0
scalar IntersectionExampleScenario.node[29].nic.mac1609_4 	TotalLostPackets 	0
scalar IntersectionExampleScenario.node[29].nic.mac1609_4 	DroppedPacketsInMac 	0
scalar IntersectionExampleScenario.node[29].nic.mac1609_4 	TooLittleTime 	0
scalar IntersectionExampleScenario.node[29].nic.mac1609_4 	TimesIntoBackoff 	0
scalar IntersectionExampleScenario.node[29].nic.mac1609_4 	SlotsBackoff 	0
scalar IntersectionExampleScenario.node[29].nic.mac1609_4 	NumInternalContention 	0
scalar IntersectionExampleScenario.node[29].nic.mac1609_4 	totalBusyTime 	0
scalar IntersectionExampleScenario.node[29].veinsmobility 	startTime 	63.5
scalar IntersectionExampleScenario.node[29].veinsmobility 	totalTime 	42
scalar IntersectionExampleScenario.node[29].veinsmobility 	stopTime 	105.75
scalar IntersectionExampleScenario.node[29].veinsmobility 	minSpeed 	5.6500000953674
scalar IntersectionExampleScenario.node[29].veinsmobility 	maxSpeed 	15.25
scalar IntersectionExampleScenario.node[29].veinsmobility 	totalDistance 	544.35612995013
scalar IntersectionExampleScenario.node[29].veinsmobility 	totalCO2Emission 	129.36194446628
scalar IntersectionExampleScenario.node[34].appl 	VehicleRemoved 	0
scalar IntersectionExampleScenario.node[34].appl 	ArrivedAtDest 	1
scalar IntersectionExampleScenario.node[34].appl 	IntersectionEnterTime 	73.75
scalar IntersectionExampleScenario.node[34].appl 	IntersectionExitTime 	96.77326086929
scalar IntersectionExampleScenario.node[34].appl 	NumberOfCollisions 	0
scalar IntersectionExampleScenario.node[34].nic.phy80211p 	busyTime 	0
scalar IntersectionExampleScenario.node[34].nic.mac1609_4 	ReceivedUnicastPackets 	0
scalar IntersectionExampleScenario.node[34].nic.mac1609_4 	ReceivedBroadcasts 	0
scalar IntersectionExampleScenario.node[34].nic.mac1609_4 	SentPackets 	0
scalar IntersectionExampleScenario.node[34].nic.mac1609_4 	SNIRLostPackets 	0
scalar IntersectionExampleScenario.node[34].nic.mac1609_4 	RXTXLostPackets 	0
scalar IntersectionExampleScenario.node[34].nic.mac1609_4 	TotalLostPackets 	0
scalar IntersectionExampleScenario.node[34].nic.mac1609_4 	DroppedPacketsInMac 	0
scalar IntersectionExampleScenario.node[34].nic.mac1609_4 	TooLittleTime 	0
scalar IntersectionExampleScenario.node[34].nic.mac1609_4 	TimesIntoBackoff 	0
scalar IntersectionExampleScenario.node[34].nic.mac1609_4 	SlotsBackoff 	0
scalar IntersectionExampleScenario.node[34].nic.mac1609_4 	NumInternalContention 	0
scalar IntersectionExampleScenario.node[34].nic.mac1609_4 	totalBusyTime 	0
scalar IntersectionExampleScenario.node[34].veinsmobility 	startTime 	73.75
scalar IntersectionExampleScenario.node[34].veinsmobility 	totalTime 	39.25
scalar IntersectionExampleScenario.node[34].veinsmobility 	stopTime 	113.25
scalar IntersectionExampleScenario.node[34].veinsmobility 	minSpeed 	5.6500000953674
scalar IntersectionExampleScenario.node[34].veinsmobility 	maxSpeed 	16.27499961853
scalar IntersectionExampleScenario.node[34].veinsmobility 	totalDistance 	543.40082417487
scalar IntersectionExampleScenario.node[34].veinsmobility 	totalCO2Emission 	129.3649662457
scalar IntersectionExampleScenario.node[37].appl 	VehicleRemoved 	0
scalar IntersectionExampleScenario.node[37].appl 	ArrivedAtDest 	1
scalar IntersectionExampleScenario.node[37].appl 	IntersectionEnterTime 	76
scalar IntersectionExampleScenario.node[37].appl 	IntersectionExitTime 	99.04815875343
scalar IntersectionExampleScenario.node[37].appl 	NumberOfCollisions 	0
scalar IntersectionExampleScenario.node[37].nic.phy80211p 	busyTime 	0
scalar IntersectionExampleScenario.node[37].nic.mac1609_4 	ReceivedUnicastPackets 	0
scalar IntersectionExampleScenario.node[37].nic.mac1609_4 	ReceivedBroadcasts 	0
scalar IntersectionExampleScenario.node[37].nic.mac1609_4 	SentPackets 	0
scalar IntersectionExampleScenario.node[37].nic.mac1609_4 	SNIRLostPackets 	0
scalar IntersectionExampleScenario.node[37].nic.mac1609_4 	RXTXLostPackets 	0
scalar IntersectionExampleScenario.node[37].nic.mac1609_4 	TotalLostPackets 	0
scalar IntersectionExampleScenario.node[37].nic.mac1609_4 	DroppedPacketsInMac 	0
scalar IntersectionExampleScenario.node[37].nic.mac1609_4 	TooLittleTime 	0
scalar IntersectionExampleScenario.node[37].nic.mac1609_4 	TimesIntoBackoff 	0
scalar IntersectionExampleScenario.node[37].nic.mac1609_4 	SlotsBackoff 	0
scalar IntersectionExampleScenario.node[37].nic.mac1609_4 	NumInternalContention 	0
scalar IntersectionExampleScenario.node[37].nic.mac1609_4 	totalBusyTime 	0
scalar IntersectionExampleScenario.node[37].veinsmobility 	startTime 	76
scalar IntersectionExampleScenario.node[37].veinsmobility 	totalTime 	39.25
scalar IntersectionExampleScenario.node[37].veinsmobility 	stopTime 	115.5
scalar IntersectionExampleScenario.node[37].veinsmobility 	minSpeed 	5.6500000953674
scalar IntersectionExampleScenario.node[37].veinsmobility 	maxSpeed 	16.058702468872
scalar IntersectionExampleScenario.node[37].veinsmobility 	totalDistance 	550.14264385975
scalar IntersectionExampleScenario.node[37].veinsmobility 	totalCO2Emission 	124.65414138761
scalar IntersectionExampleScenario.node[25].appl 	VehicleRemoved 	0
scalar IntersectionExampleScenario.node[25].appl 	ArrivedAtDest 	1
scalar IntersectionExampleScenario.node[25].appl 	IntersectionEnterTime 	59.5
scalar IntersectionExampleScenario.node[25].appl 	IntersectionExitTime 	100.60561731551
scalar IntersectionExampleScenario.node[25].appl 	NumberOfCollisions 	0
scalar IntersectionExampleScenario.node[25].nic.phy80211p 	busyTime 	0
scalar IntersectionExampleScenario.node[25].nic.mac1609_4 	ReceivedUnicastPackets 	0
scalar IntersectionExampleScenario.node[25].nic.mac1609_4 	ReceivedBroadcasts 	0
scalar IntersectionExampleScenario.node[25].nic.mac1609_4 	SentPackets 	0
scalar IntersectionExampleScenario.node[25].nic.mac1609_4 	SNIRLostPackets 	0
scalar IntersectionExampleScenario.node[25].nic.mac1609_4 	RXTXLostPackets 	0
scalar IntersectionExampleScenario.node[25].nic.mac1609_4 	TotalLostPackets 	0
scalar IntersectionExampleScenario.node[25].nic.mac1609_4 	DroppedPacketsInMac 	0
scalar IntersectionExampleScenario.node[25].nic.mac1609_4 	TooLittleTime 	0
scalar IntersectionExampleScenario.node[25].nic.mac1609_4 	TimesIntoBackoff 	0
scalar IntersectionExampleScenario.node[25].nic.mac1609_4 	SlotsBackoff 	0
scalar IntersectionExampleScenario.node[25].nic.mac1609_4 	NumInternalContention 	0
scalar IntersectionExampleScenario.node[25].nic.mac1609_4 	totalBusyTime 	0
scalar IntersectionExampleScenario.node[25].veinsmobility 	startTime 	59.5
scalar IntersectionExampleScenario.node[25].veinsmobility 	totalTime 	57.5
scalar IntersectionExampleScenario.node[25].veinsmobility 	stopTime 	117.25
scalar IntersectionExampleScenario.node[25].veinsmobility 	minSpeed 	0
scalar IntersectionExampleScenario.node[25].veinsmobility 	maxSpeed 	15.875
scalar IntersectionExampleScenario.node[25].veinsmobility 	totalDistance 	562.73302365691
scalar IntersectionExampleScenario.node[25].veinsmobility 	totalCO2Emission 	152.88803704919
scalar IntersectionExampleScenario.node[27].appl 	VehicleRemoved 	0
scalar IntersectionExampleScenario.node[27].appl 	ArrivedAtDest 	1
scalar IntersectionExampleScenario.node[27].appl 	IntersectionEnterTime 	63
scalar IntersectionExampleScenario.node[27].appl 	IntersectionExitTime 	101.37174603235
scalar IntersectionExampleScenario.node[27].appl 	NumberOfCollisions 	0
scalar IntersectionExampleScenario.node[27].nic.phy80211p 	busyTime 	0
scalar IntersectionExampleScenario.node[27].nic.mac1609_4 	ReceivedUnicastPackets 	0
scalar IntersectionExampleScenario.node[27].nic.mac1609_4 	ReceivedBroadcasts 	0
scalar IntersectionExampleScenario.node[27].nic.mac1609_4 	SentPackets 	0
scalar IntersectionExampleScenario.node[27].nic.mac1609_4 	SNIRLostPackets 	0
scalar IntersectionExampleScenario.node[27].nic.mac1609_4 	RXTXLostPackets 	0
scalar IntersectionExampleScenario.node[27].nic.mac1609_4 	TotalLostPackets 	0
scalar IntersectionExampleScenario.node[27].nic.mac1609_4 	DroppedPacketsInMac 	0
scalar IntersectionExampleScenario.node[27].nic.mac1609_4 	TooLittleTime 	0
scalar IntersectionExampleScenario.node[27].nic.mac1609_4 	TimesIntoBackoff 	0
scalar IntersectionExampleScenario.node[27].nic.mac1609_4 	SlotsBackoff 	0
scalar IntersectionExampleScenario.node[27].nic.mac1609_4 	NumInternalContention 	0
scalar IntersectionExampleScenario.node[27].nic.mac1609_4 	totalBusyTime 	0
scalar IntersectionExampleScenario.node[27].veinsmobility 	startTime 	63
scalar IntersectionExampleScenario.node[27].veinsmobility 	totalTime 	54.75
scalar IntersectionExampleScenario.node[27].veinsmobility 	stopTime 	118
scalar IntersectionExampleScenario.node[27].veinsmobility 	minSpeed 	0
scalar IntersectionExampleScenario.node[27].veinsmobility 	maxSpeed 	15.02499961853
scalar IntersectionExampleScenario.node[27].veinsmobility 	totalDistance 	551.17227935791
scalar IntersectionExampleScenario.node[27].veinsmobility 	totalCO2Emission 	145.48303448841
scalar IntersectionExampleScenario.node[30].appl 	VehicleRemoved 	0
scalar IntersectionExampleScenario.node[30].appl 	ArrivedAtDest 	1
scalar IntersectionExampleScenario.node[30].appl 	IntersectionEnterTime 	65.25
scalar IntersectionExampleScenario.node[30].appl 	IntersectionExitTime 	103.02172185111
scalar IntersectionExampleScenario.node[30].appl 	NumberOfCollisions 	0
scalar IntersectionExampleScenario.node[30].nic.phy80211p 	busyTime 	0
scalar IntersectionExampleScenario.node[30].nic.mac1609_4 	ReceivedUnicastPackets 	0
scalar IntersectionExampleScenario.node[30].nic.mac1609_4 	ReceivedBroadcasts 	0
scalar IntersectionExampleScenario.node[30].nic.mac1609_4 	SentPackets 	0
scalar IntersectionExampleScenario.node[30].nic.mac1609_4 	SNIRLostPackets 	0
scalar IntersectionExampleScenario.node[30].nic.mac1609_4 	RXTXLostPackets 	0
scalar IntersectionExampleScenario.node[30].nic.mac1609_4 	TotalLostPackets 	0
scalar IntersectionExampleScenario.node[30].nic.mac1609_4 	DroppedPacketsInMac 	0
scalar IntersectionExampleScenario.node[30].nic.mac1609_4 	TooLittleTime 	0
scalar IntersectionExampleScenario.node[30].nic.mac1609_4 	TimesIntoBackoff 	0
scalar IntersectionExampleScenario.node[30].nic.mac1609_4 	SlotsBackoff 	0
scalar IntersectionExampleScenario.node[30].nic.mac1609_4 	NumInternalContention 	0
scalar IntersectionExampleScenario.node[30].nic.mac1609_4 	totalBusyTime 	0
scalar IntersectionExampleScenario.node[30].veinsmobility 	startTime 	65.25
scalar IntersectionExampleScenario.node[30].veinsmobility 	totalTime 	53.5
scalar IntersectionExampleScenario.node[30].veinsmobility 	stopTime 	119
scalar IntersectionExampleScenario.node[30].veinsmobility 	minSpeed 	0
scalar IntersectionExampleScenario.node[30].veinsmobility 	maxSpeed 	16.35514831543
scalar IntersectionExampleScenario.node[30].veinsmobility 	totalDistance 	543.40799210301
scalar IntersectionExampleScenario.node[30].veinsmobility 	totalCO2Emission 	152.77148435639
scalar IntersectionExampleScenario.node[28].appl 	VehicleRemoved 	0
scalar IntersectionExampleScenario.node[28].appl 	ArrivedAtDest 	1
scalar IntersectionExampleScenario.node[28].appl 	IntersectionEnterTime 	63.25
scalar IntersectionExampleScenario.node[28].appl 	IntersectionExitTime 	103.32837472705
scalar IntersectionExampleScenario.node[28].appl 	NumberOfCollisions 	0
scalar IntersectionExampleScenario.node[28].nic.phy80211p 	busyTime 	0
scalar IntersectionExampleScenario.node[28].nic.mac1609_4 	ReceivedUnicastPackets 	0
scalar IntersectionExampleScenario.node[28].nic.mac1609_4 	ReceivedBroadcasts 	0
scalar IntersectionExampleScenario.node[28].nic.mac1609_4 	SentPackets 	0
scalar IntersectionExampleScenario.node[28].nic.mac1609_4 	SNIRLostPackets 	0
scalar IntersectionExampleScenario.node[28].nic.mac1609_4 	RXTXLostPackets 	0
scalar IntersectionExampleScenario.node[28].nic.mac1609_4 	TotalLostPackets 	0
scalar IntersectionExampleScenario.node[28].nic.mac1609_4 	DroppedPacketsInMac 	0
scalar IntersectionExampleScenario.node[28].nic.mac1609_4 	TooLittleTime 	0
scalar IntersectionExampleScenario.node[28].nic.mac1609_4 	TimesIntoBackoff 	0
scalar IntersectionExampleScenario.node[28].nic.mac1609_4 	SlotsBackoff 	0
scalar IntersectionExampleScenario.node[28].nic.mac1609_4 	NumInternalContention 	0
scalar IntersectionExampleScenario.node[28].nic.mac1609_4 	totalBusyTime 	0
scalar IntersectionExampleScenario.node[28].veinsmobility 	startTime 	63.25
scalar IntersectionExampleScenario.node[28].veinsmobility 	totalTime 	56.25
scalar IntersectionExampleScenario.node[28].veinsmobility 	stopTime 	119.75
scalar IntersectionExampleScenario.node[28].veinsmobility 	minSpeed 	0
scalar IntersectionExampleScenario.node[28].veinsmobility 	maxSpeed 	15.082548141479
scalar IntersectionExampleScenario.node[28].veinsmobility 	totalDistance 	578.54921722412
scalar IntersectionExampleScenario.node[28].veinsmobility 	totalCO2Emission 	151.14285279577
scalar IntersectionExampleScenario.node[31].appl 	VehicleRemoved 	0
scalar IntersectionExampleScenario.node[31].appl 	ArrivedAtDest 	1
scalar IntersectionExampleScenario.node[31].appl 	IntersectionEnterTime 	66
scalar IntersectionExampleScenario.node[31].appl 	IntersectionExitTime 	105.31961725041
scalar IntersectionExampleScenario.node[31].appl 	NumberOfCollisions 	0
scalar IntersectionExampleScenario.node[31].nic.phy80211p 	busyTime 	0
scalar IntersectionExampleScenario.node[31].nic.mac1609_4 	ReceivedUnicastPackets 	0
scalar IntersectionExampleScenario.node[31].nic.mac1609_4 	ReceivedBroadcasts 	0
scalar IntersectionExampleScenario.node[31].nic.mac1609_4 	SentPackets 	0
scalar IntersectionExampleScenario.node[31].nic.mac1609_4 	SNIRLostPackets 	0
scalar IntersectionExampleScenario.node[31].nic.mac1609_4 	RXTXLostPackets 	0
scalar IntersectionExampleScenario.node[31].nic.mac1609_4 	TotalLostPackets 	0
scalar IntersectionExampleScenario.node[31].nic.mac1609_4 	DroppedPacketsInMac 	0
scalar IntersectionExampleScenario.node[31].nic.mac1609_4 	TooLittleTime 	0
scalar IntersectionExampleScenario.node[31].nic.mac1609_4 	TimesIntoBackoff 	0
scalar IntersectionExampleScenario.node[31].nic.mac1609_4 	SlotsBackoff 	0
scalar IntersectionExampleScenario.node[31].nic.mac1609_4 	NumInternalContention 	0
scalar IntersectionExampleScenario.node[31].nic.mac1609_4 	totalBusyTime 	0
scalar IntersectionExampleScenario.node[31].veinsmobility 	startTime 	66
scalar IntersectionExampleScenario.node[31].veinsmobility 	totalTime 	55.75
scalar IntersectionExampleScenario.node[31].veinsmobility 	stopTime 	122
scalar IntersectionExampleScenario.node[31].veinsmobility 	minSpeed 	0
scalar IntersectionExampleScenario.node[31].veinsmobility 	maxSpeed 	14.875
scalar IntersectionExampleScenario.node[31].veinsmobility 	totalDistance 	574.46272277832
scalar IntersectionExampleScenario.node[31].veinsmobility 	totalCO2Emission 	142.91991810817
scalar IntersectionExampleScenario.node[33].appl 	VehicleRemoved 	0
scalar IntersectionExampleScenario.node[33].appl 	ArrivedAtDest 	1
scalar IntersectionExampleScenario.node[33].appl 	IntersectionEnterTime 	69.75
scalar IntersectionExampleScenario.node[33].appl 	IntersectionExitTime 	105.34292056764
scalar IntersectionExampleScenario.node[33].appl 	NumberOfCollisions 	0
scalar IntersectionExampleScenario.node[33].nic.phy80211p 	busyTime 	0
scalar IntersectionExampleScenario.node[33].nic.mac1609_4 	ReceivedUnicastPackets 	0
scalar IntersectionExampleScenario.node[33].nic.mac1609_4 	ReceivedBroadcasts 	0
scalar IntersectionExampleScenario.node[33].nic.mac1609_4 	SentPackets 	0
scalar IntersectionExampleScenario.node[33].nic.mac1609_4 	SNIRLostPackets 	0
scalar IntersectionExampleScenario.node[33].nic.mac1609_4 	RXTXLostPackets 	0
scalar IntersectionExampleScenario.node[33].nic.mac1609_4 	TotalLostPackets 	0
scalar IntersectionExampleScenario.node[33].nic.mac1609_4 	DroppedPacketsInMac 	0
scalar IntersectionExampleScenario.node[33].nic.mac1609_4 	TooLittleTime 	0
scalar IntersectionExampleScenario.node[33].nic.mac1609_4 	TimesIntoBackoff 	0
scalar IntersectionExampleScenario.node[33].nic.mac1609_4 	SlotsBackoff 	0
scalar IntersectionExampleScenario.node[33].nic.mac1609_4 	NumInternalContention 	0
scalar IntersectionExampleScenario.node[33].nic.mac1609_4 	totalBusyTime 	0
scalar IntersectionExampleScenario.node[33].veinsmobility 	startTime 	69.75
scalar IntersectionExampleScenario.node[33].veinsmobility 	totalTime 	52.5
scalar IntersectionExampleScenario.node[33].veinsmobility 	stopTime 	122.5
scalar IntersectionExampleScenario.node[33].veinsmobility 	minSpeed 	0
scalar IntersectionExampleScenario.node[33].veinsmobility 	maxSpeed 	15.25
scalar IntersectionExampleScenario.node[33].veinsmobility 	totalDistance 	522.69622940097
scalar IntersectionExampleScenario.node[33].veinsmobility 	totalCO2Emission 	140.06604549799
scalar IntersectionExampleScenario.node[38].appl 	VehicleRemoved 	0
scalar IntersectionExampleScenario.node[38].appl 	ArrivedAtDest 	1
scalar IntersectionExampleScenario.node[38].appl 	IntersectionEnterTime 	76.25
scalar IntersectionExampleScenario.node[38].appl 	IntersectionExitTime 	107.34045059665
scalar IntersectionExampleScenario.node[38].appl 	NumberOfCollisions 	0
scalar IntersectionExampleScenario.node[38].nic.phy80211p 	busyTime 	0
scalar IntersectionExampleScenario.node[38].nic.mac1609_4 	ReceivedUnicastPackets 	0
scalar IntersectionExampleScenario.node[38].nic.mac1609_4 	ReceivedBroadcasts 	0
scalar IntersectionExampleScenario.node[38].nic.mac1609_4 	SentPackets 	0
scalar IntersectionExampleScenario.node[38].nic.mac1609_4 	SNIRLostPackets 	0
scalar IntersectionExampleScenario.node[38].nic.mac1609_4 	RXTXLostPackets 	0
scalar IntersectionExampleScenario.node[38].nic.mac1609_4 	TotalLostPackets 	0
scalar IntersectionExampleScenario.node[38].nic.mac1609_4 	DroppedPacketsInMac 	0
scalar IntersectionExampleScenario.node[38].nic.mac1609_4 	TooLittleTime 	0
scalar IntersectionExampleScenario.node[38].nic.mac1609_4 	TimesIntoBackoff 	0
scalar IntersectionExampleScenario.node[38].nic.mac1609_4 	SlotsBackoff 	0
scalar IntersectionExampleScenario.node[38].nic.mac1609_4 	NumInternalContention 	0
scalar IntersectionExampleScenario.node[38].nic.mac1609_4 	totalBusyTime 	0
scalar IntersectionExampleScenario.node[38].veinsmobility 	startTime 	76.25
scalar IntersectionExampleScenario.node[38].veinsmobility 	totalTime 	47
scalar IntersectionExampleScenario.node[38].veinsmobility 	stopTime 	123.5
scalar IntersectionExampleScenario.node[38].veinsmobility 	minSpeed 	3.9936408996582
scalar IntersectionExampleScenario.node[38].veinsmobility 	maxSpeed 	15.64999961853
scalar IntersectionExampleScenario.node[38].veinsmobility 	totalDistance 	553.79437255859
scalar IntersectionExampleScenario.node[38].veinsmobility 	totalCO2Emission 	136.80947648704
scalar IntersectionExampleScenario.node[32].appl 	VehicleRemoved 	0
scalar IntersectionExampleScenario.node[32].appl 	ArrivedAtDest 	1
scalar IntersectionExampleScenario.node[32].appl 	IntersectionEnterTime 	69
scalar IntersectionExampleScenario.node[32].appl 	IntersectionExitTime 	107.86399681287
scalar IntersectionExampleScenario.node[32].appl 	NumberOfCollisions 	0
scalar IntersectionExampleScenario.node[32].nic.phy80211p 	busyTime 	0
scalar IntersectionExampleScenario.node[32].nic.mac1609_4 	ReceivedUnicastPackets 	0
scalar IntersectionExampleScenario.node[32].nic.mac1609_4 	ReceivedBroadcasts 	0
scalar IntersectionExampleScenario.node[32].nic.mac1609_4 	SentPackets 	0
scalar IntersectionExampleScenario.node[32].nic.mac1609_4 	SNIRLostPackets 	0
scalar IntersectionExampleScenario.node[32].nic.mac1609_4 	RXTXLostPackets 	0
scalar IntersectionExampleScenario.node[32].nic.mac1609_4 	TotalLostPackets 	0
scalar IntersectionExampleScenario.node[32].nic.mac1609_4 	DroppedPacketsInMac 	0
scalar IntersectionExampleScenario.node[32].nic.mac1609_4 	TooLittleTime 	0
scalar IntersectionExampleScenario.node[32].nic.mac1609_4 	TimesIntoBackoff 	0
scalar IntersectionExampleScenario.node[32].nic.mac1609_4 	SlotsBackoff 	0
scalar IntersectionExampleScenario.node[32].nic.mac1609_4 	NumInternalContention 	0
scalar IntersectionExampleScenario.node[32].nic.mac1609_4 	totalBusyTime 	0
scalar IntersectionExampleScenario.node[32].veinsmobility 	startTime 	69
scalar IntersectionExampleScenario.node[32].veinsmobility 	totalTime 	55.5
scalar IntersectionExampleScenario.node[32].veinsmobility 	stopTime 	124.75
scalar IntersectionExampleScenario.node[32].veinsmobility 	minSpeed 	0
scalar IntersectionExampleScenario.node[32].veinsmobility 	maxSpeed 	15.324110031128
scalar IntersectionExampleScenario.node[32].veinsmobility 	totalDistance 	553.56609916327
scalar IntersectionExampleScenario.node[32].veinsmobility 	totalCO2Emission 	148.89952672197
scalar IntersectionExampleScenario.node[36].appl 	VehicleRemoved 	0
scalar IntersectionExampleScenario.node[36].appl 	ArrivedAtDest 	1
scalar IntersectionExampleScenario.node[36].appl 	IntersectionEnterTime 	75.25
scalar IntersectionExampleScenario.node[36].appl 	IntersectionExitTime 	109.50002153157
scalar IntersectionExampleScenario.node[36].appl 	NumberOfCollisions 	0
scalar IntersectionExampleScenario.node[36].nic.phy80211p 	busyTime 	0
scalar IntersectionExampleScenario.node[36].nic.mac1609_4 	ReceivedUnicastPackets 	0
scalar IntersectionExampleScenario.node[36].nic.mac1609_4 	ReceivedBroadcasts 	0
scalar IntersectionExampleScenario.node[36].nic.mac1609_4 	SentPackets 	0
scalar IntersectionExampleScenario.node[36].nic.mac1609_4 	SNIRLostPackets 	0
scalar IntersectionExampleScenario.node[36].nic.mac1609_4 	RXTXLostPackets 	0
scalar IntersectionExampleScenario.node[36].nic.mac1609_4 	TotalLostPackets 	0
scalar IntersectionExampleScenario.node[36].nic.mac1609_4 	DroppedPacketsInMac 	0
scalar IntersectionExampleScenario.node[36].nic.mac1609_4 	TooLittleTime 	0
scalar IntersectionExampleScenario.node[36].nic.mac1609_4 	TimesIntoBackoff 	0
scalar IntersectionExampleScenario.node[36].nic.mac1609_4 	SlotsBackoff 	0
scalar IntersectionExampleScenario.node[36].nic.mac1609_4 	NumInternalContention 	0
scalar IntersectionExampleScenario.node[36].nic.mac1609_4 	totalBusyTime 	0
scalar IntersectionExampleScenario.node[36].veinsmobility 	startTime 	75.25
scalar IntersectionExampleScenario.node[36].veinsmobility 	totalTime 	50
scalar IntersectionExampleScenario.node[36].veinsmobility 	stopTime 	125.5
scalar IntersectionExampleScenario.node[36].veinsmobility 	minSpeed 	0
scalar IntersectionExampleScenario.node[36].veinsmobility 	maxSpeed 	15.64999961853
scalar IntersectionExampleScenario.node[36].veinsmobility 	totalDistance 	553.6409072876
scalar IntersectionExampleScenario.node[36].veinsmobility 	totalCO2Emission 	142.43297360996
scalar IntersectionExampleScenario.node[39].appl 	VehicleRemoved 	0
scalar IntersectionExampleScenario.node[39].appl 	ArrivedAtDest 	1
scalar IntersectionExampleScenario.node[39].appl 	IntersectionEnterTime 	77.75
scalar IntersectionExampleScenario.node[39].appl 	IntersectionExitTime 	109.59309335725
scalar IntersectionExampleScenario.node[39].appl 	NumberOfCollisions 	0
scalar IntersectionExampleScenario.node[39].nic.phy80211p 	busyTime 	0
scalar IntersectionExampleScenario.node[39].nic.mac1609_4 	ReceivedUnicastPackets 	0
scalar IntersectionExampleScenario.node[39].nic.mac1609_4 	ReceivedBroadcasts 	0
scalar IntersectionExampleScenario.node[39].nic.mac1609_4 	SentPackets 	0
scalar IntersectionExampleScenario.node[39].nic.mac1609_4 	SNIRLostPackets 	0
scalar IntersectionExampleScenario.node[39].nic.mac1609_4 	RXTXLostPackets 	0
scalar IntersectionExampleScenario.node[39].nic.mac1609_4 	TotalLostPackets 	0
scalar IntersectionExampleScenario.node[39].nic.mac1609_4 	DroppedPacketsInMac 	0
scalar IntersectionExampleScenario.node[39].nic.mac1609_4 	TooLittleTime 	0
scalar IntersectionExampleScenario.node[39].nic.mac1609_4 	TimesIntoBackoff 	0
scalar IntersectionExampleScenario.node[39].nic.mac1609_4 	SlotsBackoff 	0
scalar IntersectionExampleScenario.node[39].nic.mac1609_4 	NumInternalContention 	0
scalar IntersectionExampleScenario.node[39].nic.mac1609_4 	totalBusyTime 	0
scalar IntersectionExampleScenario.node[39].veinsmobility 	startTime 	77.75
scalar IntersectionExampleScenario.node[39].veinsmobility 	totalTime 	47.75
scalar IntersectionExampleScenario.node[39].veinsmobility 	stopTime 	125.75
scalar IntersectionExampleScenario.node[39].veinsmobility 	minSpeed 	2.5031297206879
scalar IntersectionExampleScenario.node[39].veinsmobility 	maxSpeed 	16.044925689697
scalar IntersectionExampleScenario.node[39].veinsmobility 	totalDistance 	570.34975500766
scalar IntersectionExampleScenario.node[39].veinsmobility 	totalCO2Emission 	146.03353710626
scalar IntersectionExampleScenario.node[45].appl 	VehicleRemoved 	0
scalar IntersectionExampleScenario.node[45].appl 	ArrivedAtDest 	1
scalar IntersectionExampleScenario.node[45].appl 	IntersectionEnterTime 	84.25
scalar IntersectionExampleScenario.node[45].appl 	IntersectionExitTime 	111.11902193513
scalar IntersectionExampleScenario.node[45].appl 	NumberOfCollisions 	0
scalar IntersectionExampleScenario.node[45].nic.phy80211p 	busyTime 	0
scalar IntersectionExampleScenario.node[45].nic.mac1609_4 	ReceivedUnicastPackets 	0
scalar IntersectionExampleScenario.node[45].nic.mac1609_4 	ReceivedBroadcasts 	0
scalar IntersectionExampleScenario.node[45].nic.mac1609_4 	SentPackets 	0
scalar IntersectionExampleScenario.node[45].nic.mac1609_4 	SNIRLostPackets 	0
scalar IntersectionExampleScenario.node[45].nic.mac1609_4 	RXTXLostPackets 	0
scalar IntersectionExampleScenario.node[45].nic.mac1609_4 	TotalLostPackets 	0
scalar IntersectionExampleScenario.node[45].nic.mac1609_4 	DroppedPacketsInMac 	0
scalar IntersectionExampleScenario.node[45].nic.mac1609_4 	TooLittleTime 	0
scalar IntersectionExampleScenario.node[45].nic.mac1609_4 	TimesIntoBackoff 	0
[...]
scalar IntersectionExampleScenario.node[676].veinsmobility 	totalCO2Emission 	65.730788783503
scalar IntersectionExampleScenario.node[677].appl 	VehicleRemoved 	0
scalar IntersectionExampleScenario.node[677].appl 	ArrivedAtDest 	0
scalar IntersectionExampleScenario.node[677].appl 	IntersectionEnterTime 	1777.75
scalar IntersectionExampleScenario.node[677].appl 	IntersectionExitTime 	-1
scalar IntersectionExampleScenario.node[677].appl 	NumberOfCollisions 	0
scalar IntersectionExampleScenario.node[677].nic.phy80211p 	busyTime 	0
scalar IntersectionExampleScenario.node[677].nic.mac1609_4 	ReceivedUnicastPackets 	0
scalar IntersectionExampleScenario.node[677].nic.mac1609_4 	ReceivedBroadcasts 	0
scalar IntersectionExampleScenario.node[677].nic.mac1609_4 	SentPackets 	0
scalar IntersectionExampleScenario.node[677].nic.mac1609_4 	SNIRLostPackets 	0
scalar IntersectionExampleScenario.node[677].nic.mac1609_4 	RXTXLostPackets 	0
scalar IntersectionExampleScenario.node[677].nic.mac1609_4 	TotalLostPackets 	0
scalar IntersectionExampleScenario.node[677].nic.mac1609_4 	DroppedPacketsInMac 	0
scalar IntersectionExampleScenario.node[677].nic.mac1609_4 	TooLittleTime 	0
scalar IntersectionExampleScenario.node[677].nic.mac1609_4 	TimesIntoBackoff 	0
scalar IntersectionExampleScenario.node[677].nic.mac1609_4 	SlotsBackoff 	0
scalar IntersectionExampleScenario.node[677].nic.mac1609_4 	NumInternalContention 	0
scalar IntersectionExampleScenario.node[677].nic.mac1609_4 	totalBusyTime 	0
scalar IntersectionExampleScenario.node[677].veinsmobility 	startTime 	1777.75
scalar IntersectionExampleScenario.node[677].veinsmobility 	totalTime 	22.25
scalar IntersectionExampleScenario.node[677].veinsmobility 	stopTime 	1800
scalar IntersectionExampleScenario.node[677].veinsmobility 	minSpeed 	4.0801615715027
scalar IntersectionExampleScenario.node[677].veinsmobility 	maxSpeed 	15.723487854004
scalar IntersectionExampleScenario.node[677].veinsmobility 	totalDistance 	285.32357788086
scalar IntersectionExampleScenario.node[677].veinsmobility 	totalCO2Emission 	68.910966735059
scalar IntersectionExampleScenario.node[678].appl 	VehicleRemoved 	0
scalar IntersectionExampleScenario.node[678].appl 	ArrivedAtDest 	0
scalar IntersectionExampleScenario.node[678].appl 	IntersectionEnterTime 	1780.5
scalar IntersectionExampleScenario.node[678].appl 	IntersectionExitTime 	-1
scalar IntersectionExampleScenario.node[678].appl 	NumberOfCollisions 	0
scalar IntersectionExampleScenario.node[678].nic.phy80211p 	busyTime 	0
scalar IntersectionExampleScenario.node[678].nic.mac1609_4 	ReceivedUnicastPackets 	0
scalar IntersectionExampleScenario.node[678].nic.mac1609_4 	ReceivedBroadcasts 	0
scalar IntersectionExampleScenario.node[678].nic.mac1609_4 	SentPackets 	0
scalar IntersectionExampleScenario.node[678].nic.mac1609_4 	SNIRLostPackets 	0
scalar IntersectionExampleScenario.node[678].nic.mac1609_4 	RXTXLostPackets 	0
scalar IntersectionExampleScenario.node[678].nic.mac1609_4 	TotalLostPackets 	0
scalar IntersectionExampleScenario.node[678].nic.mac1609_4 	DroppedPacketsInMac 	0
scalar IntersectionExampleScenario.node[678].nic.mac1609_4 	TooLittleTime 	0
scalar IntersectionExampleScenario.node[678].nic.mac1609_4 	TimesIntoBackoff 	0
scalar IntersectionExampleScenario.node[678].nic.mac1609_4 	SlotsBackoff 	0
scalar IntersectionExampleScenario.node[678].nic.mac1609_4 	NumInternalContention 	0
scalar IntersectionExampleScenario.node[678].nic.mac1609_4 	totalBusyTime 	0
scalar IntersectionExampleScenario.node[678].veinsmobility 	startTime 	1780.5
scalar IntersectionExampleScenario.node[678].veinsmobility 	totalTime 	19.5
scalar IntersectionExampleScenario.node[678].veinsmobility 	stopTime 	1800
scalar IntersectionExampleScenario.node[678].veinsmobility 	minSpeed 	5.6500000953674
scalar IntersectionExampleScenario.node[678].veinsmobility 	maxSpeed 	15.64999961853
scalar IntersectionExampleScenario.node[678].veinsmobility 	totalDistance 	274.90836334229
scalar IntersectionExampleScenario.node[678].veinsmobility 	totalCO2Emission 	63.935782414202
scalar IntersectionExampleScenario.node[679].appl 	VehicleRemoved 	0
scalar IntersectionExampleScenario.node[679].appl 	ArrivedAtDest 	0
scalar IntersectionExampleScenario.node[679].appl 	IntersectionEnterTime 	1781.25
scalar IntersectionExampleScenario.node[679].appl 	IntersectionExitTime 	-1
scalar IntersectionExampleScenario.node[679].appl 	NumberOfCollisions 	0
scalar IntersectionExampleScenario.node[679].nic.phy80211p 	busyTime 	0
scalar IntersectionExampleScenario.node[679].nic.mac1609_4 	ReceivedUnicastPackets 	0
scalar IntersectionExampleScenario.node[679].nic.mac1609_4 	ReceivedBroadcasts 	0
scalar IntersectionExampleScenario.node[679].nic.mac1609_4 	SentPackets 	0
scalar IntersectionExampleScenario.node[679].nic.mac1609_4 	SNIRLostPackets 	0
scalar IntersectionExampleScenario.node[679].nic.mac1609_4 	RXTXLostPackets 	0
scalar IntersectionExampleScenario.node[679].nic.mac1609_4 	TotalLostPackets 	0
scalar IntersectionExampleScenario.node[679].nic.mac1609_4 	DroppedPacketsInMac 	0
scalar IntersectionExampleScenario.node[679].nic.mac1609_4 	TooLittleTime 	0
scalar IntersectionExampleScenario.node[679].nic.mac1609_4 	TimesIntoBackoff 	0
scalar IntersectionExampleScenario.node[679].nic.mac1609_4 	SlotsBackoff 	0
scalar IntersectionExampleScenario.node[679].nic.mac1609_4 	NumInternalContention 	0
scalar IntersectionExampleScenario.node[679].nic.mac1609_4 	totalBusyTime 	0
scalar IntersectionExampleScenario.node[679].veinsmobility 	startTime 	1781.25
scalar IntersectionExampleScenario.node[679].veinsmobility 	totalTime 	18.75
scalar IntersectionExampleScenario.node[679].veinsmobility 	stopTime 	1800
scalar IntersectionExampleScenario.node[679].veinsmobility 	minSpeed 	5.6500000953674
scalar IntersectionExampleScenario.node[679].veinsmobility 	maxSpeed 	15.64999961853
scalar IntersectionExampleScenario.node[679].veinsmobility 	totalDistance 	264.15018463135
scalar IntersectionExampleScenario.node[679].veinsmobility 	totalCO2Emission 	62.479414157602
scalar IntersectionExampleScenario.node[680].appl 	VehicleRemoved 	0
scalar IntersectionExampleScenario.node[680].appl 	ArrivedAtDest 	0
scalar IntersectionExampleScenario.node[680].appl 	IntersectionEnterTime 	1781.25
scalar IntersectionExampleScenario.node[680].appl 	IntersectionExitTime 	-1
scalar IntersectionExampleScenario.node[680].appl 	NumberOfCollisions 	0
scalar IntersectionExampleScenario.node[680].nic.phy80211p 	busyTime 	0
scalar IntersectionExampleScenario.node[680].nic.mac1609_4 	ReceivedUnicastPackets 	0
scalar IntersectionExampleScenario.node[680].nic.mac1609_4 	ReceivedBroadcasts 	0
scalar IntersectionExampleScenario.node[680].nic.mac1609_4 	SentPackets 	0
scalar IntersectionExampleScenario.node[680].nic.mac1609_4 	SNIRLostPackets 	0
scalar IntersectionExampleScenario.node[680].nic.mac1609_4 	RXTXLostPackets 	0
scalar IntersectionExampleScenario.node[680].nic.mac1609_4 	TotalLostPackets 	0
scalar IntersectionExampleScenario.node[680].nic.mac1609_4 	DroppedPacketsInMac 	0
scalar IntersectionExampleScenario.node[680].nic.mac1609_4 	TooLittleTime 	0
scalar IntersectionExampleScenario.node[680].nic.mac1609_4 	TimesIntoBackoff 	0
scalar IntersectionExampleScenario.node[680].nic.mac1609_4 	SlotsBackoff 	0
scalar IntersectionExampleScenario.node[680].nic.mac1609_4 	NumInternalContention 	0
scalar IntersectionExampleScenario.node[680].nic.mac1609_4 	totalBusyTime 	0
scalar IntersectionExampleScenario.node[680].veinsmobility 	startTime 	1781.25
scalar IntersectionExampleScenario.node[680].veinsmobility 	totalTime 	18.75
scalar IntersectionExampleScenario.node[680].veinsmobility 	stopTime 	1800
scalar IntersectionExampleScenario.node[680].veinsmobility 	minSpeed 	5.6500000953674
scalar IntersectionExampleScenario.node[680].veinsmobility 	maxSpeed 	15.992733955383
scalar IntersectionExampleScenario.node[680].veinsmobility 	totalDistance 	274.32633209229
scalar IntersectionExampleScenario.node[680].veinsmobility 	totalCO2Emission 	66.780133168999
scalar IntersectionExampleScenario.node[681].appl 	VehicleRemoved 	0
scalar IntersectionExampleScenario.node[681].appl 	ArrivedAtDest 	0
scalar IntersectionExampleScenario.node[681].appl 	IntersectionEnterTime 	1785
scalar IntersectionExampleScenario.node[681].appl 	IntersectionExitTime 	-1
scalar IntersectionExampleScenario.node[681].appl 	NumberOfCollisions 	0
scalar IntersectionExampleScenario.node[681].nic.phy80211p 	busyTime 	0
scalar IntersectionExampleScenario.node[681].nic.mac1609_4 	ReceivedUnicastPackets 	0
scalar IntersectionExampleScenario.node[681].nic.mac1609_4 	ReceivedBroadcasts 	0
scalar IntersectionExampleScenario.node[681].nic.mac1609_4 	SentPackets 	0
scalar IntersectionExampleScenario.node[681].nic.mac1609_4 	SNIRLostPackets 	0
scalar IntersectionExampleScenario.node[681].nic.mac1609_4 	RXTXLostPackets 	0
scalar IntersectionExampleScenario.node[681].nic.mac1609_4 	TotalLostPackets 	0
scalar IntersectionExampleScenario.node[681].nic.mac1609_4 	DroppedPacketsInMac 	0
scalar IntersectionExampleScenario.node[681].nic.mac1609_4 	TooLittleTime 	0
scalar IntersectionExampleScenario.node[681].nic.mac1609_4 	TimesIntoBackoff 	0
scalar IntersectionExampleScenario.node[681].nic.mac1609_4 	SlotsBackoff 	0
scalar IntersectionExampleScenario.node[681].nic.mac1609_4 	NumInternalContention 	0
scalar IntersectionExampleScenario.node[681].nic.mac1609_4 	totalBusyTime 	0
scalar IntersectionExampleScenario.node[681].veinsmobility 	startTime 	1785
scalar IntersectionExampleScenario.node[681].veinsmobility 	totalTime 	15
scalar IntersectionExampleScenario.node[681].veinsmobility 	stopTime 	1800
scalar IntersectionExampleScenario.node[681].veinsmobility 	minSpeed 	5.6500000953674
scalar IntersectionExampleScenario.node[681].veinsmobility 	maxSpeed 	16.27499961853
scalar IntersectionExampleScenario.node[681].veinsmobility 	totalDistance 	211.08074951172
scalar IntersectionExampleScenario.node[681].veinsmobility 	totalCO2Emission 	55.952904791379
scalar IntersectionExampleScenario.node[682].appl 	VehicleRemoved 	0
scalar IntersectionExampleScenario.node[682].appl 	ArrivedAtDest 	0
scalar IntersectionExampleScenario.node[682].appl 	IntersectionEnterTime 	1785.75
scalar IntersectionExampleScenario.node[682].appl 	IntersectionExitTime 	-1
scalar IntersectionExampleScenario.node[682].appl 	NumberOfCollisions 	0
scalar IntersectionExampleScenario.node[682].nic.phy80211p 	busyTime 	0
scalar IntersectionExampleScenario.node[682].nic.mac1609_4 	ReceivedUnicastPackets 	0
scalar IntersectionExampleScenario.node[682].nic.mac1609_4 	ReceivedBroadcasts 	0
scalar IntersectionExampleScenario.node[682].nic.mac1609_4 	SentPackets 	0
scalar IntersectionExampleScenario.node[682].nic.mac1609_4 	SNIRLostPackets 	0
scalar IntersectionExampleScenario.node[682].nic.mac1609_4 	RXTXLostPackets 	0
scalar IntersectionExampleScenario.node[682].nic.mac1609_4 	TotalLostPackets 	0
scalar IntersectionExampleScenario.node[682].nic.mac1609_4 	DroppedPacketsInMac 	0
scalar IntersectionExampleScenario.node[682].nic.mac1609_4 	TooLittleTime 	0
scalar IntersectionExampleScenario.node[682].nic.mac1609_4 	TimesIntoBackoff 	0
scalar IntersectionExampleScenario.node[682].nic.mac1609_4 	SlotsBackoff 	0
scalar IntersectionExampleScenario.node[682].nic.mac1609_4 	NumInternalContention 	0
scalar IntersectionExampleScenario.node[682].nic.mac1609_4 	totalBusyTime 	0
scalar IntersectionExampleScenario.node[682].veinsmobility 	startTime 	1785.75
scalar IntersectionExampleScenario.node[682].veinsmobility 	totalTime 	14.25
scalar IntersectionExampleScenario.node[682].veinsmobility 	stopTime 	1800
scalar IntersectionExampleScenario.node[682].veinsmobility 	minSpeed 	5.6500000953674
scalar IntersectionExampleScenario.node[682].veinsmobility 	maxSpeed 	15.02499961853
scalar IntersectionExampleScenario.node[682].veinsmobility 	totalDistance 	192.89181518555
scalar IntersectionExampleScenario.node[682].veinsmobility 	totalCO2Emission 	52.068345867864
scalar IntersectionExampleScenario.node[683].appl 	VehicleRemoved 	0
scalar IntersectionExampleScenario.node[683].appl 	ArrivedAtDest 	0
scalar IntersectionExampleScenario.node[683].appl 	IntersectionEnterTime 	1787.25
scalar IntersectionExampleScenario.node[683].appl 	IntersectionExitTime 	-1
scalar IntersectionExampleScenario.node[683].appl 	NumberOfCollisions 	0
scalar IntersectionExampleScenario.node[683].nic.phy80211p 	busyTime 	0
scalar IntersectionExampleScenario.node[683].nic.mac1609_4 	ReceivedUnicastPackets 	0
scalar IntersectionExampleScenario.node[683].nic.mac1609_4 	ReceivedBroadcasts 	0
scalar IntersectionExampleScenario.node[683].nic.mac1609_4 	SentPackets 	0
scalar IntersectionExampleScenario.node[683].nic.mac1609_4 	SNIRLostPackets 	0
scalar IntersectionExampleScenario.node[683].nic.mac1609_4 	RXTXLostPackets 	0
scalar IntersectionExampleScenario.node[683].nic.mac1609_4 	TotalLostPackets 	0
scalar IntersectionExampleScenario.node[683].nic.mac1609_4 	DroppedPacketsInMac 	0
scalar IntersectionExampleScenario.node[683].nic.mac1609_4 	TooLittleTime 	0
scalar IntersectionExampleScenario.node[683].nic.mac1609_4 	TimesIntoBackoff 	0
scalar IntersectionExampleScenario.node[683].nic.mac1609_4 	SlotsBackoff 	0
scalar IntersectionExampleScenario.node[683].nic.mac1609_4 	NumInternalContention 	0
scalar IntersectionExampleScenario.node[683].nic.mac1609_4 	totalBusyTime 	0
scalar IntersectionExampleScenario.node[683].veinsmobility 	startTime 	1787.25
scalar IntersectionExampleScenario.node[683].veinsmobility 	totalTime 	12.75
scalar IntersectionExampleScenario.node[683].veinsmobility 	stopTime 	1800
scalar IntersectionExampleScenario.node[683].veinsmobility 	minSpeed 	5.6500000953674
scalar IntersectionExampleScenario.node[683].veinsmobility 	maxSpeed 	15.02499961853
scalar IntersectionExampleScenario.node[683].veinsmobility 	totalDistance 	171.21899414062
scalar IntersectionExampleScenario.node[683].veinsmobility 	totalCO2Emission 	49.247579529394
scalar IntersectionExampleScenario.node[684].appl 	VehicleRemoved 	0
scalar IntersectionExampleScenario.node[684].appl 	ArrivedAtDest 	0
scalar IntersectionExampleScenario.node[684].appl 	IntersectionEnterTime 	1790.75
scalar IntersectionExampleScenario.node[684].appl 	IntersectionExitTime 	-1
scalar IntersectionExampleScenario.node[684].appl 	NumberOfCollisions 	0
scalar IntersectionExampleScenario.node[684].nic.phy80211p 	busyTime 	0
scalar IntersectionExampleScenario.node[684].nic.mac1609_4 	ReceivedUnicastPackets 	0
scalar IntersectionExampleScenario.node[684].nic.mac1609_4 	ReceivedBroadcasts 	0
scalar IntersectionExampleScenario.node[684].nic.mac1609_4 	SentPackets 	0
scalar IntersectionExampleScenario.node[684].nic.mac1609_4 	SNIRLostPackets 	0
scalar IntersectionExampleScenario.node[684].nic.mac1609_4 	RXTXLostPackets 	0
scalar IntersectionExampleScenario.node[684].nic.mac1609_4 	TotalLostPackets 	0
scalar IntersectionExampleScenario.node[684].nic.mac1609_4 	DroppedPacketsInMac 	0
scalar IntersectionExampleScenario.node[684].nic.mac1609_4 	TooLittleTime 	0
scalar IntersectionExampleScenario.node[684].nic.mac1609_4 	TimesIntoBackoff 	0
scalar IntersectionExampleScenario.node[684].nic.mac1609_4 	SlotsBackoff 	0
scalar IntersectionExampleScenario.node[684].nic.mac1609_4 	NumInternalContention 	0
scalar IntersectionExampleScenario.node[684].nic.mac1609_4 	totalBusyTime 	0
scalar IntersectionExampleScenario.node[684].veinsmobility 	startTime 	1790.75
scalar IntersectionExampleScenario.node[684].veinsmobility 	totalTime 	9.25
scalar IntersectionExampleScenario.node[684].veinsmobility 	stopTime 	1800
scalar IntersectionExampleScenario.node[684].veinsmobility 	minSpeed 	5.6500000953674
scalar IntersectionExampleScenario.node[684].veinsmobility 	maxSpeed 	15.64999961853
scalar IntersectionExampleScenario.node[684].veinsmobility 	totalDistance 	120.97747802734
scalar IntersectionExampleScenario.node[684].veinsmobility 	totalCO2Emission 	43.448337290442
scalar IntersectionExampleScenario.node[685].appl 	VehicleRemoved 	0
scalar IntersectionExampleScenario.node[685].appl 	ArrivedAtDest 	0
scalar IntersectionExampleScenario.node[685].appl 	IntersectionEnterTime 	1792.75
scalar IntersectionExampleScenario.node[685].appl 	IntersectionExitTime 	-1
scalar IntersectionExampleScenario.node[685].appl 	NumberOfCollisions 	0
scalar IntersectionExampleScenario.node[685].nic.phy80211p 	busyTime 	0
scalar IntersectionExampleScenario.node[685].nic.mac1609_4 	ReceivedUnicastPackets 	0
scalar IntersectionExampleScenario.node[685].nic.mac1609_4 	ReceivedBroadcasts 	0
scalar IntersectionExampleScenario.node[685].nic.mac1609_4 	SentPackets 	0
scalar IntersectionExampleScenario.node[685].nic.mac1609_4 	SNIRLostPackets 	0
scalar IntersectionExampleScenario.node[685].nic.mac1609_4 	RXTXLostPackets 	0
scalar IntersectionExampleScenario.node[685].nic.mac1609_4 	TotalLostPackets 	0
scalar IntersectionExampleScenario.node[685].nic.mac1609_4 	DroppedPacketsInMac 	0
scalar IntersectionExampleScenario.node[685].nic.mac1609_4 	TooLittleTime 	0
scalar IntersectionExampleScenario.node[685].nic.mac1609_4 	TimesIntoBackoff 	0
scalar IntersectionExampleScenario.node[685].nic.mac1609_4 	SlotsBackoff 	0
scalar IntersectionExampleScenario.node[685].nic.mac1609_4 	NumInternalContention 	0
scalar IntersectionExampleScenario.node[685].nic.mac1609_4 	totalBusyTime 	0
scalar IntersectionExampleScenario.node[685].veinsmobility 	startTime 	1792.75
scalar IntersectionExampleScenario.node[685].veinsmobility 	totalTime 	7.25
scalar IntersectionExampleScenario.node[685].veinsmobility 	stopTime 	1800
scalar IntersectionExampleScenario.node[685].veinsmobility 	minSpeed 	5.6500000953674
scalar IntersectionExampleScenario.node[685].veinsmobility 	maxSpeed 	15.64999961853
scalar IntersectionExampleScenario.node[685].veinsmobility 	totalDistance 	90.811592102051
scalar IntersectionExampleScenario.node[685].veinsmobility 	totalCO2Emission 	40.09180864622
scalar IntersectionExampleScenario.node[686].appl 	VehicleRemoved 	0
scalar IntersectionExampleScenario.node[686].appl 	ArrivedAtDest 	0
scalar IntersectionExampleScenario.node[686].appl 	IntersectionEnterTime 	1794.25
scalar IntersectionExampleScenario.node[686].appl 	IntersectionExitTime 	-1
scalar IntersectionExampleScenario.node[686].appl 	NumberOfCollisions 	0
scalar IntersectionExampleScenario.node[686].nic.phy80211p 	busyTime 	0
scalar IntersectionExampleScenario.node[686].nic.mac1609_4 	ReceivedUnicastPackets 	0
scalar IntersectionExampleScenario.node[686].nic.mac1609_4 	ReceivedBroadcasts 	0
scalar IntersectionExampleScenario.node[686].nic.mac1609_4 	SentPackets 	0
scalar IntersectionExampleScenario.node[686].nic.mac1609_4 	SNIRLostPackets 	0
scalar IntersectionExampleScenario.node[686].nic.mac1609_4 	RXTXLostPackets 	0
scalar IntersectionExampleScenario.node[686].nic.mac1609_4 	TotalLostPackets 	0
scalar IntersectionExampleScenario.node[686].nic.mac1609_4 	DroppedPacketsInMac 	0
scalar IntersectionExampleScenario.node[686].nic.mac1609_4 	TooLittleTime 	0
scalar IntersectionExampleScenario.node[686].nic.mac1609_4 	TimesIntoBackoff 	0
scalar IntersectionExampleScenario.node[686].nic.mac1609_4 	SlotsBackoff 	0
scalar IntersectionExampleScenario.node[686].nic.mac1609_4 	NumInternalContention 	0
scalar IntersectionExampleScenario.node[686].nic.mac1609_4 	totalBusyTime 	0
scalar IntersectionExampleScenario.node[686].veinsmobility 	startTime 	1794.25
scalar IntersectionExampleScenario.node[686].veinsmobility 	totalTime 	5.75
scalar IntersectionExampleScenario.node[686].veinsmobility 	stopTime 	1800
scalar IntersectionExampleScenario.node[686].veinsmobility 	minSpeed 	5.6500000953674
scalar IntersectionExampleScenario.node[686].veinsmobility 	maxSpeed 	15.64999961853
scalar IntersectionExampleScenario.node[686].veinsmobility 	totalDistance 	67.350112915039
scalar IntersectionExampleScenario.node[686].veinsmobility 	totalCO2Emission 	36.651058817234
