version 2
run nodebug-38-20200606-22:01:47-21964
attr configname nodebug
attr datetime 20200606-22:01:47
attr experiment nodebug
attr inifile omnetpp.ini
attr iterationvars ""
attr iterationvars2 $repetition=38
attr measurement ""
attr network "\"org.car2x.veins.modules.application.ExtTraCIScenarioManagerLaunchd.IntersectionExampleScenario\""
attr processid 21964
attr repetition 38
attr replication #38
attr resultdir results
attr runnumber 38
attr seedset 38
param **.coreDebug false
param **.debug false
param *.**.nic.mac1609_4.bitrate 18Mbps
param *.**.nic.mac1609_4.txPower 20mW
param *.**.nic.mac1609_4.useServiceChannel false
param *.**.nic.phy80211p.analogueModels "xmldoc(\"config.xml\")"
param *.**.nic.phy80211p.decider "xmldoc(\"config.xml\")"
param *.**.nic.phy80211p.sensitivity -89dBm
param *.**.nic.phy80211p.thermalNoise -110dBm
param *.**.nic.phy80211p.usePropagationDelay true
param *.**.nic.phy80211p.useThermalNoise true
param *.annotations.draw false
param *.connectionManager.alpha 2.0
param *.connectionManager.carrierFrequency "5.890e9 Hz"
param *.connectionManager.pMax 20mW
param *.connectionManager.sat -89dBm
param *.connectionManager.sendDirect true
param *.manager.autoShutdown true
param *.manager.host "\"localhost\""
param *.manager.launchConfig "xmldoc(\"paramics.launchd.xml\")"
param *.manager.margin 25
param *.manager.moduleDisplayString "\"\""
param *.manager.moduleName "\"node\""
param *.manager.moduleType "\"org.car2x.veins.nodes.Car\""
param *.manager.port 9999
param *.manager.updateInterval 250ms
param *.node[*0].veinsmobility.accidentCount 0
param *.node[*0].veinsmobility.accidentDuration 30s
param *.node[*0].veinsmobility.accidentStart 75s
param *.node[*].appl.LiderSelectZoneRadio 55.0
param *.node[*].appl.ShareDataZoneRadio 110.0
param *.node[*].appl.TiempoSemaforo 30.0
param *.node[*].appl.beaconInterval 1s
param *.node[*].appl.beaconPriority 3
param *.node[*].appl.dataOnSch false
param *.node[*].appl.dataPriority 2
param *.node[*].appl.debug false
param *.node[*].appl.headerLength "256 bit"
param *.node[*].appl.maxOffset 0.005s
param *.node[*].appl.sendBeacons false
param *.node[*].appl.sendData true
param *.node[*].applType "\"Dummy\""
param *.node[*].mobilityType "\"TraCIMobility\""
param *.node[*].mobilityType.debug true
param *.node[*].veinsmobility.x 0
param *.node[*].veinsmobility.y 0
param *.node[*].veinsmobility.z 1.895
param *.node[*].veinsmobilityType "\"org.car2x.veins.modules.mobility.traci.TraCIMobility\""
param *.node[*].veinsmobilityType.debug true
param *.playgroundSizeX 8500m
param *.playgroundSizeY 8500m
param *.playgroundSizeZ 50m
param *.world.use2D false
param *.world.useTorus false

scalar IntersectionExampleScenario.node[1].appl 	VehicleRemoved 	0
scalar IntersectionExampleScenario.node[1].appl 	ArrivedAtDest 	1
scalar IntersectionExampleScenario.node[1].appl 	IntersectionEnterTime 	15.5
scalar IntersectionExampleScenario.node[1].appl 	IntersectionExitTime 	39.04842348586
scalar IntersectionExampleScenario.node[1].appl 	NumberOfCollisions 	0
scalar IntersectionExampleScenario.node[1].nic.phy80211p 	busyTime 	0
scalar IntersectionExampleScenario.node[1].nic.mac1609_4 	ReceivedUnicastPackets 	0
scalar IntersectionExampleScenario.node[1].nic.mac1609_4 	ReceivedBroadcasts 	0
scalar IntersectionExampleScenario.node[1].nic.mac1609_4 	SentPackets 	0
scalar IntersectionExampleScenario.node[1].nic.mac1609_4 	SNIRLostPackets 	0
scalar IntersectionExampleScenario.node[1].nic.mac1609_4 	RXTXLostPackets 	0
scalar IntersectionExampleScenario.node[1].nic.mac1609_4 	TotalLostPackets 	0
scalar IntersectionExampleScenario.node[1].nic.mac1609_4 	DroppedPacketsInMac 	0
scalar IntersectionExampleScenario.node[1].nic.mac1609_4 	TooLittleTime 	0
scalar IntersectionExampleScenario.node[1].nic.mac1609_4 	TimesIntoBackoff 	0
scalar IntersectionExampleScenario.node[1].nic.mac1609_4 	SlotsBackoff 	0
scalar IntersectionExampleScenario.node[1].nic.mac1609_4 	NumInternalContention 	0
scalar IntersectionExampleScenario.node[1].nic.mac1609_4 	totalBusyTime 	0
scalar IntersectionExampleScenario.node[1].veinsmobility 	startTime 	15.5
scalar IntersectionExampleScenario.node[1].veinsmobility 	totalTime 	40
scalar IntersectionExampleScenario.node[1].veinsmobility 	stopTime 	55.75
scalar IntersectionExampleScenario.node[1].veinsmobility 	minSpeed 	5.6500000953674
scalar IntersectionExampleScenario.node[1].veinsmobility 	maxSpeed 	15.875
scalar IntersectionExampleScenario.node[1].veinsmobility 	totalDistance 	543.82093373126
scalar IntersectionExampleScenario.node[1].veinsmobility 	totalCO2Emission 	126.97611641012
scalar IntersectionExampleScenario.node[2].appl 	VehicleRemoved 	0
scalar IntersectionExampleScenario.node[2].appl 	ArrivedAtDest 	1
scalar IntersectionExampleScenario.node[2].appl 	IntersectionEnterTime 	18.5
scalar IntersectionExampleScenario.node[2].appl 	IntersectionExitTime 	41.304804269137
scalar IntersectionExampleScenario.node[2].appl 	NumberOfCollisions 	0
scalar IntersectionExampleScenario.node[2].nic.phy80211p 	busyTime 	0
scalar IntersectionExampleScenario.node[2].nic.mac1609_4 	ReceivedUnicastPackets 	0
scalar IntersectionExampleScenario.node[2].nic.mac1609_4 	ReceivedBroadcasts 	0
scalar IntersectionExampleScenario.node[2].nic.mac1609_4 	SentPackets 	0
scalar IntersectionExampleScenario.node[2].nic.mac1609_4 	SNIRLostPackets 	0
scalar IntersectionExampleScenario.node[2].nic.mac1609_4 	RXTXLostPackets 	0
scalar IntersectionExampleScenario.node[2].nic.mac1609_4 	TotalLostPackets 	0
scalar IntersectionExampleScenario.node[2].nic.mac1609_4 	DroppedPacketsInMac 	0
scalar IntersectionExampleScenario.node[2].nic.mac1609_4 	TooLittleTime 	0
scalar IntersectionExampleScenario.node[2].nic.mac1609_4 	TimesIntoBackoff 	0
scalar IntersectionExampleScenario.node[2].nic.mac1609_4 	SlotsBackoff 	0
scalar IntersectionExampleScenario.node[2].nic.mac1609_4 	NumInternalContention 	0
scalar IntersectionExampleScenario.node[2].nic.mac1609_4 	totalBusyTime 	0
scalar IntersectionExampleScenario.node[2].veinsmobility 	startTime 	18.5
scalar IntersectionExampleScenario.node[2].veinsmobility 	totalTime 	38.5
scalar IntersectionExampleScenario.node[2].veinsmobility 	stopTime 	57.25
scalar IntersectionExampleScenario.node[2].veinsmobility 	minSpeed 	5.6500000953674
scalar IntersectionExampleScenario.node[2].veinsmobility 	maxSpeed 	15.64999961853
scalar IntersectionExampleScenario.node[2].veinsmobility 	totalDistance 	551.90103912354
scalar IntersectionExampleScenario.node[2].veinsmobility 	totalCO2Emission 	118.09027269579
scalar IntersectionExampleScenario.node[0].appl 	VehicleRemoved 	0
scalar IntersectionExampleScenario.node[0].appl 	ArrivedAtDest 	1
scalar IntersectionExampleScenario.node[0].appl 	IntersectionEnterTime 	11.5
scalar IntersectionExampleScenario.node[0].appl 	IntersectionExitTime 	43.337853111385
scalar IntersectionExampleScenario.node[0].appl 	NumberOfCollisions 	0
scalar IntersectionExampleScenario.node[0].nic.phy80211p 	busyTime 	0
scalar IntersectionExampleScenario.node[0].nic.mac1609_4 	ReceivedUnicastPackets 	0
scalar IntersectionExampleScenario.node[0].nic.mac1609_4 	ReceivedBroadcasts 	0
scalar IntersectionExampleScenario.node[0].nic.mac1609_4 	SentPackets 	0
scalar IntersectionExampleScenario.node[0].nic.mac1609_4 	SNIRLostPackets 	0
scalar IntersectionExampleScenario.node[0].nic.mac1609_4 	RXTXLostPackets 	0
scalar IntersectionExampleScenario.node[0].nic.mac1609_4 	TotalLostPackets 	0
scalar IntersectionExampleScenario.node[0].nic.mac1609_4 	DroppedPacketsInMac 	0
scalar IntersectionExampleScenario.node[0].nic.mac1609_4 	TooLittleTime 	0
scalar IntersectionExampleScenario.node[0].nic.mac1609_4 	TimesIntoBackoff 	0
scalar IntersectionExampleScenario.node[0].nic.mac1609_4 	SlotsBackoff 	0
scalar IntersectionExampleScenario.node[0].nic.mac1609_4 	NumInternalContention 	0
scalar IntersectionExampleScenario.node[0].nic.mac1609_4 	totalBusyTime 	0
scalar IntersectionExampleScenario.node[0].veinsmobility 	startTime 	11.5
scalar IntersectionExampleScenario.node[0].veinsmobility 	totalTime 	48.25
scalar IntersectionExampleScenario.node[0].veinsmobility 	stopTime 	60
scalar IntersectionExampleScenario.node[0].veinsmobility 	minSpeed 	0
scalar IntersectionExampleScenario.node[0].veinsmobility 	maxSpeed 	15.02499961853
scalar IntersectionExampleScenario.node[0].veinsmobility 	totalDistance 	551.77279663086
scalar IntersectionExampleScenario.node[0].veinsmobility 	totalCO2Emission 	136.29514085034
scalar IntersectionExampleScenario.node[3].appl 	VehicleRemoved 	0
scalar IntersectionExampleScenario.node[3].appl 	ArrivedAtDest 	1
scalar IntersectionExampleScenario.node[3].appl 	IntersectionEnterTime 	20.25
scalar IntersectionExampleScenario.node[3].appl 	IntersectionExitTime 	43.820282892644
scalar IntersectionExampleScenario.node[3].appl 	NumberOfCollisions 	0
scalar IntersectionExampleScenario.node[3].nic.phy80211p 	busyTime 	0
scalar IntersectionExampleScenario.node[3].nic.mac1609_4 	ReceivedUnicastPackets 	0
scalar IntersectionExampleScenario.node[3].nic.mac1609_4 	ReceivedBroadcasts 	0
scalar IntersectionExampleScenario.node[3].nic.mac1609_4 	SentPackets 	0
scalar IntersectionExampleScenario.node[3].nic.mac1609_4 	SNIRLostPackets 	0
scalar IntersectionExampleScenario.node[3].nic.mac1609_4 	RXTXLostPackets 	0
scalar IntersectionExampleScenario.node[3].nic.mac1609_4 	TotalLostPackets 	0
scalar IntersectionExampleScenario.node[3].nic.mac1609_4 	DroppedPacketsInMac 	0
scalar IntersectionExampleScenario.node[3].nic.mac1609_4 	TooLittleTime 	0
scalar IntersectionExampleScenario.node[3].nic.mac1609_4 	TimesIntoBackoff 	0
scalar IntersectionExampleScenario.node[3].nic.mac1609_4 	SlotsBackoff 	0
scalar IntersectionExampleScenario.node[3].nic.mac1609_4 	NumInternalContention 	0
scalar IntersectionExampleScenario.node[3].nic.mac1609_4 	totalBusyTime 	0
scalar IntersectionExampleScenario.node[3].veinsmobility 	startTime 	20.25
scalar IntersectionExampleScenario.node[3].veinsmobility 	totalTime 	40
scalar IntersectionExampleScenario.node[3].veinsmobility 	stopTime 	60.5
scalar IntersectionExampleScenario.node[3].veinsmobility 	minSpeed 	5.6500000953674
scalar IntersectionExampleScenario.node[3].veinsmobility 	maxSpeed 	15.375
scalar IntersectionExampleScenario.node[3].veinsmobility 	totalDistance 	549.96071449228
scalar IntersectionExampleScenario.node[3].veinsmobility 	totalCO2Emission 	123.51017785917
scalar IntersectionExampleScenario.node[5].appl 	VehicleRemoved 	0
scalar IntersectionExampleScenario.node[5].appl 	ArrivedAtDest 	1
scalar IntersectionExampleScenario.node[5].appl 	IntersectionEnterTime 	30.5
scalar IntersectionExampleScenario.node[5].appl 	IntersectionExitTime 	52.068715133559
scalar IntersectionExampleScenario.node[5].appl 	NumberOfCollisions 	0
scalar IntersectionExampleScenario.node[5].nic.phy80211p 	busyTime 	0
scalar IntersectionExampleScenario.node[5].nic.mac1609_4 	ReceivedUnicastPackets 	0
scalar IntersectionExampleScenario.node[5].nic.mac1609_4 	ReceivedBroadcasts 	0
scalar IntersectionExampleScenario.node[5].nic.mac1609_4 	SentPackets 	0
scalar IntersectionExampleScenario.node[5].nic.mac1609_4 	SNIRLostPackets 	0
scalar IntersectionExampleScenario.node[5].nic.mac1609_4 	RXTXLostPackets 	0
scalar IntersectionExampleScenario.node[5].nic.mac1609_4 	TotalLostPackets 	0
scalar IntersectionExampleScenario.node[5].nic.mac1609_4 	DroppedPacketsInMac 	0
scalar IntersectionExampleScenario.node[5].nic.mac1609_4 	TooLittleTime 	0
scalar IntersectionExampleScenario.node[5].nic.mac1609_4 	TimesIntoBackoff 	0
scalar IntersectionExampleScenario.node[5].nic.mac1609_4 	SlotsBackoff 	0
scalar IntersectionExampleScenario.node[5].nic.mac1609_4 	NumInternalContention 	0
scalar IntersectionExampleScenario.node[5].nic.mac1609_4 	totalBusyTime 	0
scalar IntersectionExampleScenario.node[5].veinsmobility 	startTime 	30.5
scalar IntersectionExampleScenario.node[5].veinsmobility 	totalTime 	36.25
scalar IntersectionExampleScenario.node[5].veinsmobility 	stopTime 	67
scalar IntersectionExampleScenario.node[5].veinsmobility 	minSpeed 	5.6500000953674
scalar IntersectionExampleScenario.node[5].veinsmobility 	maxSpeed 	16.89999961853
scalar IntersectionExampleScenario.node[5].veinsmobility 	totalDistance 	550.84372711182
scalar IntersectionExampleScenario.node[5].veinsmobility 	totalCO2Emission 	126.76720254772
scalar IntersectionExampleScenario.node[6].appl 	VehicleRemoved 	0
scalar IntersectionExampleScenario.node[6].appl 	ArrivedAtDest 	1
scalar IntersectionExampleScenario.node[6].appl 	IntersectionEnterTime 	31.75
scalar IntersectionExampleScenario.node[6].appl 	IntersectionExitTime 	54.05606683236
scalar IntersectionExampleScenario.node[6].appl 	NumberOfCollisions 	0
scalar IntersectionExampleScenario.node[6].nic.phy80211p 	busyTime 	0
scalar IntersectionExampleScenario.node[6].nic.mac1609_4 	ReceivedUnicastPackets 	0
scalar IntersectionExampleScenario.node[6].nic.mac1609_4 	ReceivedBroadcasts 	0
scalar IntersectionExampleScenario.node[6].nic.mac1609_4 	SentPackets 	0
scalar IntersectionExampleScenario.node[6].nic.mac1609_4 	SNIRLostPackets 	0
scalar IntersectionExampleScenario.node[6].nic.mac1609_4 	RXTXLostPackets 	0
scalar IntersectionExampleScenario.node[6].nic.mac1609_4 	TotalLostPackets 	0
scalar IntersectionExampleScenario.node[6].nic.mac1609_4 	DroppedPacketsInMac 	0
scalar IntersectionExampleScenario.node[6].nic.mac1609_4 	TooLittleTime 	0
scalar IntersectionExampleScenario.node[6].nic.mac1609_4 	TimesIntoBackoff 	0
scalar IntersectionExampleScenario.node[6].nic.mac1609_4 	SlotsBackoff 	0
scalar IntersectionExampleScenario.node[6].nic.mac1609_4 	NumInternalContention 	0
scalar IntersectionExampleScenario.node[6].nic.mac1609_4 	totalBusyTime 	0
scalar IntersectionExampleScenario.node[6].veinsmobility 	startTime 	31.75
scalar IntersectionExampleScenario.node[6].veinsmobility 	totalTime 	38
scalar IntersectionExampleScenario.node[6].veinsmobility 	stopTime 	70
scalar IntersectionExampleScenario.node[6].veinsmobility 	minSpeed 	5.6500000953674
scalar IntersectionExampleScenario.node[6].veinsmobility 	maxSpeed 	16.27499961853
scalar IntersectionExampleScenario.node[6].veinsmobility 	totalDistance 	554.32373046875
scalar IntersectionExampleScenario.node[6].veinsmobility 	totalCO2Emission 	121.15983077611
scalar IntersectionExampleScenario.node[7].appl 	VehicleRemoved 	0
scalar IntersectionExampleScenario.node[7].appl 	ArrivedAtDest 	1
scalar IntersectionExampleScenario.node[7].appl 	IntersectionEnterTime 	32.75
scalar IntersectionExampleScenario.node[7].appl 	IntersectionExitTime 	56.849129326321
scalar IntersectionExampleScenario.node[7].appl 	NumberOfCollisions 	0
scalar IntersectionExampleScenario.node[7].nic.phy80211p 	busyTime 	0
scalar IntersectionExampleScenario.node[7].nic.mac1609_4 	ReceivedUnicastPackets 	0
scalar IntersectionExampleScenario.node[7].nic.mac1609_4 	ReceivedBroadcasts 	0
scalar IntersectionExampleScenario.node[7].nic.mac1609_4 	SentPackets 	0
scalar IntersectionExampleScenario.node[7].nic.mac1609_4 	SNIRLostPackets 	0
scalar IntersectionExampleScenario.node[7].nic.mac1609_4 	RXTXLostPackets 	0
scalar IntersectionExampleScenario.node[7].nic.mac1609_4 	TotalLostPackets 	0
scalar IntersectionExampleScenario.node[7].nic.mac1609_4 	DroppedPacketsInMac 	0
scalar IntersectionExampleScenario.node[7].nic.mac1609_4 	TooLittleTime 	0
scalar IntersectionExampleScenario.node[7].nic.mac1609_4 	TimesIntoBackoff 	0
scalar IntersectionExampleScenario.node[7].nic.mac1609_4 	SlotsBackoff 	0
scalar IntersectionExampleScenario.node[7].nic.mac1609_4 	NumInternalContention 	0
scalar IntersectionExampleScenario.node[7].nic.mac1609_4 	totalBusyTime 	0
scalar IntersectionExampleScenario.node[7].veinsmobility 	startTime 	32.75
scalar IntersectionExampleScenario.node[7].veinsmobility 	totalTime 	40
scalar IntersectionExampleScenario.node[7].veinsmobility 	stopTime 	73
scalar IntersectionExampleScenario.node[7].veinsmobility 	minSpeed 	5.6500000953674
scalar IntersectionExampleScenario.node[7].veinsmobility 	maxSpeed 	16.27499961853
scalar IntersectionExampleScenario.node[7].veinsmobility 	totalDistance 	569.35467930563
scalar IntersectionExampleScenario.node[7].veinsmobility 	totalCO2Emission 	128.22850777003
scalar IntersectionExampleScenario.node[10].appl 	VehicleRemoved 	0
scalar IntersectionExampleScenario.node[10].appl 	ArrivedAtDest 	1
scalar IntersectionExampleScenario.node[10].appl 	IntersectionEnterTime 	39.25
scalar IntersectionExampleScenario.node[10].appl 	IntersectionExitTime 	62.019047656417
scalar IntersectionExampleScenario.node[10].appl 	NumberOfCollisions 	0
scalar IntersectionExampleScenario.node[10].nic.phy80211p 	busyTime 	0
scalar IntersectionExampleScenario.node[10].nic.mac1609_4 	ReceivedUnicastPackets 	0
scalar IntersectionExampleScenario.node[10].nic.mac1609_4 	ReceivedBroadcasts 	0
scalar IntersectionExampleScenario.node[10].nic.mac1609_4 	SentPackets 	0
scalar IntersectionExampleScenario.node[10].nic.mac1609_4 	SNIRLostPackets 	0
scalar IntersectionExampleScenario.node[10].nic.mac1609_4 	RXTXLostPackets 	0
scalar IntersectionExampleScenario.node[10].nic.mac1609_4 	TotalLostPackets 	0
scalar IntersectionExampleScenario.node[10].nic.mac1609_4 	DroppedPacketsInMac 	0
scalar IntersectionExampleScenario.node[10].nic.mac1609_4 	TooLittleTime 	0
scalar IntersectionExampleScenario.node[10].nic.mac1609_4 	TimesIntoBackoff 	0
scalar IntersectionExampleScenario.node[10].nic.mac1609_4 	SlotsBackoff 	0
scalar IntersectionExampleScenario.node[10].nic.mac1609_4 	NumInternalContention 	0
scalar IntersectionExampleScenario.node[10].nic.mac1609_4 	totalBusyTime 	0
scalar IntersectionExampleScenario.node[10].veinsmobility 	startTime 	39.25
scalar IntersectionExampleScenario.node[10].veinsmobility 	totalTime 	38
scalar IntersectionExampleScenario.node[10].veinsmobility 	stopTime 	77.5
scalar IntersectionExampleScenario.node[10].veinsmobility 	minSpeed 	5.6500000953674
scalar IntersectionExampleScenario.node[10].veinsmobility 	maxSpeed 	16.125
scalar IntersectionExampleScenario.node[10].veinsmobility 	totalDistance 	553.41519927979
scalar IntersectionExampleScenario.node[10].veinsmobility 	totalCO2Emission 	128.5984708173
scalar IntersectionExampleScenario.node[4].appl 	VehicleRemoved 	0
scalar IntersectionExampleScenario.node[4].appl 	ArrivedAtDest 	1
scalar IntersectionExampleScenario.node[4].appl 	IntersectionEnterTime 	28.25
scalar IntersectionExampleScenario.node[4].appl 	IntersectionExitTime 	61.60289696962
scalar IntersectionExampleScenario.node[4].appl 	NumberOfCollisions 	0
scalar IntersectionExampleScenario.node[4].nic.phy80211p 	busyTime 	0
scalar IntersectionExampleScenario.node[4].nic.mac1609_4 	ReceivedUnicastPackets 	0
scalar IntersectionExampleScenario.node[4].nic.mac1609_4 	ReceivedBroadcasts 	0
scalar IntersectionExampleScenario.node[4].nic.mac1609_4 	SentPackets 	0
scalar IntersectionExampleScenario.node[4].nic.mac1609_4 	SNIRLostPackets 	0
scalar IntersectionExampleScenario.node[4].nic.mac1609_4 	RXTXLostPackets 	0
scalar IntersectionExampleScenario.node[4].nic.mac1609_4 	TotalLostPackets 	0
scalar IntersectionExampleScenario.node[4].nic.mac1609_4 	DroppedPacketsInMac 	0
scalar IntersectionExampleScenario.node[4].nic.mac1609_4 	TooLittleTime 	0
scalar IntersectionExampleScenario.node[4].nic.mac1609_4 	TimesIntoBackoff 	0
scalar IntersectionExampleScenario.node[4].nic.mac1609_4 	SlotsBackoff 	0
scalar IntersectionExampleScenario.node[4].nic.mac1609_4 	NumInternalContention 	0
scalar IntersectionExampleScenario.node[4].nic.mac1609_4 	totalBusyTime 	0
scalar IntersectionExampleScenario.node[4].veinsmobility 	startTime 	28.25
scalar IntersectionExampleScenario.node[4].veinsmobility 	totalTime 	50.25
scalar IntersectionExampleScenario.node[4].veinsmobility 	stopTime 	78.75
scalar IntersectionExampleScenario.node[4].veinsmobility 	minSpeed 	0
scalar IntersectionExampleScenario.node[4].veinsmobility 	maxSpeed 	15.25
scalar IntersectionExampleScenario.node[4].veinsmobility 	totalDistance 	544.46379758269
scalar IntersectionExampleScenario.node[4].veinsmobility 	totalCO2Emission 	139.70199564102
scalar IntersectionExampleScenario.node[8].appl 	VehicleRemoved 	0
scalar IntersectionExampleScenario.node[8].appl 	ArrivedAtDest 	1
scalar IntersectionExampleScenario.node[8].appl 	IntersectionEnterTime 	35.75
scalar IntersectionExampleScenario.node[8].appl 	IntersectionExitTime 	64.280205149116
scalar IntersectionExampleScenario.node[8].appl 	NumberOfCollisions 	0
scalar IntersectionExampleScenario.node[8].nic.phy80211p 	busyTime 	0
scalar IntersectionExampleScenario.node[8].nic.mac1609_4 	ReceivedUnicastPackets 	0
scalar IntersectionExampleScenario.node[8].nic.mac1609_4 	ReceivedBroadcasts 	0
scalar IntersectionExampleScenario.node[8].nic.mac1609_4 	SentPackets 	0
scalar IntersectionExampleScenario.node[8].nic.mac1609_4 	SNIRLostPackets 	0
scalar IntersectionExampleScenario.node[8].nic.mac1609_4 	RXTXLostPackets 	0
scalar IntersectionExampleScenario.node[8].nic.mac1609_4 	TotalLostPackets 	0
scalar IntersectionExampleScenario.node[8].nic.mac1609_4 	DroppedPacketsInMac 	0
scalar IntersectionExampleScenario.node[8].nic.mac1609_4 	TooLittleTime 	0
scalar IntersectionExampleScenario.node[8].nic.mac1609_4 	TimesIntoBackoff 	0
scalar IntersectionExampleScenario.node[8].nic.mac1609_4 	SlotsBackoff 	0
scalar IntersectionExampleScenario.node[8].nic.mac1609_4 	NumInternalContention 	0
scalar IntersectionExampleScenario.node[8].nic.mac1609_4 	totalBusyTime 	0
scalar IntersectionExampleScenario.node[8].veinsmobility 	startTime 	35.75
scalar IntersectionExampleScenario.node[8].veinsmobility 	totalTime 	45
scalar IntersectionExampleScenario.node[8].veinsmobility 	stopTime 	81
scalar IntersectionExampleScenario.node[8].veinsmobility 	minSpeed 	3.7530834674835
scalar IntersectionExampleScenario.node[8].veinsmobility 	maxSpeed 	15.64999961853
scalar IntersectionExampleScenario.node[8].veinsmobility 	totalDistance 	542.88968496141
scalar IntersectionExampleScenario.node[8].veinsmobility 	totalCO2Emission 	131.86639296318
scalar IntersectionExampleScenario.node[9].appl 	VehicleRemoved 	0
scalar IntersectionExampleScenario.node[9].appl 	ArrivedAtDest 	1
scalar IntersectionExampleScenario.node[9].appl 	IntersectionEnterTime 	36.75
scalar IntersectionExampleScenario.node[9].appl 	IntersectionExitTime 	66.023034837272
scalar IntersectionExampleScenario.node[9].appl 	NumberOfCollisions 	0
scalar IntersectionExampleScenario.node[9].nic.phy80211p 	busyTime 	0
scalar IntersectionExampleScenario.node[9].nic.mac1609_4 	ReceivedUnicastPackets 	0
scalar IntersectionExampleScenario.node[9].nic.mac1609_4 	ReceivedBroadcasts 	0
scalar IntersectionExampleScenario.node[9].nic.mac1609_4 	SentPackets 	0
scalar IntersectionExampleScenario.node[9].nic.mac1609_4 	SNIRLostPackets 	0
scalar IntersectionExampleScenario.node[9].nic.mac1609_4 	RXTXLostPackets 	0
scalar IntersectionExampleScenario.node[9].nic.mac1609_4 	TotalLostPackets 	0
scalar IntersectionExampleScenario.node[9].nic.mac1609_4 	DroppedPacketsInMac 	0
scalar IntersectionExampleScenario.node[9].nic.mac1609_4 	TooLittleTime 	0
scalar IntersectionExampleScenario.node[9].nic.mac1609_4 	TimesIntoBackoff 	0
scalar IntersectionExampleScenario.node[9].nic.mac1609_4 	SlotsBackoff 	0
scalar IntersectionExampleScenario.node[9].nic.mac1609_4 	NumInternalContention 	0
scalar IntersectionExampleScenario.node[9].nic.mac1609_4 	totalBusyTime 	0
scalar IntersectionExampleScenario.node[9].veinsmobility 	startTime 	36.75
scalar IntersectionExampleScenario.node[9].veinsmobility 	totalTime 	44.75
scalar IntersectionExampleScenario.node[9].veinsmobility 	stopTime 	81.75
scalar IntersectionExampleScenario.node[9].veinsmobility 	minSpeed 	4.288357257843
scalar IntersectionExampleScenario.node[9].veinsmobility 	maxSpeed 	16.625
scalar IntersectionExampleScenario.node[9].veinsmobility 	totalDistance 	574.69261607422
scalar IntersectionExampleScenario.node[9].veinsmobility 	totalCO2Emission 	148.32637990974
scalar IntersectionExampleScenario.node[13].appl 	VehicleRemoved 	0
scalar IntersectionExampleScenario.node[13].appl 	ArrivedAtDest 	1
scalar IntersectionExampleScenario.node[13].appl 	IntersectionEnterTime 	47.75
scalar IntersectionExampleScenario.node[13].appl 	IntersectionExitTime 	70.764394597994
scalar IntersectionExampleScenario.node[13].appl 	NumberOfCollisions 	0
scalar IntersectionExampleScenario.node[13].nic.phy80211p 	busyTime 	0
scalar IntersectionExampleScenario.node[13].nic.mac1609_4 	ReceivedUnicastPackets 	0
scalar IntersectionExampleScenario.node[13].nic.mac1609_4 	ReceivedBroadcasts 	0
scalar IntersectionExampleScenario.node[13].nic.mac1609_4 	SentPackets 	0
scalar IntersectionExampleScenario.node[13].nic.mac1609_4 	SNIRLostPackets 	0
scalar IntersectionExampleScenario.node[13].nic.mac1609_4 	RXTXLostPackets 	0
scalar IntersectionExampleScenario.node[13].nic.mac1609_4 	TotalLostPackets 	0
scalar IntersectionExampleScenario.node[13].nic.mac1609_4 	DroppedPacketsInMac 	0
scalar IntersectionExampleScenario.node[13].nic.mac1609_4 	TooLittleTime 	0
scalar IntersectionExampleScenario.node[13].nic.mac1609_4 	TimesIntoBackoff 	0
scalar IntersectionExampleScenario.node[13].nic.mac1609_4 	SlotsBackoff 	0
scalar IntersectionExampleScenario.node[13].nic.mac1609_4 	NumInternalContention 	0
scalar IntersectionExampleScenario.node[13].nic.mac1609_4 	totalBusyTime 	0
scalar IntersectionExampleScenario.node[13].veinsmobility 	startTime 	47.75
scalar IntersectionExampleScenario.node[13].veinsmobility 	totalTime 	39.25
scalar IntersectionExampleScenario.node[13].veinsmobility 	stopTime 	87.25
scalar IntersectionExampleScenario.node[13].veinsmobility 	minSpeed 	5.6500000953674
scalar IntersectionExampleScenario.node[13].veinsmobility 	maxSpeed 	15.5
scalar IntersectionExampleScenario.node[13].veinsmobility 	totalDistance 	552.79508209229
scalar IntersectionExampleScenario.node[13].veinsmobility 	totalCO2Emission 	116.15807789636
scalar IntersectionExampleScenario.node[12].appl 	VehicleRemoved 	0
scalar IntersectionExampleScenario.node[12].appl 	ArrivedAtDest 	1
scalar IntersectionExampleScenario.node[12].appl 	IntersectionEnterTime 	44.5
scalar IntersectionExampleScenario.node[12].appl 	IntersectionExitTime 	82.361914115463
scalar IntersectionExampleScenario.node[12].appl 	NumberOfCollisions 	0
scalar IntersectionExampleScenario.node[12].nic.phy80211p 	busyTime 	0
scalar IntersectionExampleScenario.node[12].nic.mac1609_4 	ReceivedUnicastPackets 	0
scalar IntersectionExampleScenario.node[12].nic.mac1609_4 	ReceivedBroadcasts 	0
scalar IntersectionExampleScenario.node[12].nic.mac1609_4 	SentPackets 	0
scalar IntersectionExampleScenario.node[12].nic.mac1609_4 	SNIRLostPackets 	0
scalar IntersectionExampleScenario.node[12].nic.mac1609_4 	RXTXLostPackets 	0
scalar IntersectionExampleScenario.node[12].nic.mac1609_4 	TotalLostPackets 	0
scalar IntersectionExampleScenario.node[12].nic.mac1609_4 	DroppedPacketsInMac 	0
scalar IntersectionExampleScenario.node[12].nic.mac1609_4 	TooLittleTime 	0
scalar IntersectionExampleScenario.node[12].nic.mac1609_4 	TimesIntoBackoff 	0
scalar IntersectionExampleScenario.node[12].nic.mac1609_4 	SlotsBackoff 	0
scalar IntersectionExampleScenario.node[12].nic.mac1609_4 	NumInternalContention 	0
scalar IntersectionExampleScenario.node[12].nic.mac1609_4 	totalBusyTime 	0
scalar IntersectionExampleScenario.node[12].veinsmobility 	startTime 	44.5
scalar IntersectionExampleScenario.node[12].veinsmobility 	totalTime 	53.25
scalar IntersectionExampleScenario.node[12].veinsmobility 	stopTime 	98
scalar IntersectionExampleScenario.node[12].veinsmobility 	minSpeed 	0
scalar IntersectionExampleScenario.node[12].veinsmobility 	maxSpeed 	16.27499961853
scalar IntersectionExampleScenario.node[12].veinsmobility 	totalDistance 	553.59018707275
scalar IntersectionExampleScenario.node[12].veinsmobility 	totalCO2Emission 	150.92290232587
scalar IntersectionExampleScenario.node[11].appl 	VehicleRemoved 	0
scalar IntersectionExampleScenario.node[11].appl 	ArrivedAtDest 	1
scalar IntersectionExampleScenario.node[11].appl 	IntersectionEnterTime 	39.5
scalar IntersectionExampleScenario.node[11].appl 	IntersectionExitTime 	81.608580353844
scalar IntersectionExampleScenario.node[11].appl 	NumberOfCollisions 	0
scalar IntersectionExampleScenario.node[11].nic.phy80211p 	busyTime 	0
scalar IntersectionExampleScenario.node[11].nic.mac1609_4 	ReceivedUnicastPackets 	0
scalar IntersectionExampleScenario.node[11].nic.mac1609_4 	ReceivedBroadcasts 	0
scalar IntersectionExampleScenario.node[11].nic.mac1609_4 	SentPackets 	0
scalar IntersectionExampleScenario.node[11].nic.mac1609_4 	SNIRLostPackets 	0
scalar IntersectionExampleScenario.node[11].nic.mac1609_4 	RXTXLostPackets 	0
scalar IntersectionExampleScenario.node[11].nic.mac1609_4 	TotalLostPackets 	0
scalar IntersectionExampleScenario.node[11].nic.mac1609_4 	DroppedPacketsInMac 	0
scalar IntersectionExampleScenario.node[11].nic.mac1609_4 	TooLittleTime 	0
scalar IntersectionExampleScenario.node[11].nic.mac1609_4 	TimesIntoBackoff 	0
scalar IntersectionExampleScenario.node[11].nic.mac1609_4 	SlotsBackoff 	0
scalar IntersectionExampleScenario.node[11].nic.mac1609_4 	NumInternalContention 	0
scalar IntersectionExampleScenario.node[11].nic.mac1609_4 	totalBusyTime 	0
scalar IntersectionExampleScenario.node[11].veinsmobility 	startTime 	39.5
scalar IntersectionExampleScenario.node[11].veinsmobility 	totalTime 	59.75
scalar IntersectionExampleScenario.node[11].veinsmobility 	stopTime 	99.5
scalar IntersectionExampleScenario.node[11].veinsmobility 	minSpeed 	0
scalar IntersectionExampleScenario.node[11].veinsmobility 	maxSpeed 	14.625
scalar IntersectionExampleScenario.node[11].veinsmobility 	totalDistance 	545.2006750241
scalar IntersectionExampleScenario.node[11].veinsmobility 	totalCO2Emission 	143.59164432828
scalar IntersectionExampleScenario.node[14].appl 	VehicleRemoved 	0
scalar IntersectionExampleScenario.node[14].appl 	ArrivedAtDest 	1
scalar IntersectionExampleScenario.node[14].appl 	IntersectionEnterTime 	51
scalar IntersectionExampleScenario.node[14].appl 	IntersectionExitTime 	84.351417095691
scalar IntersectionExampleScenario.node[14].appl 	NumberOfCollisions 	0
scalar IntersectionExampleScenario.node[14].nic.phy80211p 	busyTime 	0
scalar IntersectionExampleScenario.node[14].nic.mac1609_4 	ReceivedUnicastPackets 	0
scalar IntersectionExampleScenario.node[14].nic.mac1609_4 	ReceivedBroadcasts 	0
scalar IntersectionExampleScenario.node[14].nic.mac1609_4 	SentPackets 	0
scalar IntersectionExampleScenario.node[14].nic.mac1609_4 	SNIRLostPackets 	0
scalar IntersectionExampleScenario.node[14].nic.mac1609_4 	RXTXLostPackets 	0
scalar IntersectionExampleScenario.node[14].nic.mac1609_4 	TotalLostPackets 	0
scalar IntersectionExampleScenario.node[14].nic.mac1609_4 	DroppedPacketsInMac 	0
scalar IntersectionExampleScenario.node[14].nic.mac1609_4 	TooLittleTime 	0
scalar IntersectionExampleScenario.node[14].nic.mac1609_4 	TimesIntoBackoff 	0
scalar IntersectionExampleScenario.node[14].nic.mac1609_4 	SlotsBackoff 	0
scalar IntersectionExampleScenario.node[14].nic.mac1609_4 	NumInternalContention 	0
scalar IntersectionExampleScenario.node[14].nic.mac1609_4 	totalBusyTime 	0
scalar IntersectionExampleScenario.node[14].veinsmobility 	startTime 	51
scalar IntersectionExampleScenario.node[14].veinsmobility 	totalTime 	50.5
scalar IntersectionExampleScenario.node[14].veinsmobility 	stopTime 	101.75
scalar IntersectionExampleScenario.node[14].veinsmobility 	minSpeed 	1.6480298042297
scalar IntersectionExampleScenario.node[14].veinsmobility 	maxSpeed 	15.02499961853
scalar IntersectionExampleScenario.node[14].veinsmobility 	totalDistance 	545.25918837178
scalar IntersectionExampleScenario.node[14].veinsmobility 	totalCO2Emission 	134.03652786246
scalar IntersectionExampleScenario.node[15].appl 	VehicleRemoved 	0
scalar IntersectionExampleScenario.node[15].appl 	ArrivedAtDest 	1
scalar IntersectionExampleScenario.node[15].appl 	IntersectionEnterTime 	51.25
scalar IntersectionExampleScenario.node[15].appl 	IntersectionExitTime 	86.871872628806
scalar IntersectionExampleScenario.node[15].appl 	NumberOfCollisions 	0
scalar IntersectionExampleScenario.node[15].nic.phy80211p 	busyTime 	0
scalar IntersectionExampleScenario.node[15].nic.mac1609_4 	ReceivedUnicastPackets 	0
scalar IntersectionExampleScenario.node[15].nic.mac1609_4 	ReceivedBroadcasts 	0
scalar IntersectionExampleScenario.node[15].nic.mac1609_4 	SentPackets 	0
scalar IntersectionExampleScenario.node[15].nic.mac1609_4 	SNIRLostPackets 	0
scalar IntersectionExampleScenario.node[15].nic.mac1609_4 	RXTXLostPackets 	0
scalar IntersectionExampleScenario.node[15].nic.mac1609_4 	TotalLostPackets 	0
scalar IntersectionExampleScenario.node[15].nic.mac1609_4 	DroppedPacketsInMac 	0
scalar IntersectionExampleScenario.node[15].nic.mac1609_4 	TooLittleTime 	0
scalar IntersectionExampleScenario.node[15].nic.mac1609_4 	TimesIntoBackoff 	0
scalar IntersectionExampleScenario.node[15].nic.mac1609_4 	SlotsBackoff 	0
scalar IntersectionExampleScenario.node[15].nic.mac1609_4 	NumInternalContention 	0
scalar IntersectionExampleScenario.node[15].nic.mac1609_4 	totalBusyTime 	0
scalar IntersectionExampleScenario.node[15].veinsmobility 	startTime 	51.25
scalar IntersectionExampleScenario.node[15].veinsmobility 	totalTime 	52.75
scalar IntersectionExampleScenario.node[15].veinsmobility 	stopTime 	104.25
scalar IntersectionExampleScenario.node[15].veinsmobility 	minSpeed 	3.574520111084
scalar IntersectionExampleScenario.node[15].veinsmobility 	maxSpeed 	14.77986240387
scalar IntersectionExampleScenario.node[15].veinsmobility 	totalDistance 	567.94979829322
scalar IntersectionExampleScenario.node[15].veinsmobility 	totalCO2Emission 	140.54214276589
scalar IntersectionExampleScenario.node[17].appl 	VehicleRemoved 	0
scalar IntersectionExampleScenario.node[17].appl 	ArrivedAtDest 	1
scalar IntersectionExampleScenario.node[17].appl 	IntersectionEnterTime 	59
scalar IntersectionExampleScenario.node[17].appl 	IntersectionExitTime 	89.016913529485
scalar IntersectionExampleScenario.node[17].appl 	NumberOfCollisions 	0
scalar IntersectionExampleScenario.node[17].nic.phy80211p 	busyTime 	0
scalar IntersectionExampleScenario.node[17].nic.mac1609_4 	ReceivedUnicastPackets 	0
scalar IntersectionExampleScenario.node[17].nic.mac1609_4 	ReceivedBroadcasts 	0
scalar IntersectionExampleScenario.node[17].nic.mac1609_4 	SentPackets 	0
scalar IntersectionExampleScenario.node[17].nic.mac1609_4 	SNIRLostPackets 	0
scalar IntersectionExampleScenario.node[17].nic.mac1609_4 	RXTXLostPackets 	0
scalar IntersectionExampleScenario.node[17].nic.mac1609_4 	TotalLostPackets 	0
scalar IntersectionExampleScenario.node[17].nic.mac1609_4 	DroppedPacketsInMac 	0
scalar IntersectionExampleScenario.node[17].nic.mac1609_4 	TooLittleTime 	0
scalar IntersectionExampleScenario.node[17].nic.mac1609_4 	TimesIntoBackoff 	0
scalar IntersectionExampleScenario.node[17].nic.mac1609_4 	SlotsBackoff 	0
scalar IntersectionExampleScenario.node[17].nic.mac1609_4 	NumInternalContention 	0
scalar IntersectionExampleScenario.node[17].nic.mac1609_4 	totalBusyTime 	0
scalar IntersectionExampleScenario.node[17].veinsmobility 	startTime 	59
scalar IntersectionExampleScenario.node[17].veinsmobility 	totalTime 	46.75
scalar IntersectionExampleScenario.node[17].veinsmobility 	stopTime 	106
scalar IntersectionExampleScenario.node[17].veinsmobility 	minSpeed 	4.1035041809082
scalar IntersectionExampleScenario.node[17].veinsmobility 	maxSpeed 	15.241172790527
scalar IntersectionExampleScenario.node[17].veinsmobility 	totalDistance 	544.30176722087
scalar IntersectionExampleScenario.node[17].veinsmobility 	totalCO2Emission 	131.25227879817
scalar IntersectionExampleScenario.node[25].appl 	VehicleRemoved 	0
scalar IntersectionExampleScenario.node[25].appl 	ArrivedAtDest 	1
scalar IntersectionExampleScenario.node[25].appl 	IntersectionEnterTime 	69.5
scalar IntersectionExampleScenario.node[25].appl 	IntersectionExitTime 	92.276334781869
scalar IntersectionExampleScenario.node[25].appl 	NumberOfCollisions 	0
scalar IntersectionExampleScenario.node[25].nic.phy80211p 	busyTime 	0
scalar IntersectionExampleScenario.node[25].nic.mac1609_4 	ReceivedUnicastPackets 	0
scalar IntersectionExampleScenario.node[25].nic.mac1609_4 	ReceivedBroadcasts 	0
scalar IntersectionExampleScenario.node[25].nic.mac1609_4 	SentPackets 	0
scalar IntersectionExampleScenario.node[25].nic.mac1609_4 	SNIRLostPackets 	0
scalar IntersectionExampleScenario.node[25].nic.mac1609_4 	RXTXLostPackets 	0
scalar IntersectionExampleScenario.node[25].nic.mac1609_4 	TotalLostPackets 	0
scalar IntersectionExampleScenario.node[25].nic.mac1609_4 	DroppedPacketsInMac 	0
scalar IntersectionExampleScenario.node[25].nic.mac1609_4 	TooLittleTime 	0
scalar IntersectionExampleScenario.node[25].nic.mac1609_4 	TimesIntoBackoff 	0
scalar IntersectionExampleScenario.node[25].nic.mac1609_4 	SlotsBackoff 	0
scalar IntersectionExampleScenario.node[25].nic.mac1609_4 	NumInternalContention 	0
scalar IntersectionExampleScenario.node[25].nic.mac1609_4 	totalBusyTime 	0
scalar IntersectionExampleScenario.node[25].veinsmobility 	startTime 	69.5
scalar IntersectionExampleScenario.node[25].veinsmobility 	totalTime 	38.25
scalar IntersectionExampleScenario.node[25].veinsmobility 	stopTime 	108
scalar IntersectionExampleScenario.node[25].veinsmobility 	minSpeed 	5.6500000953674
scalar IntersectionExampleScenario.node[25].veinsmobility 	maxSpeed 	16.27499961853
scalar IntersectionExampleScenario.node[25].veinsmobility 	totalDistance 	553.22039794922
scalar IntersectionExampleScenario.node[25].veinsmobility 	totalCO2Emission 	132.01396936419
scalar IntersectionExampleScenario.node[18].appl 	VehicleRemoved 	0
scalar IntersectionExampleScenario.node[18].appl 	ArrivedAtDest 	1
scalar IntersectionExampleScenario.node[18].appl 	IntersectionEnterTime 	61.5
scalar IntersectionExampleScenario.node[18].appl 	IntersectionExitTime 	101.37225502112
scalar IntersectionExampleScenario.node[18].appl 	NumberOfCollisions 	0
scalar IntersectionExampleScenario.node[18].nic.phy80211p 	busyTime 	0
scalar IntersectionExampleScenario.node[18].nic.mac1609_4 	ReceivedUnicastPackets 	0
scalar IntersectionExampleScenario.node[18].nic.mac1609_4 	ReceivedBroadcasts 	0
scalar IntersectionExampleScenario.node[18].nic.mac1609_4 	SentPackets 	0
scalar IntersectionExampleScenario.node[18].nic.mac1609_4 	SNIRLostPackets 	0
scalar IntersectionExampleScenario.node[18].nic.mac1609_4 	RXTXLostPackets 	0
scalar IntersectionExampleScenario.node[18].nic.mac1609_4 	TotalLostPackets 	0
scalar IntersectionExampleScenario.node[18].nic.mac1609_4 	DroppedPacketsInMac 	0
scalar IntersectionExampleScenario.node[18].nic.mac1609_4 	TooLittleTime 	0
scalar IntersectionExampleScenario.node[18].nic.mac1609_4 	TimesIntoBackoff 	0
scalar IntersectionExampleScenario.node[18].nic.mac1609_4 	SlotsBackoff 	0
scalar IntersectionExampleScenario.node[18].nic.mac1609_4 	NumInternalContention 	0
scalar IntersectionExampleScenario.node[18].nic.mac1609_4 	totalBusyTime 	0
scalar IntersectionExampleScenario.node[18].veinsmobility 	startTime 	61.5
scalar IntersectionExampleScenario.node[18].veinsmobility 	totalTime 	56
scalar IntersectionExampleScenario.node[18].veinsmobility 	stopTime 	117.75
scalar IntersectionExampleScenario.node[18].veinsmobility 	minSpeed 	0
scalar IntersectionExampleScenario.node[18].veinsmobility 	maxSpeed 	15.375
scalar IntersectionExampleScenario.node[18].veinsmobility 	totalDistance 	552.79933166504
scalar IntersectionExampleScenario.node[18].veinsmobility 	totalCO2Emission 	146.14541206543
scalar IntersectionExampleScenario.node[16].appl 	VehicleRemoved 	0
scalar IntersectionExampleScenario.node[16].appl 	ArrivedAtDest 	1
scalar IntersectionExampleScenario.node[16].appl 	IntersectionEnterTime 	58.25
scalar IntersectionExampleScenario.node[16].appl 	IntersectionExitTime 	101.26043196116
scalar IntersectionExampleScenario.node[16].appl 	NumberOfCollisions 	0
scalar IntersectionExampleScenario.node[16].nic.phy80211p 	busyTime 	0
scalar IntersectionExampleScenario.node[16].nic.mac1609_4 	ReceivedUnicastPackets 	0
scalar IntersectionExampleScenario.node[16].nic.mac1609_4 	ReceivedBroadcasts 	0
scalar IntersectionExampleScenario.node[16].nic.mac1609_4 	SentPackets 	0
scalar IntersectionExampleScenario.node[16].nic.mac1609_4 	SNIRLostPackets 	0
scalar IntersectionExampleScenario.node[16].nic.mac1609_4 	RXTXLostPackets 	0
scalar IntersectionExampleScenario.node[16].nic.mac1609_4 	TotalLostPackets 	0
scalar IntersectionExampleScenario.node[16].nic.mac1609_4 	DroppedPacketsInMac 	0
scalar IntersectionExampleScenario.node[16].nic.mac1609_4 	TooLittleTime 	0
scalar IntersectionExampleScenario.node[16].nic.mac1609_4 	TimesIntoBackoff 	0
scalar IntersectionExampleScenario.node[16].nic.mac1609_4 	SlotsBackoff 	0
scalar IntersectionExampleScenario.node[16].nic.mac1609_4 	NumInternalContention 	0
scalar IntersectionExampleScenario.node[16].nic.mac1609_4 	totalBusyTime 	0
scalar IntersectionExampleScenario.node[16].veinsmobility 	startTime 	58.25
scalar IntersectionExampleScenario.node[16].veinsmobility 	totalTime 	59.25
scalar IntersectionExampleScenario.node[16].veinsmobility 	stopTime 	117.75
scalar IntersectionExampleScenario.node[16].veinsmobility 	minSpeed 	0
scalar IntersectionExampleScenario.node[16].veinsmobility 	maxSpeed 	15.375
scalar IntersectionExampleScenario.node[16].veinsmobility 	totalDistance 	549.86317552676
scalar IntersectionExampleScenario.node[16].veinsmobility 	totalCO2Emission 	150.57911047298
scalar IntersectionExampleScenario.node[19].appl 	VehicleRemoved 	0
scalar IntersectionExampleScenario.node[19].appl 	ArrivedAtDest 	1
scalar IntersectionExampleScenario.node[19].appl 	IntersectionEnterTime 	65.5
scalar IntersectionExampleScenario.node[19].appl 	IntersectionExitTime 	102.2583986934
scalar IntersectionExampleScenario.node[19].appl 	NumberOfCollisions 	0
scalar IntersectionExampleScenario.node[19].nic.phy80211p 	busyTime 	0
scalar IntersectionExampleScenario.node[19].nic.mac1609_4 	ReceivedUnicastPackets 	0
scalar IntersectionExampleScenario.node[19].nic.mac1609_4 	ReceivedBroadcasts 	0
scalar IntersectionExampleScenario.node[19].nic.mac1609_4 	SentPackets 	0
scalar IntersectionExampleScenario.node[19].nic.mac1609_4 	SNIRLostPackets 	0
scalar IntersectionExampleScenario.node[19].nic.mac1609_4 	RXTXLostPackets 	0
scalar IntersectionExampleScenario.node[19].nic.mac1609_4 	TotalLostPackets 	0
scalar IntersectionExampleScenario.node[19].nic.mac1609_4 	DroppedPacketsInMac 	0
scalar IntersectionExampleScenario.node[19].nic.mac1609_4 	TooLittleTime 	0
scalar IntersectionExampleScenario.node[19].nic.mac1609_4 	TimesIntoBackoff 	0
scalar IntersectionExampleScenario.node[19].nic.mac1609_4 	SlotsBackoff 	0
scalar IntersectionExampleScenario.node[19].nic.mac1609_4 	NumInternalContention 	0
scalar IntersectionExampleScenario.node[19].nic.mac1609_4 	totalBusyTime 	0
scalar IntersectionExampleScenario.node[19].veinsmobility 	startTime 	65.5
scalar IntersectionExampleScenario.node[19].veinsmobility 	totalTime 	52.75
scalar IntersectionExampleScenario.node[19].veinsmobility 	stopTime 	118.5
scalar IntersectionExampleScenario.node[19].veinsmobility 	minSpeed 	0
scalar IntersectionExampleScenario.node[19].veinsmobility 	maxSpeed 	15.64999961853
scalar IntersectionExampleScenario.node[19].veinsmobility 	totalDistance 	554.21799468994
scalar IntersectionExampleScenario.node[19].veinsmobility 	totalCO2Emission 	143.0710349136
scalar IntersectionExampleScenario.node[21].appl 	VehicleRemoved 	0
scalar IntersectionExampleScenario.node[21].appl 	ArrivedAtDest 	1
scalar IntersectionExampleScenario.node[21].appl 	IntersectionEnterTime 	66.25
scalar IntersectionExampleScenario.node[21].appl 	IntersectionExitTime 	102.53719117457
scalar IntersectionExampleScenario.node[21].appl 	NumberOfCollisions 	0
scalar IntersectionExampleScenario.node[21].nic.phy80211p 	busyTime 	0
scalar IntersectionExampleScenario.node[21].nic.mac1609_4 	ReceivedUnicastPackets 	0
scalar IntersectionExampleScenario.node[21].nic.mac1609_4 	ReceivedBroadcasts 	0
scalar IntersectionExampleScenario.node[21].nic.mac1609_4 	SentPackets 	0
scalar IntersectionExampleScenario.node[21].nic.mac1609_4 	SNIRLostPackets 	0
scalar IntersectionExampleScenario.node[21].nic.mac1609_4 	RXTXLostPackets 	0
scalar IntersectionExampleScenario.node[21].nic.mac1609_4 	TotalLostPackets 	0
scalar IntersectionExampleScenario.node[21].nic.mac1609_4 	DroppedPacketsInMac 	0
scalar IntersectionExampleScenario.node[21].nic.mac1609_4 	TooLittleTime 	0
scalar IntersectionExampleScenario.node[21].nic.mac1609_4 	TimesIntoBackoff 	0
scalar IntersectionExampleScenario.node[21].nic.mac1609_4 	SlotsBackoff 	0
scalar IntersectionExampleScenario.node[21].nic.mac1609_4 	NumInternalContention 	0
scalar IntersectionExampleScenario.node[21].nic.mac1609_4 	totalBusyTime 	0
scalar IntersectionExampleScenario.node[21].veinsmobility 	startTime 	66.25
scalar IntersectionExampleScenario.node[21].veinsmobility 	totalTime 	53
scalar IntersectionExampleScenario.node[21].veinsmobility 	stopTime 	119.5
scalar IntersectionExampleScenario.node[21].veinsmobility 	minSpeed 	0
scalar IntersectionExampleScenario.node[21].veinsmobility 	maxSpeed 	15.284767150879
scalar IntersectionExampleScenario.node[21].veinsmobility 	totalDistance 	520.09643439222
scalar IntersectionExampleScenario.node[21].veinsmobility 	totalCO2Emission 	144.1052908564
scalar IntersectionExampleScenario.node[22].appl 	VehicleRemoved 	0
scalar IntersectionExampleScenario.node[22].appl 	ArrivedAtDest 	1
scalar IntersectionExampleScenario.node[22].appl 	IntersectionEnterTime 	67
scalar IntersectionExampleScenario.node[22].appl 	IntersectionExitTime 	105.10918327601
scalar IntersectionExampleScenario.node[22].appl 	NumberOfCollisions 	0
scalar IntersectionExampleScenario.node[22].nic.phy80211p 	busyTime 	0
scalar IntersectionExampleScenario.node[22].nic.mac1609_4 	ReceivedUnicastPackets 	0
scalar IntersectionExampleScenario.node[22].nic.mac1609_4 	ReceivedBroadcasts 	0
scalar IntersectionExampleScenario.node[22].nic.mac1609_4 	SentPackets 	0
scalar IntersectionExampleScenario.node[22].nic.mac1609_4 	SNIRLostPackets 	0
scalar IntersectionExampleScenario.node[22].nic.mac1609_4 	RXTXLostPackets 	0
scalar IntersectionExampleScenario.node[22].nic.mac1609_4 	TotalLostPackets 	0
scalar IntersectionExampleScenario.node[22].nic.mac1609_4 	DroppedPacketsInMac 	0
scalar IntersectionExampleScenario.node[22].nic.mac1609_4 	TooLittleTime 	0
scalar IntersectionExampleScenario.node[22].nic.mac1609_4 	TimesIntoBackoff 	0
scalar IntersectionExampleScenario.node[22].nic.mac1609_4 	SlotsBackoff 	0
scalar IntersectionExampleScenario.node[22].nic.mac1609_4 	NumInternalContention 	0
scalar IntersectionExampleScenario.node[22].nic.mac1609_4 	totalBusyTime 	0
scalar IntersectionExampleScenario.node[22].veinsmobility 	startTime 	67
scalar IntersectionExampleScenario.node[22].veinsmobility 	totalTime 	55
scalar IntersectionExampleScenario.node[22].veinsmobility 	stopTime 	122.25
scalar IntersectionExampleScenario.node[22].veinsmobility 	minSpeed 	1.858011007309
scalar IntersectionExampleScenario.node[22].veinsmobility 	maxSpeed 	15.02499961853
scalar IntersectionExampleScenario.node[22].veinsmobility 	totalDistance 	571.31165825181
scalar IntersectionExampleScenario.node[22].veinsmobility 	totalCO2Emission 	142.53102245291
scalar IntersectionExampleScenario.node[20].appl 	VehicleRemoved 	0
scalar IntersectionExampleScenario.node[20].appl 	ArrivedAtDest 	1
scalar IntersectionExampleScenario.node[20].appl 	IntersectionEnterTime 	65.75
scalar IntersectionExampleScenario.node[20].appl 	IntersectionExitTime 	107.50408523556
scalar IntersectionExampleScenario.node[20].appl 	NumberOfCollisions 	0
scalar IntersectionExampleScenario.node[20].nic.phy80211p 	busyTime 	0
scalar IntersectionExampleScenario.node[20].nic.mac1609_4 	ReceivedUnicastPackets 	0
scalar IntersectionExampleScenario.node[20].nic.mac1609_4 	ReceivedBroadcasts 	0
scalar IntersectionExampleScenario.node[20].nic.mac1609_4 	SentPackets 	0
scalar IntersectionExampleScenario.node[20].nic.mac1609_4 	SNIRLostPackets 	0
scalar IntersectionExampleScenario.node[20].nic.mac1609_4 	RXTXLostPackets 	0
scalar IntersectionExampleScenario.node[20].nic.mac1609_4 	TotalLostPackets 	0
scalar IntersectionExampleScenario.node[20].nic.mac1609_4 	DroppedPacketsInMac 	0
scalar IntersectionExampleScenario.node[20].nic.mac1609_4 	TooLittleTime 	0
scalar IntersectionExampleScenario.node[20].nic.mac1609_4 	TimesIntoBackoff 	0
scalar IntersectionExampleScenario.node[20].nic.mac1609_4 	SlotsBackoff 	0
scalar IntersectionExampleScenario.node[20].nic.mac1609_4 	NumInternalContention 	0
scalar IntersectionExampleScenario.node[20].nic.mac1609_4 	totalBusyTime 	0
scalar IntersectionExampleScenario.node[20].veinsmobility 	startTime 	65.75
scalar IntersectionExampleScenario.node[20].veinsmobility 	totalTime 	59
scalar IntersectionExampleScenario.node[20].veinsmobility 	stopTime 	125
scalar IntersectionExampleScenario.node[20].veinsmobility 	minSpeed 	0
scalar IntersectionExampleScenario.node[20].veinsmobility 	maxSpeed 	14.678336143494
scalar IntersectionExampleScenario.node[20].veinsmobility 	totalDistance 	549.90295351349
scalar IntersectionExampleScenario.node[20].veinsmobility 	totalCO2Emission 	149.69320780506
scalar IntersectionExampleScenario.node[28].appl 	VehicleRemoved 	0
scalar IntersectionExampleScenario.node[28].appl 	ArrivedAtDest 	1
scalar IntersectionExampleScenario.node[28].appl 	IntersectionEnterTime 	78
scalar IntersectionExampleScenario.node[28].appl 	IntersectionExitTime 	109.01882274231
scalar IntersectionExampleScenario.node[28].appl 	NumberOfCollisions 	0
scalar IntersectionExampleScenario.node[28].nic.phy80211p 	busyTime 	0
scalar IntersectionExampleScenario.node[28].nic.mac1609_4 	ReceivedUnicastPackets 	0
scalar IntersectionExampleScenario.node[28].nic.mac1609_4 	ReceivedBroadcasts 	0
scalar IntersectionExampleScenario.node[28].nic.mac1609_4 	SentPackets 	0
scalar IntersectionExampleScenario.node[28].nic.mac1609_4 	SNIRLostPackets 	0
scalar IntersectionExampleScenario.node[28].nic.mac1609_4 	RXTXLostPackets 	0
scalar IntersectionExampleScenario.node[28].nic.mac1609_4 	TotalLostPackets 	0
scalar IntersectionExampleScenario.node[28].nic.mac1609_4 	DroppedPacketsInMac 	0
scalar IntersectionExampleScenario.node[28].nic.mac1609_4 	TooLittleTime 	0
scalar IntersectionExampleScenario.node[28].nic.mac1609_4 	TimesIntoBackoff 	0
scalar IntersectionExampleScenario.node[28].nic.mac1609_4 	SlotsBackoff 	0
scalar IntersectionExampleScenario.node[28].nic.mac1609_4 	NumInternalContention 	0
scalar IntersectionExampleScenario.node[28].nic.mac1609_4 	totalBusyTime 	0
scalar IntersectionExampleScenario.node[28].veinsmobility 	startTime 	78
scalar IntersectionExampleScenario.node[28].veinsmobility 	totalTime 	47.75
scalar IntersectionExampleScenario.node[28].veinsmobility 	stopTime 	126
scalar IntersectionExampleScenario.node[28].veinsmobility 	minSpeed 	5.1897115707397
scalar IntersectionExampleScenario.node[28].veinsmobility 	maxSpeed 	15.875
scalar IntersectionExampleScenario.node[28].veinsmobility 	totalDistance 	546.12680245781
scalar IntersectionExampleScenario.node[28].veinsmobility 	totalCO2Emission 	134.76247620673
scalar IntersectionExampleScenario.node[26].appl 	VehicleRemoved 	0
scalar IntersectionExampleScenario.node[26].appl 	ArrivedAtDest 	1
scalar IntersectionExampleScenario.node[26].appl 	IntersectionEnterTime 	73
scalar IntersectionExampleScenario.node[26].appl 	IntersectionExitTime 	109.07653263785
scalar IntersectionExampleScenario.node[26].appl 	NumberOfCollisions 	0
scalar IntersectionExampleScenario.node[26].nic.phy80211p 	busyTime 	0
scalar IntersectionExampleScenario.node[26].nic.mac1609_4 	ReceivedUnicastPackets 	0
scalar IntersectionExampleScenario.node[26].nic.mac1609_4 	ReceivedBroadcasts 	0
scalar IntersectionExampleScenario.node[26].nic.mac1609_4 	SentPackets 	0
scalar IntersectionExampleScenario.node[26].nic.mac1609_4 	SNIRLostPackets 	0
scalar IntersectionExampleScenario.node[26].nic.mac1609_4 	RXTXLostPackets 	0
scalar IntersectionExampleScenario.node[26].nic.mac1609_4 	TotalLostPackets 	0
scalar IntersectionExampleScenario.node[26].nic.mac1609_4 	DroppedPacketsInMac 	0
scalar IntersectionExampleScenario.node[26].nic.mac1609_4 	TooLittleTime 	0
scalar IntersectionExampleScenario.node[26].nic.mac1609_4 	TimesIntoBackoff 	0
scalar IntersectionExampleScenario.node[26].nic.mac1609_4 	SlotsBackoff 	0
scalar IntersectionExampleScenario.node[26].nic.mac1609_4 	NumInternalContention 	0
scalar IntersectionExampleScenario.node[26].nic.mac1609_4 	totalBusyTime 	0
scalar IntersectionExampleScenario.node[26].veinsmobility 	startTime 	73
scalar IntersectionExampleScenario.node[26].veinsmobility 	totalTime 	53
scalar IntersectionExampleScenario.node[26].veinsmobility 	stopTime 	126.25
scalar IntersectionExampleScenario.node[26].veinsmobility 	minSpeed 	2.6932816505432
scalar IntersectionExampleScenario.node[26].veinsmobility 	maxSpeed 	15.379977226257
scalar IntersectionExampleScenario.node[26].veinsmobility 	totalDistance 	549.29957334355
scalar IntersectionExampleScenario.node[26].veinsmobility 	totalCO2Emission 	146.67413915631
scalar IntersectionExampleScenario.node[23].appl 	VehicleRemoved 	0
scalar IntersectionExampleScenario.node[23].appl 	ArrivedAtDest 	1
scalar IntersectionExampleScenario.node[23].appl 	IntersectionEnterTime 	67
scalar IntersectionExampleScenario.node[23].appl 	IntersectionExitTime 	110.86870093879
scalar IntersectionExampleScenario.node[23].appl 	NumberOfCollisions 	0
scalar IntersectionExampleScenario.node[23].nic.phy80211p 	busyTime 	0
scalar IntersectionExampleScenario.node[23].nic.mac1609_4 	ReceivedUnicastPackets 	0
scalar IntersectionExampleScenario.node[23].nic.mac1609_4 	ReceivedBroadcasts 	0
scalar IntersectionExampleScenario.node[23].nic.mac1609_4 	SentPackets 	0
scalar IntersectionExampleScenario.node[23].nic.mac1609_4 	SNIRLostPackets 	0
scalar IntersectionExampleScenario.node[23].nic.mac1609_4 	RXTXLostPackets 	0
scalar IntersectionExampleScenario.node[23].nic.mac1609_4 	TotalLostPackets 	0
scalar IntersectionExampleScenario.node[23].nic.mac1609_4 	DroppedPacketsInMac 	0
scalar IntersectionExampleScenario.node[23].nic.mac1609_4 	TooLittleTime 	0
scalar IntersectionExampleScenario.node[23].nic.mac1609_4 	TimesIntoBackoff 	0
scalar IntersectionExampleScenario.node[23].nic.mac1609_4 	SlotsBackoff 	0
scalar IntersectionExampleScenario.node[23].nic.mac1609_4 	NumInternalContention 	0
scalar IntersectionExampleScenario.node[23].nic.mac1609_4 	totalBusyTime 	0
scalar IntersectionExampleScenario.node[23].veinsmobility 	startTime 	67
scalar IntersectionExampleScenario.node[23].veinsmobility 	totalTime 	60
scalar IntersectionExampleScenario.node[23].veinsmobility 	stopTime 	127.25
scalar IntersectionExampleScenario.node[23].veinsmobility 	minSpeed 	0
scalar IntersectionExampleScenario.node[23].veinsmobility 	maxSpeed 	16.597620010376
scalar IntersectionExampleScenario.node[23].veinsmobility 	totalDistance 	566.18221999349
scalar IntersectionExampleScenario.node[23].veinsmobility 	totalCO2Emission 	168.42915364754
scalar IntersectionExampleScenario.node[24].appl 	VehicleRemoved 	0
scalar IntersectionExampleScenario.node[24].appl 	ArrivedAtDest 	1
scalar IntersectionExampleScenario.node[24].appl 	IntersectionEnterTime 	69.25
scalar IntersectionExampleScenario.node[24].appl 	IntersectionExitTime 	112.26841401041
scalar IntersectionExampleScenario.node[24].appl 	NumberOfCollisions 	0
scalar IntersectionExampleScenario.node[24].nic.phy80211p 	busyTime 	0
scalar IntersectionExampleScenario.node[24].nic.mac1609_4 	ReceivedUnicastPackets 	0
scalar IntersectionExampleScenario.node[24].nic.mac1609_4 	ReceivedBroadcasts 	0
scalar IntersectionExampleScenario.node[24].nic.mac1609_4 	SentPackets 	0
scalar IntersectionExampleScenario.node[24].nic.mac1609_4 	SNIRLostPackets 	0
scalar IntersectionExampleScenario.node[24].nic.mac1609_4 	RXTXLostPackets 	0
scalar IntersectionExampleScenario.node[24].nic.mac1609_4 	TotalLostPackets 	0
scalar IntersectionExampleScenario.node[24].nic.mac1609_4 	DroppedPacketsInMac 	0
scalar IntersectionExampleScenario.node[24].nic.mac1609_4 	TooLittleTime 	0
scalar IntersectionExampleScenario.node[24].nic.mac1609_4 	TimesIntoBackoff 	0
scalar IntersectionExampleScenario.node[24].nic.mac1609_4 	SlotsBackoff 	0
scalar IntersectionExampleScenario.node[24].nic.mac1609_4 	NumInternalContention 	0
scalar IntersectionExampleScenario.node[24].nic.mac1609_4 	totalBusyTime 	0
scalar IntersectionExampleScenario.node[24].veinsmobility 	startTime 	69.25
scalar IntersectionExampleScenario.node[24].veinsmobility 	totalTime 	59
scalar IntersectionExampleScenario.node[24].veinsmobility 	stopTime 	128.5
scalar IntersectionExampleScenario.node[24].veinsmobility 	minSpeed 	1.305349946022
scalar IntersectionExampleScenario.node[24].veinsmobility 	maxSpeed 	15.5
scalar IntersectionExampleScenario.node[24].veinsmobility 	totalDistance 	580.34373474121
scalar IntersectionExampleScenario.node[24].veinsmobility 	totalCO2Emission 	155.7289956569
scalar IntersectionExampleScenario.node[27].appl 	VehicleRemoved 	0
scalar IntersectionExampleScenario.node[27].appl 	ArrivedAtDest 	1
scalar IntersectionExampleScenario.node[27].appl 	IntersectionEnterTime 	73.25
scalar IntersectionExampleScenario.node[27].appl 	IntersectionExitTime 	114.25462261066
scalar IntersectionExampleScenario.node[27].appl 	NumberOfCollisions 	0
scalar IntersectionExampleScenario.node[27].nic.phy80211p 	busyTime 	0
scalar IntersectionExampleScenario.node[27].nic.mac1609_4 	ReceivedUnicastPackets 	0
scalar IntersectionExampleScenario.node[27].nic.mac1609_4 	ReceivedBroadcasts 	0
scalar IntersectionExampleScenario.node[27].nic.mac1609_4 	SentPackets 	0
scalar IntersectionExampleScenario.node[27].nic.mac1609_4 	SNIRLostPackets 	0
scalar IntersectionExampleScenario.node[27].nic.mac1609_4 	RXTXLostPackets 	0
scalar IntersectionExampleScenario.node[27].nic.mac1609_4 	TotalLostPackets 	0
scalar IntersectionExampleScenario.node[27].nic.mac1609_4 	DroppedPacketsInMac 	0
scalar IntersectionExampleScenario.node[27].nic.mac1609_4 	TooLittleTime 	0
scalar IntersectionExampleScenario.node[27].nic.mac1609_4 	TimesIntoBackoff 	0
scalar IntersectionExampleScenario.node[27].nic.mac1609_4 	SlotsBackoff 	0
scalar IntersectionExampleScenario.node[27].nic.mac1609_4 	NumInternalContention 	0
scalar IntersectionExampleScenario.node[27].nic.mac1609_4 	totalBusyTime 	0
scalar IntersectionExampleScenario.node[27].veinsmobility 	startTime 	73.25
scalar IntersectionExampleScenario.node[27].veinsmobility 	totalTime 	58
scalar IntersectionExampleScenario.node[27].veinsmobility 	stopTime 	131.5
scalar IntersectionExampleScenario.node[27].veinsmobility 	minSpeed 	1.3890352249146
scalar IntersectionExampleScenario.node[27].veinsmobility 	maxSpeed 	14.608877182007
scalar IntersectionExampleScenario.node[27].veinsmobility 	totalDistance 	573.02374267578
scalar IntersectionExampleScenario.node[27].veinsmobility 	totalCO2Emission 	143.8007266793
scalar IntersectionExampleScenario.node[30].appl 	VehicleRemoved 	0
scalar IntersectionExampleScenario.node[30].appl 	ArrivedAtDest 	1
scalar IntersectionExampleScenario.node[30].appl 	IntersectionEnterTime 	90.75
scalar IntersectionExampleScenario.node[30].appl 	IntersectionExitTime 	114.77362052444
scalar IntersectionExampleScenario.node[30].appl 	NumberOfCollisions 	0
scalar IntersectionExampleScenario.node[30].nic.phy80211p 	busyTime 	0
scalar IntersectionExampleScenario.node[30].nic.mac1609_4 	ReceivedUnicastPackets 	0
scalar IntersectionExampleScenario.node[30].nic.mac1609_4 	ReceivedBroadcasts 	0
scalar IntersectionExampleScenario.node[30].nic.mac1609_4 	SentPackets 	0
scalar IntersectionExampleScenario.node[30].nic.mac1609_4 	SNIRLostPackets 	0
scalar IntersectionExampleScenario.node[30].nic.mac1609_4 	RXTXLostPackets 	0
scalar IntersectionExampleScenario.node[30].nic.mac1609_4 	TotalLostPackets 	0
scalar IntersectionExampleScenario.node[30].nic.mac1609_4 	DroppedPacketsInMac 	0
scalar IntersectionExampleScenario.node[30].nic.mac1609_4 	TooLittleTime 	0
scalar IntersectionExampleScenario.node[30].nic.mac1609_4 	TimesIntoBackoff 	0
scalar IntersectionExampleScenario.node[30].nic.mac1609_4 	SlotsBackoff 	0
scalar IntersectionExampleScenario.node[30].nic.mac1609_4 	NumInternalContention 	0
scalar IntersectionExampleScenario.node[30].nic.mac1609_4 	totalBusyTime 	0
scalar IntersectionExampleScenario.node[30].veinsmobility 	startTime 	90.75
scalar IntersectionExampleScenario.node[30].veinsmobility 	totalTime 	40.5
scalar IntersectionExampleScenario.node[30].veinsmobility 	stopTime 	131.5
scalar IntersectionExampleScenario.node[30].veinsmobility 	minSpeed 	5.6500000953674
scalar IntersectionExampleScenario.node[30].veinsmobility 	maxSpeed 	15.375
scalar IntersectionExampleScenario.node[30].veinsmobility 	totalDistance 	549.68337057248
scalar IntersectionExampleScenario.node[30].veinsmobility 	totalCO2Emission 	130.46333439701
scalar IntersectionExampleScenario.node[33].appl 	VehicleRemoved 	0
scalar IntersectionExampleScenario.node[33].appl 	ArrivedAtDest 	1
scalar IntersectionExampleScenario.node[33].appl 	IntersectionEnterTime 	93.25
scalar IntersectionExampleScenario.node[33].appl 	IntersectionExitTime 	117.86241512388
scalar IntersectionExampleScenario.node[33].appl 	NumberOfCollisions 	0
scalar IntersectionExampleScenario.node[33].nic.phy80211p 	busyTime 	0
scalar IntersectionExampleScenario.node[33].nic.mac1609_4 	ReceivedUnicastPackets 	0
scalar IntersectionExampleScenario.node[33].nic.mac1609_4 	ReceivedBroadcasts 	0
scalar IntersectionExampleScenario.node[33].nic.mac1609_4 	SentPackets 	0
scalar IntersectionExampleScenario.node[33].nic.mac1609_4 	SNIRLostPackets 	0
scalar IntersectionExampleScenario.node[33].nic.mac1609_4 	RXTXLostPackets 	0
scalar IntersectionExampleScenario.node[33].nic.mac1609_4 	TotalLostPackets 	0
scalar IntersectionExampleScenario.node[33].nic.mac1609_4 	DroppedPacketsInMac 	0
scalar IntersectionExampleScenario.node[33].nic.mac1609_4 	TooLittleTime 	0
scalar IntersectionExampleScenario.node[33].nic.mac1609_4 	TimesIntoBackoff 	0
scalar IntersectionExampleScenario.node[33].nic.mac1609_4 	SlotsBackoff 	0
scalar IntersectionExampleScenario.node[33].nic.mac1609_4 	NumInternalContention 	0
scalar IntersectionExampleScenario.node[33].nic.mac1609_4 	totalBusyTime 	0
scalar IntersectionExampleScenario.node[33].veinsmobility 	startTime 	93.25
scalar IntersectionExampleScenario.node[33].veinsmobility 	totalTime 	40.25
scalar IntersectionExampleScenario.node[33].veinsmobility 	stopTime 	133.75
scalar IntersectionExampleScenario.node[33].veinsmobility 	minSpeed 	5.6500000953674
scalar IntersectionExampleScenario.node[33].veinsmobility 	maxSpeed 	15.93533039093
scalar IntersectionExampleScenario.node[33].veinsmobility 	totalDistance 	565.99972555469
scalar IntersectionExampleScenario.node[33].veinsmobility 	totalCO2Emission 	132.97286584465
scalar IntersectionExampleScenario.node[32].appl 	VehicleRemoved 	0
scalar IntersectionExampleScenario.node[32].appl 	ArrivedAtDest 	1
scalar IntersectionExampleScenario.node[32].appl 	IntersectionEnterTime 	92.75
scalar IntersectionExampleScenario.node[32].appl 	IntersectionExitTime 	117.27923750787
scalar IntersectionExampleScenario.node[32].appl 	NumberOfCollisions 	0
scalar IntersectionExampleScenario.node[32].nic.phy80211p 	busyTime 	0
scalar IntersectionExampleScenario.node[32].nic.mac1609_4 	ReceivedUnicastPackets 	0
scalar IntersectionExampleScenario.node[32].nic.mac1609_4 	ReceivedBroadcasts 	0
scalar IntersectionExampleScenario.node[32].nic.mac1609_4 	SentPackets 	0
scalar IntersectionExampleScenario.node[32].nic.mac1609_4 	SNIRLostPackets 	0
scalar IntersectionExampleScenario.node[32].nic.mac1609_4 	RXTXLostPackets 	0
scalar IntersectionExampleScenario.node[32].nic.mac1609_4 	TotalLostPackets 	0
scalar IntersectionExampleScenario.node[32].nic.mac1609_4 	DroppedPacketsInMac 	0
scalar IntersectionExampleScenario.node[32].nic.mac1609_4 	TooLittleTime 	0
scalar IntersectionExampleScenario.node[32].nic.mac1609_4 	TimesIntoBackoff 	0
scalar IntersectionExampleScenario.node[32].nic.mac1609_4 	SlotsBackoff 	0
scalar IntersectionExampleScenario.node[32].nic.mac1609_4 	NumInternalContention 	0
scalar IntersectionExampleScenario.node[32].nic.mac1609_4 	totalBusyTime 	0
scalar IntersectionExampleScenario.node[32].veinsmobility 	startTime 	92.75
scalar IntersectionExampleScenario.node[32].veinsmobility 	totalTime 	41
scalar IntersectionExampleScenario.node[32].veinsmobility 	stopTime 	134
scalar IntersectionExampleScenario.node[32].veinsmobility 	minSpeed 	5.6500000953674
scalar IntersectionExampleScenario.node[32].veinsmobility 	maxSpeed 	15.495460510254
scalar IntersectionExampleScenario.node[32].veinsmobility 	totalDistance 	550.18869995752
scalar IntersectionExampleScenario.node[32].veinsmobility 	totalCO2Emission 	135.31633780023
scalar IntersectionExampleScenario.node[29].appl 	VehicleRemoved 	0
scalar IntersectionExampleScenario.node[29].appl 	ArrivedAtDest 	1
scalar IntersectionExampleScenario.node[29].appl 	IntersectionEnterTime 	84.75
scalar IntersectionExampleScenario.node[29].appl 	IntersectionExitTime 	121.31592221215
scalar IntersectionExampleScenario.node[29].appl 	NumberOfCollisions 	0
scalar IntersectionExampleScenario.node[29].nic.phy80211p 	busyTime 	0
scalar IntersectionExampleScenario.node[29].nic.mac1609_4 	ReceivedUnicastPackets 	0
scalar IntersectionExampleScenario.node[29].nic.mac1609_4 	ReceivedBroadcasts 	0
scalar IntersectionExampleScenario.node[29].nic.mac1609_4 	SentPackets 	0
scalar IntersectionExampleScenario.node[29].nic.mac1609_4 	SNIRLostPackets 	0
scalar IntersectionExampleScenario.node[29].nic.mac1609_4 	RXTXLostPackets 	0
scalar IntersectionExampleScenario.node[29].nic.mac1609_4 	TotalLostPackets 	0
scalar IntersectionExampleScenario.node[29].nic.mac1609_4 	DroppedPacketsInMac 	0
scalar IntersectionExampleScenario.node[29].nic.mac1609_4 	TooLittleTime 	0
scalar IntersectionExampleScenario.node[29].nic.mac1609_4 	TimesIntoBackoff 	0
scalar IntersectionExampleScenario.node[29].nic.mac1609_4 	SlotsBackoff 	0
scalar IntersectionExampleScenario.node[29].nic.mac1609_4 	NumInternalContention 	0
scalar IntersectionExampleScenario.node[29].nic.mac1609_4 	totalBusyTime 	0
scalar IntersectionExampleScenario.node[29].veinsmobility 	startTime 	84.75
scalar IntersectionExampleScenario.node[29].veinsmobility 	totalTime 	52.25
scalar IntersectionExampleScenario.node[29].veinsmobility 	stopTime 	137.25
scalar IntersectionExampleScenario.node[29].veinsmobility 	minSpeed 	0
scalar IntersectionExampleScenario.node[29].veinsmobility 	maxSpeed 	16.27499961853
scalar IntersectionExampleScenario.node[29].veinsmobility 	totalDistance 	555.00163269043
scalar IntersectionExampleScenario.node[29].veinsmobility 	totalCO2Emission 	148.95246385259
scalar IntersectionExampleScenario.node[31].appl 	VehicleRemoved 	0
scalar IntersectionExampleScenario.node[31].appl 	ArrivedAtDest 	1
scalar IntersectionExampleScenario.node[31].appl 	IntersectionEnterTime 	92.5
scalar IntersectionExampleScenario.node[31].appl 	IntersectionExitTime 	122.8373263363
scalar IntersectionExampleScenario.node[31].appl 	NumberOfCollisions 	0
scalar IntersectionExampleScenario.node[31].nic.phy80211p 	busyTime 	0
scalar IntersectionExampleScenario.node[31].nic.mac1609_4 	ReceivedUnicastPackets 	0
scalar IntersectionExampleScenario.node[31].nic.mac1609_4 	ReceivedBroadcasts 	0
scalar IntersectionExampleScenario.node[31].nic.mac1609_4 	SentPackets 	0
scalar IntersectionExampleScenario.node[31].nic.mac1609_4 	SNIRLostPackets 	0
scalar IntersectionExampleScenario.node[31].nic.mac1609_4 	RXTXLostPackets 	0
scalar IntersectionExampleScenario.node[31].nic.mac1609_4 	TotalLostPackets 	0
scalar IntersectionExampleScenario.node[31].nic.mac1609_4 	DroppedPacketsInMac 	0
scalar IntersectionExampleScenario.node[31].nic.mac1609_4 	TooLittleTime 	0
scalar IntersectionExampleScenario.node[31].nic.mac1609_4 	TimesIntoBackoff 	0
scalar IntersectionExampleScenario.node[31].nic.mac1609_4 	SlotsBackoff 	0
scalar IntersectionExampleScenario.node[31].nic.mac1609_4 	NumInternalContention 	0
scalar IntersectionExampleScenario.node[31].nic.mac1609_4 	totalBusyTime 	0
scalar IntersectionExampleScenario.node[31].veinsmobility 	startTime 	92.5
scalar IntersectionExampleScenario.node[31].veinsmobility 	totalTime 	46.25
scalar IntersectionExampleScenario.node[31].veinsmobility 	stopTime 	139
scalar IntersectionExampleScenario.node[31].veinsmobility 	minSpeed 	2.5197560787201
scalar IntersectionExampleScenario.node[31].veinsmobility 	maxSpeed 	15.64999961853
scalar IntersectionExampleScenario.node[31].veinsmobility 	totalDistance 	550.11966887682
scalar IntersectionExampleScenario.node[31].veinsmobility 	totalCO2Emission 	134.94801555945
scalar IntersectionExampleScenario.node[36].appl 	VehicleRemoved 	0
scalar IntersectionExampleScenario.node[36].appl 	ArrivedAtDest 	1
scalar IntersectionExampleScenario.node[36].appl 	IntersectionEnterTime 	97
scalar IntersectionExampleScenario.node[36].appl 	IntersectionExitTime 	124.77101551532
scalar IntersectionExampleScenario.node[36].appl 	NumberOfCollisions 	0
scalar IntersectionExampleScenario.node[36].nic.phy80211p 	busyTime 	0
scalar IntersectionExampleScenario.node[36].nic.mac1609_4 	ReceivedUnicastPackets 	0
scalar IntersectionExampleScenario.node[36].nic.mac1609_4 	ReceivedBroadcasts 	0
scalar IntersectionExampleScenario.node[36].nic.mac1609_4 	SentPackets 	0
scalar IntersectionExampleScenario.node[36].nic.mac1609_4 	SNIRLostPackets 	0
scalar IntersectionExampleScenario.node[36].nic.mac1609_4 	RXTXLostPackets 	0
scalar IntersectionExampleScenario.node[36].nic.mac1609_4 	TotalLostPackets 	0
scalar IntersectionExampleScenario.node[36].nic.mac1609_4 	DroppedPacketsInMac 	0
scalar IntersectionExampleScenario.node[36].nic.mac1609_4 	TooLittleTime 	0
scalar IntersectionExampleScenario.node[36].nic.mac1609_4 	TimesIntoBackoff 	0
scalar IntersectionExampleScenario.node[36].nic.mac1609_4 	SlotsBackoff 	0
scalar IntersectionExampleScenario.node[36].nic.mac1609_4 	NumInternalContention 	0
scalar IntersectionExampleScenario.node[36].nic.mac1609_4 	totalBusyTime 	0
scalar IntersectionExampleScenario.node[36].veinsmobility 	startTime 	97
scalar IntersectionExampleScenario.node[36].veinsmobility 	totalTime 	44.25
scalar IntersectionExampleScenario.node[36].veinsmobility 	stopTime 	141.5
scalar IntersectionExampleScenario.node[36].veinsmobility 	minSpeed 	4.0003161430359
scalar IntersectionExampleScenario.node[36].veinsmobility 	maxSpeed 	15.02499961853
scalar IntersectionExampleScenario.node[36].veinsmobility 	totalDistance 	529.2728424079
scalar IntersectionExampleScenario.node[36].veinsmobility 	totalCO2Emission 	129.95938038427
scalar IntersectionExampleScenario.node[34].appl 	VehicleRemoved 	0
scalar IntersectionExampleScenario.node[34].appl 	ArrivedAtDest 	1
scalar IntersectionExampleScenario.node[34].appl 	IntersectionEnterTime 	95.5
scalar IntersectionExampleScenario.node[34].appl 	IntersectionExitTime 	126.86609286844
scalar IntersectionExampleScenario.node[34].appl 	NumberOfCollisions 	0
scalar IntersectionExampleScenario.node[34].nic.phy80211p 	busyTime 	0
scalar IntersectionExampleScenario.node[34].nic.mac1609_4 	ReceivedUnicastPackets 	0
scalar IntersectionExampleScenario.node[34].nic.mac1609_4 	ReceivedBroadcasts 	0
scalar IntersectionExampleScenario.node[34].nic.mac1609_4 	SentPackets 	0
scalar IntersectionExampleScenario.node[34].nic.mac1609_4 	SNIRLostPackets 	0
scalar IntersectionExampleScenario.node[34].nic.mac1609_4 	RXTXLostPackets 	0
scalar IntersectionExampleScenario.node[34].nic.mac1609_4 	TotalLostPackets 	0
scalar IntersectionExampleScenario.node[34].nic.mac1609_4 	DroppedPacketsInMac 	0
scalar IntersectionExampleScenario.node[34].nic.mac1609_4 	TooLittleTime 	0
scalar IntersectionExampleScenario.node[34].nic.mac1609_4 	TimesIntoBackoff 	0
scalar IntersectionExampleScenario.node[34].nic.mac1609_4 	SlotsBackoff 	0
scalar IntersectionExampleScenario.node[34].nic.mac1609_4 	NumInternalContention 	0
scalar IntersectionExampleScenario.node[34].nic.mac1609_4 	totalBusyTime 	0
scalar IntersectionExampleScenario.node[34].veinsmobility 	startTime 	95.5
scalar IntersectionExampleScenario.node[34].veinsmobility 	totalTime 	47.5
scalar IntersectionExampleScenario.node[34].veinsmobility 	stopTime 	143.25
scalar IntersectionExampleScenario.node[34].veinsmobility 	minSpeed 	2.9145936965942
scalar IntersectionExampleScenario.node[34].veinsmobility 	maxSpeed 	15.019041061401
scalar IntersectionExampleScenario.node[34].veinsmobility 	totalDistance 	566.36735534668
scalar IntersectionExampleScenario.node[34].veinsmobility 	totalCO2Emission 	141.54266806043
scalar IntersectionExampleScenario.node[37].appl 	VehicleRemoved 	0
scalar IntersectionExampleScenario.node[37].appl 	ArrivedAtDest 	1
scalar IntersectionExampleScenario.node[37].appl 	IntersectionEnterTime 	98.5
scalar IntersectionExampleScenario.node[37].appl 	IntersectionExitTime 	128.84239218922
scalar IntersectionExampleScenario.node[37].appl 	NumberOfCollisions 	0
scalar IntersectionExampleScenario.node[37].nic.phy80211p 	busyTime 	0
scalar IntersectionExampleScenario.node[37].nic.mac1609_4 	ReceivedUnicastPackets 	0
scalar IntersectionExampleScenario.node[37].nic.mac1609_4 	ReceivedBroadcasts 	0
scalar IntersectionExampleScenario.node[37].nic.mac1609_4 	SentPackets 	0
scalar IntersectionExampleScenario.node[37].nic.mac1609_4 	SNIRLostPackets 	0
scalar IntersectionExampleScenario.node[37].nic.mac1609_4 	RXTXLostPackets 	0
scalar IntersectionExampleScenario.node[37].nic.mac1609_4 	TotalLostPackets 	0
scalar IntersectionExampleScenario.node[37].nic.mac1609_4 	DroppedPacketsInMac 	0
scalar IntersectionExampleScenario.node[37].nic.mac1609_4 	TooLittleTime 	0
scalar IntersectionExampleScenario.node[37].nic.mac1609_4 	TimesIntoBackoff 	0
scalar IntersectionExampleScenario.node[37].nic.mac1609_4 	SlotsBackoff 	0
scalar IntersectionExampleScenario.node[37].nic.mac1609_4 	NumInternalContention 	0
scalar IntersectionExampleScenario.node[37].nic.mac1609_4 	totalBusyTime 	0
scalar IntersectionExampleScenario.node[37].veinsmobility 	startTime 	98.5
scalar IntersectionExampleScenario.node[37].veinsmobility 	totalTime 	46.25
scalar IntersectionExampleScenario.node[37].veinsmobility 	stopTime 	145
scalar IntersectionExampleScenario.node[37].veinsmobility 	minSpeed 	5.2496428489685
scalar IntersectionExampleScenario.node[37].veinsmobility 	maxSpeed 	16.5
scalar IntersectionExampleScenario.node[37].veinsmobility 	totalDistance 	564.92774204831
scalar IntersectionExampleScenario.node[37].veinsmobility 	totalCO2Emission 	152.1399761795
scalar IntersectionExampleScenario.node[40].appl 	VehicleRemoved 	0
scalar IntersectionExampleScenario.node[40].appl 	ArrivedAtDest 	1
scalar IntersectionExampleScenario.node[40].appl 	IntersectionEnterTime 	107.25
scalar IntersectionExampleScenario.node[40].appl 	IntersectionExitTime 	129.77776835349
scalar IntersectionExampleScenario.node[40].appl 	NumberOfCollisions 	0
scalar IntersectionExampleScenario.node[40].nic.phy80211p 	busyTime 	0
scalar IntersectionExampleScenario.node[40].nic.mac1609_4 	ReceivedUnicastPackets 	0
scalar IntersectionExampleScenario.node[40].nic.mac1609_4 	ReceivedBroadcasts 	0
scalar IntersectionExampleScenario.node[40].nic.mac1609_4 	SentPackets 	0
scalar IntersectionExampleScenario.node[40].nic.mac1609_4 	SNIRLostPackets 	0
scalar IntersectionExampleScenario.node[40].nic.mac1609_4 	RXTXLostPackets 	0
scalar IntersectionExampleScenario.node[40].nic.mac1609_4 	TotalLostPackets 	0
scalar IntersectionExampleScenario.node[40].nic.mac1609_4 	DroppedPacketsInMac 	0
scalar IntersectionExampleScenario.node[40].nic.mac1609_4 	TooLittleTime 	0
scalar IntersectionExampleScenario.node[40].nic.mac1609_4 	TimesIntoBackoff 	0
scalar IntersectionExampleScenario.node[40].nic.mac1609_4 	SlotsBackoff 	0
scalar IntersectionExampleScenario.node[40].nic.mac1609_4 	NumInternalContention 	0
scalar IntersectionExampleScenario.node[40].nic.mac1609_4 	totalBusyTime 	0
scalar IntersectionExampleScenario.node[40].veinsmobility 	startTime 	107.25
scalar IntersectionExampleScenario.node[40].veinsmobility 	totalTime 	38.25
scalar IntersectionExampleScenario.node[40].veinsmobility 	stopTime 	145.75
scalar IntersectionExampleScenario.node[40].veinsmobility 	minSpeed 	5.6500000953674
scalar IntersectionExampleScenario.node[40].veinsmobility 	maxSpeed 	16.125
scalar IntersectionExampleScenario.node[40].veinsmobility 	totalDistance 	554.53818511963
scalar IntersectionExampleScenario.node[40].veinsmobility 	totalCO2Emission 	120.14146876042
scalar IntersectionExampleScenario.node[41].appl 	VehicleRemoved 	0
scalar IntersectionExampleScenario.node[41].appl 	ArrivedAtDest 	1
scalar IntersectionExampleScenario.node[41].appl 	IntersectionEnterTime 	112.5
scalar IntersectionExampleScenario.node[41].appl 	IntersectionExitTime 	136.29609323604
scalar IntersectionExampleScenario.node[41].appl 	NumberOfCollisions 	0
scalar IntersectionExampleScenario.node[41].nic.phy80211p 	busyTime 	0
scalar IntersectionExampleScenario.node[41].nic.mac1609_4 	ReceivedUnicastPackets 	0
scalar IntersectionExampleScenario.node[41].nic.mac1609_4 	ReceivedBroadcasts 	0
scalar IntersectionExampleScenario.node[41].nic.mac1609_4 	SentPackets 	0
scalar IntersectionExampleScenario.node[41].nic.mac1609_4 	SNIRLostPackets 	0
scalar IntersectionExampleScenario.node[41].nic.mac1609_4 	RXTXLostPackets 	0
scalar IntersectionExampleScenario.node[41].nic.mac1609_4 	TotalLostPackets 	0
scalar IntersectionExampleScenario.node[41].nic.mac1609_4 	DroppedPacketsInMac 	0
scalar IntersectionExampleScenario.node[41].nic.mac1609_4 	TooLittleTime 	0
scalar IntersectionExampleScenario.node[41].nic.mac1609_4 	TimesIntoBackoff 	0
scalar IntersectionExampleScenario.node[41].nic.mac1609_4 	SlotsBackoff 	0
scalar IntersectionExampleScenario.node[41].nic.mac1609_4 	NumInternalContention 	0
scalar IntersectionExampleScenario.node[41].nic.mac1609_4 	totalBusyTime 	0
scalar IntersectionExampleScenario.node[41].veinsmobility 	startTime 	112.5
scalar IntersectionExampleScenario.node[41].veinsmobility 	totalTime 	40.5
scalar IntersectionExampleScenario.node[41].veinsmobility 	stopTime 	153.25
scalar IntersectionExampleScenario.node[41].veinsmobility 	minSpeed 	5.6500000953674
scalar IntersectionExampleScenario.node[41].veinsmobility 	maxSpeed 	15.02499961853
scalar IntersectionExampleScenario.node[41].veinsmobility 	totalDistance 	548.94673447714
scalar IntersectionExampleScenario.node[41].veinsmobility 	totalCO2Emission 	118.99422540761
scalar IntersectionExampleScenario.node[35].appl 	VehicleRemoved 	0
scalar IntersectionExampleScenario.node[35].appl 	ArrivedAtDest 	1
scalar IntersectionExampleScenario.node[35].appl 	IntersectionEnterTime 	95.5
scalar IntersectionExampleScenario.node[35].appl 	IntersectionExitTime 	139.57329539806
scalar IntersectionExampleScenario.node[35].appl 	NumberOfCollisions 	0
scalar IntersectionExampleScenario.node[35].nic.phy80211p 	busyTime 	0
scalar IntersectionExampleScenario.node[35].nic.mac1609_4 	ReceivedUnicastPackets 	0
scalar IntersectionExampleScenario.node[35].nic.mac1609_4 	ReceivedBroadcasts 	0
scalar IntersectionExampleScenario.node[35].nic.mac1609_4 	SentPackets 	0
scalar IntersectionExampleScenario.node[35].nic.mac1609_4 	SNIRLostPackets 	0
scalar IntersectionExampleScenario.node[35].nic.mac1609_4 	RXTXLostPackets 	0
scalar IntersectionExampleScenario.node[35].nic.mac1609_4 	TotalLostPackets 	0
scalar IntersectionExampleScenario.node[35].nic.mac1609_4 	DroppedPacketsInMac 	0
scalar IntersectionExampleScenario.node[35].nic.mac1609_4 	TooLittleTime 	0
[...]
scalar IntersectionExampleScenario.node[591].veinsmobility 	totalCO2Emission 	85.29627927703
scalar IntersectionExampleScenario.node[592].appl 	VehicleRemoved 	0
scalar IntersectionExampleScenario.node[592].appl 	ArrivedAtDest 	0
scalar IntersectionExampleScenario.node[592].appl 	IntersectionEnterTime 	1782.25
scalar IntersectionExampleScenario.node[592].appl 	IntersectionExitTime 	-1
scalar IntersectionExampleScenario.node[592].appl 	NumberOfCollisions 	0
scalar IntersectionExampleScenario.node[592].nic.phy80211p 	busyTime 	0
scalar IntersectionExampleScenario.node[592].nic.mac1609_4 	ReceivedUnicastPackets 	0
scalar IntersectionExampleScenario.node[592].nic.mac1609_4 	ReceivedBroadcasts 	0
scalar IntersectionExampleScenario.node[592].nic.mac1609_4 	SentPackets 	0
scalar IntersectionExampleScenario.node[592].nic.mac1609_4 	SNIRLostPackets 	0
scalar IntersectionExampleScenario.node[592].nic.mac1609_4 	RXTXLostPackets 	0
scalar IntersectionExampleScenario.node[592].nic.mac1609_4 	TotalLostPackets 	0
scalar IntersectionExampleScenario.node[592].nic.mac1609_4 	DroppedPacketsInMac 	0
scalar IntersectionExampleScenario.node[592].nic.mac1609_4 	TooLittleTime 	0
scalar IntersectionExampleScenario.node[592].nic.mac1609_4 	TimesIntoBackoff 	0
scalar IntersectionExampleScenario.node[592].nic.mac1609_4 	SlotsBackoff 	0
scalar IntersectionExampleScenario.node[592].nic.mac1609_4 	NumInternalContention 	0
scalar IntersectionExampleScenario.node[592].nic.mac1609_4 	totalBusyTime 	0
scalar IntersectionExampleScenario.node[592].veinsmobility 	startTime 	1782.25
scalar IntersectionExampleScenario.node[592].veinsmobility 	totalTime 	17.75
scalar IntersectionExampleScenario.node[592].veinsmobility 	stopTime 	1800
scalar IntersectionExampleScenario.node[592].veinsmobility 	minSpeed 	5.6500000953674
scalar IntersectionExampleScenario.node[592].veinsmobility 	maxSpeed 	15.64999961853
scalar IntersectionExampleScenario.node[592].veinsmobility 	totalDistance 	249.71692657471
scalar IntersectionExampleScenario.node[592].veinsmobility 	totalCO2Emission 	63.732805896705
scalar IntersectionExampleScenario.node[593].appl 	VehicleRemoved 	0
scalar IntersectionExampleScenario.node[593].appl 	ArrivedAtDest 	0
scalar IntersectionExampleScenario.node[593].appl 	IntersectionEnterTime 	1783
scalar IntersectionExampleScenario.node[593].appl 	IntersectionExitTime 	-1
scalar IntersectionExampleScenario.node[593].appl 	NumberOfCollisions 	0
scalar IntersectionExampleScenario.node[593].nic.phy80211p 	busyTime 	0
scalar IntersectionExampleScenario.node[593].nic.mac1609_4 	ReceivedUnicastPackets 	0
scalar IntersectionExampleScenario.node[593].nic.mac1609_4 	ReceivedBroadcasts 	0
scalar IntersectionExampleScenario.node[593].nic.mac1609_4 	SentPackets 	0
scalar IntersectionExampleScenario.node[593].nic.mac1609_4 	SNIRLostPackets 	0
scalar IntersectionExampleScenario.node[593].nic.mac1609_4 	RXTXLostPackets 	0
scalar IntersectionExampleScenario.node[593].nic.mac1609_4 	TotalLostPackets 	0
scalar IntersectionExampleScenario.node[593].nic.mac1609_4 	DroppedPacketsInMac 	0
scalar IntersectionExampleScenario.node[593].nic.mac1609_4 	TooLittleTime 	0
scalar IntersectionExampleScenario.node[593].nic.mac1609_4 	TimesIntoBackoff 	0
scalar IntersectionExampleScenario.node[593].nic.mac1609_4 	SlotsBackoff 	0
scalar IntersectionExampleScenario.node[593].nic.mac1609_4 	NumInternalContention 	0
scalar IntersectionExampleScenario.node[593].nic.mac1609_4 	totalBusyTime 	0
scalar IntersectionExampleScenario.node[593].veinsmobility 	startTime 	1783
scalar IntersectionExampleScenario.node[593].veinsmobility 	totalTime 	17
scalar IntersectionExampleScenario.node[593].veinsmobility 	stopTime 	1800
scalar IntersectionExampleScenario.node[593].veinsmobility 	minSpeed 	5.6500000953674
scalar IntersectionExampleScenario.node[593].veinsmobility 	maxSpeed 	15.975706100464
scalar IntersectionExampleScenario.node[593].veinsmobility 	totalDistance 	241.34726715088
scalar IntersectionExampleScenario.node[593].veinsmobility 	totalCO2Emission 	61.425027005397
scalar IntersectionExampleScenario.node[594].appl 	VehicleRemoved 	0
scalar IntersectionExampleScenario.node[594].appl 	ArrivedAtDest 	0
scalar IntersectionExampleScenario.node[594].appl 	IntersectionEnterTime 	1784.75
scalar IntersectionExampleScenario.node[594].appl 	IntersectionExitTime 	-1
scalar IntersectionExampleScenario.node[594].appl 	NumberOfCollisions 	0
scalar IntersectionExampleScenario.node[594].nic.phy80211p 	busyTime 	0
scalar IntersectionExampleScenario.node[594].nic.mac1609_4 	ReceivedUnicastPackets 	0
scalar IntersectionExampleScenario.node[594].nic.mac1609_4 	ReceivedBroadcasts 	0
scalar IntersectionExampleScenario.node[594].nic.mac1609_4 	SentPackets 	0
scalar IntersectionExampleScenario.node[594].nic.mac1609_4 	SNIRLostPackets 	0
scalar IntersectionExampleScenario.node[594].nic.mac1609_4 	RXTXLostPackets 	0
scalar IntersectionExampleScenario.node[594].nic.mac1609_4 	TotalLostPackets 	0
scalar IntersectionExampleScenario.node[594].nic.mac1609_4 	DroppedPacketsInMac 	0
scalar IntersectionExampleScenario.node[594].nic.mac1609_4 	TooLittleTime 	0
scalar IntersectionExampleScenario.node[594].nic.mac1609_4 	TimesIntoBackoff 	0
scalar IntersectionExampleScenario.node[594].nic.mac1609_4 	SlotsBackoff 	0
scalar IntersectionExampleScenario.node[594].nic.mac1609_4 	NumInternalContention 	0
scalar IntersectionExampleScenario.node[594].nic.mac1609_4 	totalBusyTime 	0
scalar IntersectionExampleScenario.node[594].veinsmobility 	startTime 	1784.75
scalar IntersectionExampleScenario.node[594].veinsmobility 	totalTime 	15.25
scalar IntersectionExampleScenario.node[594].veinsmobility 	stopTime 	1800
scalar IntersectionExampleScenario.node[594].veinsmobility 	minSpeed 	5.6500000953674
scalar IntersectionExampleScenario.node[594].veinsmobility 	maxSpeed 	15.02499961853
scalar IntersectionExampleScenario.node[594].veinsmobility 	totalDistance 	207.78418731689
scalar IntersectionExampleScenario.node[594].veinsmobility 	totalCO2Emission 	54.20224947939
scalar IntersectionExampleScenario.node[595].appl 	VehicleRemoved 	0
scalar IntersectionExampleScenario.node[595].appl 	ArrivedAtDest 	0
scalar IntersectionExampleScenario.node[595].appl 	IntersectionEnterTime 	1787.25
scalar IntersectionExampleScenario.node[595].appl 	IntersectionExitTime 	-1
scalar IntersectionExampleScenario.node[595].appl 	NumberOfCollisions 	0
scalar IntersectionExampleScenario.node[595].nic.phy80211p 	busyTime 	0
scalar IntersectionExampleScenario.node[595].nic.mac1609_4 	ReceivedUnicastPackets 	0
scalar IntersectionExampleScenario.node[595].nic.mac1609_4 	ReceivedBroadcasts 	0
scalar IntersectionExampleScenario.node[595].nic.mac1609_4 	SentPackets 	0
scalar IntersectionExampleScenario.node[595].nic.mac1609_4 	SNIRLostPackets 	0
scalar IntersectionExampleScenario.node[595].nic.mac1609_4 	RXTXLostPackets 	0
scalar IntersectionExampleScenario.node[595].nic.mac1609_4 	TotalLostPackets 	0
scalar IntersectionExampleScenario.node[595].nic.mac1609_4 	DroppedPacketsInMac 	0
scalar IntersectionExampleScenario.node[595].nic.mac1609_4 	TooLittleTime 	0
scalar IntersectionExampleScenario.node[595].nic.mac1609_4 	TimesIntoBackoff 	0
scalar IntersectionExampleScenario.node[595].nic.mac1609_4 	SlotsBackoff 	0
scalar IntersectionExampleScenario.node[595].nic.mac1609_4 	NumInternalContention 	0
scalar IntersectionExampleScenario.node[595].nic.mac1609_4 	totalBusyTime 	0
scalar IntersectionExampleScenario.node[595].veinsmobility 	startTime 	1787.25
scalar IntersectionExampleScenario.node[595].veinsmobility 	totalTime 	12.75
scalar IntersectionExampleScenario.node[595].veinsmobility 	stopTime 	1800
scalar IntersectionExampleScenario.node[595].veinsmobility 	minSpeed 	5.6500000953674
scalar IntersectionExampleScenario.node[595].veinsmobility 	maxSpeed 	15.64999961853
scalar IntersectionExampleScenario.node[595].veinsmobility 	totalDistance 	174.09423828125
scalar IntersectionExampleScenario.node[595].veinsmobility 	totalCO2Emission 	50.74927604981
scalar IntersectionExampleScenario.node[596].appl 	VehicleRemoved 	0
scalar IntersectionExampleScenario.node[596].appl 	ArrivedAtDest 	0
scalar IntersectionExampleScenario.node[596].appl 	IntersectionEnterTime 	1787.5
scalar IntersectionExampleScenario.node[596].appl 	IntersectionExitTime 	-1
scalar IntersectionExampleScenario.node[596].appl 	NumberOfCollisions 	0
scalar IntersectionExampleScenario.node[596].nic.phy80211p 	busyTime 	0
scalar IntersectionExampleScenario.node[596].nic.mac1609_4 	ReceivedUnicastPackets 	0
scalar IntersectionExampleScenario.node[596].nic.mac1609_4 	ReceivedBroadcasts 	0
scalar IntersectionExampleScenario.node[596].nic.mac1609_4 	SentPackets 	0
scalar IntersectionExampleScenario.node[596].nic.mac1609_4 	SNIRLostPackets 	0
scalar IntersectionExampleScenario.node[596].nic.mac1609_4 	RXTXLostPackets 	0
scalar IntersectionExampleScenario.node[596].nic.mac1609_4 	TotalLostPackets 	0
scalar IntersectionExampleScenario.node[596].nic.mac1609_4 	DroppedPacketsInMac 	0
scalar IntersectionExampleScenario.node[596].nic.mac1609_4 	TooLittleTime 	0
scalar IntersectionExampleScenario.node[596].nic.mac1609_4 	TimesIntoBackoff 	0
scalar IntersectionExampleScenario.node[596].nic.mac1609_4 	SlotsBackoff 	0
scalar IntersectionExampleScenario.node[596].nic.mac1609_4 	NumInternalContention 	0
scalar IntersectionExampleScenario.node[596].nic.mac1609_4 	totalBusyTime 	0
scalar IntersectionExampleScenario.node[596].veinsmobility 	startTime 	1787.5
scalar IntersectionExampleScenario.node[596].veinsmobility 	totalTime 	12.5
scalar IntersectionExampleScenario.node[596].veinsmobility 	stopTime 	1800
scalar IntersectionExampleScenario.node[596].veinsmobility 	minSpeed 	5.6500000953674
scalar IntersectionExampleScenario.node[596].veinsmobility 	maxSpeed 	14.280409812927
scalar IntersectionExampleScenario.node[596].veinsmobility 	totalDistance 	141.15800476074
scalar IntersectionExampleScenario.node[596].veinsmobility 	totalCO2Emission 	44.727893358606
scalar IntersectionExampleScenario.node[597].appl 	VehicleRemoved 	0
scalar IntersectionExampleScenario.node[597].appl 	ArrivedAtDest 	0
scalar IntersectionExampleScenario.node[597].appl 	IntersectionEnterTime 	1787.5
scalar IntersectionExampleScenario.node[597].appl 	IntersectionExitTime 	-1
scalar IntersectionExampleScenario.node[597].appl 	NumberOfCollisions 	0
scalar IntersectionExampleScenario.node[597].nic.phy80211p 	busyTime 	0
scalar IntersectionExampleScenario.node[597].nic.mac1609_4 	ReceivedUnicastPackets 	0
scalar IntersectionExampleScenario.node[597].nic.mac1609_4 	ReceivedBroadcasts 	0
scalar IntersectionExampleScenario.node[597].nic.mac1609_4 	SentPackets 	0
scalar IntersectionExampleScenario.node[597].nic.mac1609_4 	SNIRLostPackets 	0
scalar IntersectionExampleScenario.node[597].nic.mac1609_4 	RXTXLostPackets 	0
scalar IntersectionExampleScenario.node[597].nic.mac1609_4 	TotalLostPackets 	0
scalar IntersectionExampleScenario.node[597].nic.mac1609_4 	DroppedPacketsInMac 	0
scalar IntersectionExampleScenario.node[597].nic.mac1609_4 	TooLittleTime 	0
scalar IntersectionExampleScenario.node[597].nic.mac1609_4 	TimesIntoBackoff 	0
scalar IntersectionExampleScenario.node[597].nic.mac1609_4 	SlotsBackoff 	0
scalar IntersectionExampleScenario.node[597].nic.mac1609_4 	NumInternalContention 	0
scalar IntersectionExampleScenario.node[597].nic.mac1609_4 	totalBusyTime 	0
scalar IntersectionExampleScenario.node[597].veinsmobility 	startTime 	1787.5
scalar IntersectionExampleScenario.node[597].veinsmobility 	totalTime 	12.5
scalar IntersectionExampleScenario.node[597].veinsmobility 	stopTime 	1800
scalar IntersectionExampleScenario.node[597].veinsmobility 	minSpeed 	5.6500000953674
scalar IntersectionExampleScenario.node[597].veinsmobility 	maxSpeed 	15.02499961853
scalar IntersectionExampleScenario.node[597].veinsmobility 	totalDistance 	164.8794631958
scalar IntersectionExampleScenario.node[597].veinsmobility 	totalCO2Emission 	47.269416026689
scalar IntersectionExampleScenario.node[598].appl 	VehicleRemoved 	0
scalar IntersectionExampleScenario.node[598].appl 	ArrivedAtDest 	0
scalar IntersectionExampleScenario.node[598].appl 	IntersectionEnterTime 	1789.25
scalar IntersectionExampleScenario.node[598].appl 	IntersectionExitTime 	-1
scalar IntersectionExampleScenario.node[598].appl 	NumberOfCollisions 	0
scalar IntersectionExampleScenario.node[598].nic.phy80211p 	busyTime 	0
scalar IntersectionExampleScenario.node[598].nic.mac1609_4 	ReceivedUnicastPackets 	0
scalar IntersectionExampleScenario.node[598].nic.mac1609_4 	ReceivedBroadcasts 	0
scalar IntersectionExampleScenario.node[598].nic.mac1609_4 	SentPackets 	0
scalar IntersectionExampleScenario.node[598].nic.mac1609_4 	SNIRLostPackets 	0
scalar IntersectionExampleScenario.node[598].nic.mac1609_4 	RXTXLostPackets 	0
scalar IntersectionExampleScenario.node[598].nic.mac1609_4 	TotalLostPackets 	0
scalar IntersectionExampleScenario.node[598].nic.mac1609_4 	DroppedPacketsInMac 	0
scalar IntersectionExampleScenario.node[598].nic.mac1609_4 	TooLittleTime 	0
scalar IntersectionExampleScenario.node[598].nic.mac1609_4 	TimesIntoBackoff 	0
scalar IntersectionExampleScenario.node[598].nic.mac1609_4 	SlotsBackoff 	0
scalar IntersectionExampleScenario.node[598].nic.mac1609_4 	NumInternalContention 	0
scalar IntersectionExampleScenario.node[598].nic.mac1609_4 	totalBusyTime 	0
scalar IntersectionExampleScenario.node[598].veinsmobility 	startTime 	1789.25
scalar IntersectionExampleScenario.node[598].veinsmobility 	totalTime 	10.75
scalar IntersectionExampleScenario.node[598].veinsmobility 	stopTime 	1800
scalar IntersectionExampleScenario.node[598].veinsmobility 	minSpeed 	5.6500000953674
scalar IntersectionExampleScenario.node[598].veinsmobility 	maxSpeed 	15.02499961853
scalar IntersectionExampleScenario.node[598].veinsmobility 	totalDistance 	140.07501220703
scalar IntersectionExampleScenario.node[598].veinsmobility 	totalCO2Emission 	43.884259276155
scalar IntersectionExampleScenario.node[599].appl 	VehicleRemoved 	0
scalar IntersectionExampleScenario.node[599].appl 	ArrivedAtDest 	0
scalar IntersectionExampleScenario.node[599].appl 	IntersectionEnterTime 	1791.75
scalar IntersectionExampleScenario.node[599].appl 	IntersectionExitTime 	-1
scalar IntersectionExampleScenario.node[599].appl 	NumberOfCollisions 	0
scalar IntersectionExampleScenario.node[599].nic.phy80211p 	busyTime 	0
scalar IntersectionExampleScenario.node[599].nic.mac1609_4 	ReceivedUnicastPackets 	0
scalar IntersectionExampleScenario.node[599].nic.mac1609_4 	ReceivedBroadcasts 	0
scalar IntersectionExampleScenario.node[599].nic.mac1609_4 	SentPackets 	0
scalar IntersectionExampleScenario.node[599].nic.mac1609_4 	SNIRLostPackets 	0
scalar IntersectionExampleScenario.node[599].nic.mac1609_4 	RXTXLostPackets 	0
scalar IntersectionExampleScenario.node[599].nic.mac1609_4 	TotalLostPackets 	0
scalar IntersectionExampleScenario.node[599].nic.mac1609_4 	DroppedPacketsInMac 	0
scalar IntersectionExampleScenario.node[599].nic.mac1609_4 	TooLittleTime 	0
scalar IntersectionExampleScenario.node[599].nic.mac1609_4 	TimesIntoBackoff 	0
scalar IntersectionExampleScenario.node[599].nic.mac1609_4 	SlotsBackoff 	0
scalar IntersectionExampleScenario.node[599].nic.mac1609_4 	NumInternalContention 	0
scalar IntersectionExampleScenario.node[599].nic.mac1609_4 	totalBusyTime 	0
scalar IntersectionExampleScenario.node[599].veinsmobility 	startTime 	1791.75
scalar IntersectionExampleScenario.node[599].veinsmobility 	totalTime 	8.25
scalar IntersectionExampleScenario.node[599].veinsmobility 	stopTime 	1800
scalar IntersectionExampleScenario.node[599].veinsmobility 	minSpeed 	5.6500000953674
scalar IntersectionExampleScenario.node[599].veinsmobility 	maxSpeed 	15.721480369568
scalar IntersectionExampleScenario.node[599].veinsmobility 	totalDistance 	106.02088165283
scalar IntersectionExampleScenario.node[599].veinsmobility 	totalCO2Emission 	42.404123776597
scalar IntersectionExampleScenario.node[600].appl 	VehicleRemoved 	0
scalar IntersectionExampleScenario.node[600].appl 	ArrivedAtDest 	0
scalar IntersectionExampleScenario.node[600].appl 	IntersectionEnterTime 	1795.5
scalar IntersectionExampleScenario.node[600].appl 	IntersectionExitTime 	-1
scalar IntersectionExampleScenario.node[600].appl 	NumberOfCollisions 	0
scalar IntersectionExampleScenario.node[600].nic.phy80211p 	busyTime 	0
scalar IntersectionExampleScenario.node[600].nic.mac1609_4 	ReceivedUnicastPackets 	0
scalar IntersectionExampleScenario.node[600].nic.mac1609_4 	ReceivedBroadcasts 	0
scalar IntersectionExampleScenario.node[600].nic.mac1609_4 	SentPackets 	0
scalar IntersectionExampleScenario.node[600].nic.mac1609_4 	SNIRLostPackets 	0
scalar IntersectionExampleScenario.node[600].nic.mac1609_4 	RXTXLostPackets 	0
scalar IntersectionExampleScenario.node[600].nic.mac1609_4 	TotalLostPackets 	0
scalar IntersectionExampleScenario.node[600].nic.mac1609_4 	DroppedPacketsInMac 	0
scalar IntersectionExampleScenario.node[600].nic.mac1609_4 	TooLittleTime 	0
scalar IntersectionExampleScenario.node[600].nic.mac1609_4 	TimesIntoBackoff 	0
scalar IntersectionExampleScenario.node[600].nic.mac1609_4 	SlotsBackoff 	0
scalar IntersectionExampleScenario.node[600].nic.mac1609_4 	NumInternalContention 	0
scalar IntersectionExampleScenario.node[600].nic.mac1609_4 	totalBusyTime 	0
scalar IntersectionExampleScenario.node[600].veinsmobility 	startTime 	1795.5
scalar IntersectionExampleScenario.node[600].veinsmobility 	totalTime 	4.5
scalar IntersectionExampleScenario.node[600].veinsmobility 	stopTime 	1800
scalar IntersectionExampleScenario.node[600].veinsmobility 	minSpeed 	5.6500000953674
scalar IntersectionExampleScenario.node[600].veinsmobility 	maxSpeed 	14.615880012512
scalar IntersectionExampleScenario.node[600].veinsmobility 	totalDistance 	47.31192779541
scalar IntersectionExampleScenario.node[600].veinsmobility 	totalCO2Emission 	30.178964250859
scalar IntersectionExampleScenario.node[601].appl 	VehicleRemoved 	0
scalar IntersectionExampleScenario.node[601].appl 	ArrivedAtDest 	0
scalar IntersectionExampleScenario.node[601].appl 	IntersectionEnterTime 	1796.75
scalar IntersectionExampleScenario.node[601].appl 	IntersectionExitTime 	-1
scalar IntersectionExampleScenario.node[601].appl 	NumberOfCollisions 	0
scalar IntersectionExampleScenario.node[601].nic.phy80211p 	busyTime 	0
scalar IntersectionExampleScenario.node[601].nic.mac1609_4 	ReceivedUnicastPackets 	0
scalar IntersectionExampleScenario.node[601].nic.mac1609_4 	ReceivedBroadcasts 	0
scalar IntersectionExampleScenario.node[601].nic.mac1609_4 	SentPackets 	0
scalar IntersectionExampleScenario.node[601].nic.mac1609_4 	SNIRLostPackets 	0
scalar IntersectionExampleScenario.node[601].nic.mac1609_4 	RXTXLostPackets 	0
scalar IntersectionExampleScenario.node[601].nic.mac1609_4 	TotalLostPackets 	0
scalar IntersectionExampleScenario.node[601].nic.mac1609_4 	DroppedPacketsInMac 	0
scalar IntersectionExampleScenario.node[601].nic.mac1609_4 	TooLittleTime 	0
scalar IntersectionExampleScenario.node[601].nic.mac1609_4 	TimesIntoBackoff 	0
scalar IntersectionExampleScenario.node[601].nic.mac1609_4 	SlotsBackoff 	0
scalar IntersectionExampleScenario.node[601].nic.mac1609_4 	NumInternalContention 	0
scalar IntersectionExampleScenario.node[601].nic.mac1609_4 	totalBusyTime 	0
scalar IntersectionExampleScenario.node[601].veinsmobility 	startTime 	1796.75
scalar IntersectionExampleScenario.node[601].veinsmobility 	totalTime 	3.25
scalar IntersectionExampleScenario.node[601].veinsmobility 	stopTime 	1800
scalar IntersectionExampleScenario.node[601].veinsmobility 	minSpeed 	5.6500000953674
scalar IntersectionExampleScenario.node[601].veinsmobility 	maxSpeed 	13.14999961853
scalar IntersectionExampleScenario.node[601].veinsmobility 	totalDistance 	29.534362792969
scalar IntersectionExampleScenario.node[601].veinsmobility 	totalCO2Emission 	22.582438530969
