file 19796996 1591496367                                        
version 2
run nodebug-48-20200606-22:16:33-21964
attr configname nodebug
attr datetime 20200606-22:16:33
attr experiment nodebug
attr inifile omnetpp.ini
attr iterationvars ""
attr iterationvars2 $repetition=48
attr measurement ""
attr network "\"org.car2x.veins.modules.application.ExtTraCIScenarioManagerLaunchd.IntersectionExampleScenario\""
attr processid 21964
attr repetition 48
attr replication #48
attr resultdir results
attr runnumber 48
attr seedset 48
param **.coreDebug false
param **.debug false
param *.**.nic.mac1609_4.bitrate 18Mbps
param *.**.nic.mac1609_4.txPower 20mW
param *.**.nic.mac1609_4.useServiceChannel false
param *.**.nic.phy80211p.analogueModels "xmldoc(\"config.xml\")"
param *.**.nic.phy80211p.decider "xmldoc(\"config.xml\")"
param *.**.nic.phy80211p.sensitivity -89dBm
param *.**.nic.phy80211p.thermalNoise -110dBm
param *.**.nic.phy80211p.usePropagationDelay true
param *.**.nic.phy80211p.useThermalNoise true
param *.annotations.draw false
param *.connectionManager.alpha 2.0
param *.connectionManager.carrierFrequency "5.890e9 Hz"
param *.connectionManager.pMax 20mW
param *.connectionManager.sat -89dBm
param *.connectionManager.sendDirect true
param *.manager.autoShutdown true
param *.manager.host "\"localhost\""
param *.manager.launchConfig "xmldoc(\"paramics.launchd.xml\")"
param *.manager.margin 25
param *.manager.moduleDisplayString "\"\""
param *.manager.moduleName "\"node\""
param *.manager.moduleType "\"org.car2x.veins.nodes.Car\""
param *.manager.port 9999
param *.manager.updateInterval 250ms
param *.node[*0].veinsmobility.accidentCount 0
param *.node[*0].veinsmobility.accidentDuration 30s
param *.node[*0].veinsmobility.accidentStart 75s
param *.node[*].appl.LiderSelectZoneRadio 55.0
param *.node[*].appl.ShareDataZoneRadio 110.0
param *.node[*].appl.TiempoSemaforo 30.0
param *.node[*].appl.beaconInterval 1s
param *.node[*].appl.beaconPriority 3
param *.node[*].appl.dataOnSch false
param *.node[*].appl.dataPriority 2
param *.node[*].appl.debug false
param *.node[*].appl.headerLength "256 bit"
param *.node[*].appl.maxOffset 0.005s
param *.node[*].appl.sendBeacons false
param *.node[*].appl.sendData true
param *.node[*].applType "\"Dummy\""
param *.node[*].mobilityType "\"TraCIMobility\""
param *.node[*].mobilityType.debug true
param *.node[*].veinsmobility.x 0
param *.node[*].veinsmobility.y 0
param *.node[*].veinsmobility.z 1.895
param *.node[*].veinsmobilityType "\"org.car2x.veins.modules.mobility.traci.TraCIMobility\""
param *.node[*].veinsmobilityType.debug true
param *.playgroundSizeX 8500m
param *.playgroundSizeY 8500m
param *.playgroundSizeZ 50m
param *.world.use2D false
param *.world.useTorus false

vector 56369  IntersectionExampleScenario.manager  vehiclesinsim  ETV
attr type  int
vector 56370  IntersectionExampleScenario.manager  realtime  ETV
attr type  int
attr unit  s
vector 56373  IntersectionExampleScenario.node[0].veinsmobility  posx  ETV
vector 56374  IntersectionExampleScenario.node[0].veinsmobility  posy  ETV
vector 56375  IntersectionExampleScenario.node[0].veinsmobility  speed  ETV
vector 56376  IntersectionExampleScenario.node[0].veinsmobility  acceleration  ETV
vector 56377  IntersectionExampleScenario.node[0].veinsmobility  co2emission  ETV
vector 56380  IntersectionExampleScenario.node[1].veinsmobility  posx  ETV
vector 56381  IntersectionExampleScenario.node[1].veinsmobility  posy  ETV
vector 56382  IntersectionExampleScenario.node[1].veinsmobility  speed  ETV
vector 56383  IntersectionExampleScenario.node[1].veinsmobility  acceleration  ETV
vector 56384  IntersectionExampleScenario.node[1].veinsmobility  co2emission  ETV
vector 56387  IntersectionExampleScenario.node[2].veinsmobility  posx  ETV
vector 56388  IntersectionExampleScenario.node[2].veinsmobility  posy  ETV
vector 56389  IntersectionExampleScenario.node[2].veinsmobility  speed  ETV
vector 56390  IntersectionExampleScenario.node[2].veinsmobility  acceleration  ETV
vector 56391  IntersectionExampleScenario.node[2].veinsmobility  co2emission  ETV
vector 56394  IntersectionExampleScenario.node[3].veinsmobility  posx  ETV
vector 56395  IntersectionExampleScenario.node[3].veinsmobility  posy  ETV
vector 56396  IntersectionExampleScenario.node[3].veinsmobility  speed  ETV
vector 56397  IntersectionExampleScenario.node[3].veinsmobility  acceleration  ETV
vector 56398  IntersectionExampleScenario.node[3].veinsmobility  co2emission  ETV
vector 56401  IntersectionExampleScenario.node[4].veinsmobility  posx  ETV
vector 56402  IntersectionExampleScenario.node[4].veinsmobility  posy  ETV
vector 56408  IntersectionExampleScenario.node[5].veinsmobility  posx  ETV
vector 56409  IntersectionExampleScenario.node[5].veinsmobility  posy  ETV
vector 56403  IntersectionExampleScenario.node[4].veinsmobility  speed  ETV
vector 56410  IntersectionExampleScenario.node[5].veinsmobility  speed  ETV
vector 56404  IntersectionExampleScenario.node[4].veinsmobility  acceleration  ETV
vector 56405  IntersectionExampleScenario.node[4].veinsmobility  co2emission  ETV
vector 56411  IntersectionExampleScenario.node[5].veinsmobility  acceleration  ETV
vector 56412  IntersectionExampleScenario.node[5].veinsmobility  co2emission  ETV
vector 56415  IntersectionExampleScenario.node[6].veinsmobility  posx  ETV
vector 56416  IntersectionExampleScenario.node[6].veinsmobility  posy  ETV
vector 56417  IntersectionExampleScenario.node[6].veinsmobility  speed  ETV
vector 56422  IntersectionExampleScenario.node[7].veinsmobility  posx  ETV
vector 56423  IntersectionExampleScenario.node[7].veinsmobility  posy  ETV
vector 56418  IntersectionExampleScenario.node[6].veinsmobility  acceleration  ETV
vector 56419  IntersectionExampleScenario.node[6].veinsmobility  co2emission  ETV
vector 56424  IntersectionExampleScenario.node[7].veinsmobility  speed  ETV
vector 56425  IntersectionExampleScenario.node[7].veinsmobility  acceleration  ETV
vector 56426  IntersectionExampleScenario.node[7].veinsmobility  co2emission  ETV
vector 56429  IntersectionExampleScenario.node[8].veinsmobility  posx  ETV
vector 56430  IntersectionExampleScenario.node[8].veinsmobility  posy  ETV
vector 56431  IntersectionExampleScenario.node[8].veinsmobility  speed  ETV
vector 56432  IntersectionExampleScenario.node[8].veinsmobility  acceleration  ETV
vector 56433  IntersectionExampleScenario.node[8].veinsmobility  co2emission  ETV
vector 56436  IntersectionExampleScenario.node[9].veinsmobility  posx  ETV
vector 56437  IntersectionExampleScenario.node[9].veinsmobility  posy  ETV
vector 56438  IntersectionExampleScenario.node[9].veinsmobility  speed  ETV
vector 56439  IntersectionExampleScenario.node[9].veinsmobility  acceleration  ETV
vector 56440  IntersectionExampleScenario.node[9].veinsmobility  co2emission  ETV
vector 56443  IntersectionExampleScenario.node[10].veinsmobility  posx  ETV
vector 56444  IntersectionExampleScenario.node[10].veinsmobility  posy  ETV
vector 56445  IntersectionExampleScenario.node[10].veinsmobility  speed  ETV
vector 56446  IntersectionExampleScenario.node[10].veinsmobility  acceleration  ETV
vector 56447  IntersectionExampleScenario.node[10].veinsmobility  co2emission  ETV
vector 56450  IntersectionExampleScenario.node[11].veinsmobility  posx  ETV
vector 56451  IntersectionExampleScenario.node[11].veinsmobility  posy  ETV
vector 56452  IntersectionExampleScenario.node[11].veinsmobility  speed  ETV
vector 56457  IntersectionExampleScenario.node[12].veinsmobility  posx  ETV
vector 56458  IntersectionExampleScenario.node[12].veinsmobility  posy  ETV
vector 56453  IntersectionExampleScenario.node[11].veinsmobility  acceleration  ETV
vector 56454  IntersectionExampleScenario.node[11].veinsmobility  co2emission  ETV
vector 56459  IntersectionExampleScenario.node[12].veinsmobility  speed  ETV
vector 56460  IntersectionExampleScenario.node[12].veinsmobility  acceleration  ETV
vector 56461  IntersectionExampleScenario.node[12].veinsmobility  co2emission  ETV
vector 56464  IntersectionExampleScenario.node[13].veinsmobility  posx  ETV
vector 56465  IntersectionExampleScenario.node[13].veinsmobility  posy  ETV
vector 56466  IntersectionExampleScenario.node[13].veinsmobility  speed  ETV
vector 56467  IntersectionExampleScenario.node[13].veinsmobility  acceleration  ETV
vector 56468  IntersectionExampleScenario.node[13].veinsmobility  co2emission  ETV
vector 56471  IntersectionExampleScenario.node[14].veinsmobility  posx  ETV
vector 56472  IntersectionExampleScenario.node[14].veinsmobility  posy  ETV
vector 56473  IntersectionExampleScenario.node[14].veinsmobility  speed  ETV
vector 56474  IntersectionExampleScenario.node[14].veinsmobility  acceleration  ETV
vector 56475  IntersectionExampleScenario.node[14].veinsmobility  co2emission  ETV
vector 56478  IntersectionExampleScenario.node[15].veinsmobility  posx  ETV
vector 56479  IntersectionExampleScenario.node[15].veinsmobility  posy  ETV
vector 56480  IntersectionExampleScenario.node[15].veinsmobility  speed  ETV
vector 56481  IntersectionExampleScenario.node[15].veinsmobility  acceleration  ETV
vector 56482  IntersectionExampleScenario.node[15].veinsmobility  co2emission  ETV
vector 56485  IntersectionExampleScenario.node[16].veinsmobility  posx  ETV
vector 56486  IntersectionExampleScenario.node[16].veinsmobility  posy  ETV
vector 56487  IntersectionExampleScenario.node[16].veinsmobility  speed  ETV
vector 56488  IntersectionExampleScenario.node[16].veinsmobility  acceleration  ETV
vector 56489  IntersectionExampleScenario.node[16].veinsmobility  co2emission  ETV
vector 56492  IntersectionExampleScenario.node[17].veinsmobility  posx  ETV
vector 56493  IntersectionExampleScenario.node[17].veinsmobility  posy  ETV
vector 56494  IntersectionExampleScenario.node[17].veinsmobility  speed  ETV
vector 56495  IntersectionExampleScenario.node[17].veinsmobility  acceleration  ETV
vector 56496  IntersectionExampleScenario.node[17].veinsmobility  co2emission  ETV
56384	10104 4835 27 2507 3 41.5 155 0.973 11.90022389248 498.62205862347 2773.0017976887
56383	14939 4456 27 2507 3 41.5 155 -3.4550132751465 2.5 39.529638290405 246.4333159194
56382	19395 4712 22 2507 2.75 41.5 156 5.6500000953674 16 2207.5682506561 32251.760497205
56381	24107 5033 17 2507 2.5 41.5 157 483.14999389648 732.95785522461 84095.025512695 45982783.735485
56380	29140 5023 17 2507 2.5 41.5 157 184.17810058594 486.85000610352 62466.823913574 26613872.569744
vector 56499  IntersectionExampleScenario.node[18].veinsmobility  posx  ETV
vector 56500  IntersectionExampleScenario.node[18].veinsmobility  posy  ETV
vector 56501  IntersectionExampleScenario.node[18].veinsmobility  speed  ETV
56398	34395 4793 146 2893 7.25 44.75 151 0.973 11.990504229548 486.17200314063 2650.4948188147
56397	39188 4603 146 2893 7.25 44.75 151 -3.6815567016602 2.5 40.378400802612 212.02166526713
56396	43791 4693 137 2893 7 44.75 152 5.6500000953674 16.125 2230.7054376602 33484.553231321
56395	48484 4960 128 2893 6.75 44.75 153 483.14999389648 483.14999389648 73921.949066162 35715389.240132
56394	53444 4940 128 2893 6.75 44.75 153 179.81719970703 732.10093688965 68088.938140869 34417998.767926
vector 56502  IntersectionExampleScenario.node[18].veinsmobility  acceleration  ETV
vector 56503  IntersectionExampleScenario.node[18].veinsmobility  co2emission  ETV
vector 56506  IntersectionExampleScenario.node[19].veinsmobility  posx  ETV
vector 56507  IntersectionExampleScenario.node[19].veinsmobility  posy  ETV
vector 56508  IntersectionExampleScenario.node[19].veinsmobility  speed  ETV
vector 56509  IntersectionExampleScenario.node[19].veinsmobility  acceleration  ETV
vector 56510  IntersectionExampleScenario.node[19].veinsmobility  co2emission  ETV
vector 56513  IntersectionExampleScenario.node[20].veinsmobility  posx  ETV
vector 56514  IntersectionExampleScenario.node[20].veinsmobility  posy  ETV
vector 56515  IntersectionExampleScenario.node[20].veinsmobility  speed  ETV
vector 56520  IntersectionExampleScenario.node[21].veinsmobility  posx  ETV
vector 56521  IntersectionExampleScenario.node[21].veinsmobility  posy  ETV
vector 56516  IntersectionExampleScenario.node[20].veinsmobility  acceleration  ETV
vector 56517  IntersectionExampleScenario.node[20].veinsmobility  co2emission  ETV
vector 56522  IntersectionExampleScenario.node[21].veinsmobility  speed  ETV
vector 56527  IntersectionExampleScenario.node[22].veinsmobility  posx  ETV
vector 56528  IntersectionExampleScenario.node[22].veinsmobility  posy  ETV
vector 56523  IntersectionExampleScenario.node[21].veinsmobility  acceleration  ETV
vector 56524  IntersectionExampleScenario.node[21].veinsmobility  co2emission  ETV
vector 56534  IntersectionExampleScenario.node[23].veinsmobility  posx  ETV
vector 56535  IntersectionExampleScenario.node[23].veinsmobility  posy  ETV
vector 56529  IntersectionExampleScenario.node[22].veinsmobility  speed  ETV
vector 56530  IntersectionExampleScenario.node[22].veinsmobility  acceleration  ETV
vector 56531  IntersectionExampleScenario.node[22].veinsmobility  co2emission  ETV
vector 56536  IntersectionExampleScenario.node[23].veinsmobility  speed  ETV
vector 56537  IntersectionExampleScenario.node[23].veinsmobility  acceleration  ETV
vector 56538  IntersectionExampleScenario.node[23].veinsmobility  co2emission  ETV
vector 56541  IntersectionExampleScenario.node[24].veinsmobility  posx  ETV
vector 56542  IntersectionExampleScenario.node[24].veinsmobility  posy  ETV
vector 56543  IntersectionExampleScenario.node[24].veinsmobility  speed  ETV
vector 56544  IntersectionExampleScenario.node[24].veinsmobility  acceleration  ETV
vector 56545  IntersectionExampleScenario.node[24].veinsmobility  co2emission  ETV
vector 56548  IntersectionExampleScenario.node[25].veinsmobility  posx  ETV
vector 56549  IntersectionExampleScenario.node[25].veinsmobility  posy  ETV
vector 56555  IntersectionExampleScenario.node[26].veinsmobility  posx  ETV
vector 56556  IntersectionExampleScenario.node[26].veinsmobility  posy  ETV
vector 56562  IntersectionExampleScenario.node[27].veinsmobility  posx  ETV
vector 56563  IntersectionExampleScenario.node[27].veinsmobility  posy  ETV
vector 56550  IntersectionExampleScenario.node[25].veinsmobility  speed  ETV
vector 56551  IntersectionExampleScenario.node[25].veinsmobility  acceleration  ETV
vector 56552  IntersectionExampleScenario.node[25].veinsmobility  co2emission  ETV
vector 56557  IntersectionExampleScenario.node[26].veinsmobility  speed  ETV
vector 56564  IntersectionExampleScenario.node[27].veinsmobility  speed  ETV
vector 56558  IntersectionExampleScenario.node[26].veinsmobility  acceleration  ETV
vector 56559  IntersectionExampleScenario.node[26].veinsmobility  co2emission  ETV
vector 56565  IntersectionExampleScenario.node[27].veinsmobility  acceleration  ETV
vector 56566  IntersectionExampleScenario.node[27].veinsmobility  co2emission  ETV
56412	62162 4759 604 4568 19.75 57 150 0.973 12.553400930962 522.11709425572 3213.4260273201
56411	66921 4458 604 4568 19.75 57 150 -3.4257888793945 2.5 42.754949569702 274.65081152934
56410	71379 4647 591 4568 19.5 57 151 5.6500000953674 16.89999961853 2214.7583818436 33747.933650291
56409	76026 4979 578 4568 19.25 57 152 483.14999389648 734.76620483398 81411.723983765 44519950.099097
56408	81005 4963 578 4568 19.25 57 152 184.17810058594 486.85000610352 60475.889099121 25780228.817802
vector 56569  IntersectionExampleScenario.node[28].veinsmobility  posx  ETV
vector 56570  IntersectionExampleScenario.node[28].veinsmobility  posy  ETV
vector 56571  IntersectionExampleScenario.node[28].veinsmobility  speed  ETV
vector 56572  IntersectionExampleScenario.node[28].veinsmobility  acceleration  ETV
vector 56573  IntersectionExampleScenario.node[28].veinsmobility  co2emission  ETV
56377	86369 6495 14 4881 2.25 59 228 0.973 12.099024792222 612.30569094499 3209.364793067
56376	92864 6017 14 4881 2.25 59 228 -7.8777389526367 4 40.038900375366 507.63096320897
56375	98881 6189 11 4881 2 59 229 0 16.27499961853 2184.4825298786 31478.340064468
56374	105070 7420 8 4881 1.75 59 230 184.17810058594 483.36395263672 96698.833862305 42641914.617659
56373	112490 7370 8 4881 1.75 59 230 486.85000610352 734.86784362793 120062.16319275 63721132.670052
vector 56576  IntersectionExampleScenario.node[29].veinsmobility  posx  ETV
vector 56577  IntersectionExampleScenario.node[29].veinsmobility  posy  ETV
vector 56578  IntersectionExampleScenario.node[29].veinsmobility  speed  ETV
vector 56579  IntersectionExampleScenario.node[29].veinsmobility  acceleration  ETV
vector 56580  IntersectionExampleScenario.node[29].veinsmobility  co2emission  ETV
56391	120261 7035 51 5156 4 60.75 228 0.973 11.648172402475 605.29199442598 2971.4250964291
56390	127296 6857 51 5156 4 60.75 228 -4.5 2.5000000149012 38.171613693237 438.29676489826
56389	134153 7197 44 5156 3.75 60.75 229 0 15.64999961853 2290.7911297968 31885.978807728
56388	141350 7431 37 5156 3.5 60.75 230 164.94219970703 486.8671875 94606.433410645 41245319.954634
56387	148781 7460 37 5156 3.5 60.75 230 235.05133056641 486.85000610352 103427.64562988 47626520.545607
vector 56583  IntersectionExampleScenario.node[30].veinsmobility  posx  ETV
vector 56584  IntersectionExampleScenario.node[30].veinsmobility  posy  ETV
vector 56585  IntersectionExampleScenario.node[30].veinsmobility  speed  ETV
vector 56586  IntersectionExampleScenario.node[30].veinsmobility  acceleration  ETV
vector 56587  IntersectionExampleScenario.node[30].veinsmobility  co2emission  ETV
vector 56590  IntersectionExampleScenario.node[31].veinsmobility  posx  ETV
vector 56591  IntersectionExampleScenario.node[31].veinsmobility  posy  ETV
vector 56592  IntersectionExampleScenario.node[31].veinsmobility  speed  ETV
vector 56593  IntersectionExampleScenario.node[31].veinsmobility  acceleration  ETV
vector 56594  IntersectionExampleScenario.node[31].veinsmobility  co2emission  ETV
56405	157043 5450 604 5593 19.75 63.5 176 0.973 11.200708441096 509.21402306219 2584.6307564827
56404	162493 5330 604 5593 19.75 63.5 176 -2.0473289489746 2.5 36.134572982788 247.52152471472
56403	167823 5536 591 5593 19.5 63.5 177 5.6500000953674 15.02499961853 2202.2997021675 28932.094821348
56402	173359 5817 578 5593 19.25 63.5 178 184.17810058594 486.87261962891 71327.962249756 30406507.364505
56401	179176 5846 578 5593 19.25 63.5 178 238.25103759766 486.85000610352 78047.656707764 35232306.699329
vector 56597  IntersectionExampleScenario.node[32].veinsmobility  posx  ETV
vector 56598  IntersectionExampleScenario.node[32].veinsmobility  posy  ETV
vector 56599  IntersectionExampleScenario.node[32].veinsmobility  speed  ETV
vector 56600  IntersectionExampleScenario.node[32].veinsmobility  acceleration  ETV
vector 56601  IntersectionExampleScenario.node[32].veinsmobility  co2emission  ETV
56440	185423 4932 1201 6122 28.75 67 154 0.96333723109819 12.099024792222 504.50358273717 2905.2200946772
56439	190355 4600 1201 6122 28.75 67 154 -3.3863945007324 2.5 40.208654403687 255.11563059266
56438	194955 4818 1182 6122 28.5 67 155 5.6500000953674 16.27499961853 2213.2808122635 32664.459641469
56437	199773 5126 1163 6122 28.25 67 156 483.14813232422 785.82187652588 89216.361106873 52772447.519979
56436	204899 5146 1163 6122 28.25 67 156 483.14999389648 734.43804931641 83625.368682861 45772229.066944
56454	210045 5128 1358 6575 30.75 70.25 159 0.973 11.200708441096 454.35911991347 2192.1748794677
56453	215173 4633 1358 6575 30.75 70.25 159 -2.9507179260254 2.5 35.795072555542 167.29327392471
56452	219806 5064 1337 6575 30.5 70.25 160 5.6500000953674 15.02499961853 2213.0092506409 31119.00031273
56451	224870 5286 1316 6575 30.25 70.25 161 184.17810058594 732.51210021973 72318.647079468 36736366.158695
56450	230156 5314 1316 6575 30.25 70.25 161 486.85000610352 486.85000610352 78382.850982666 38160691.479322
56461	235470 5149 1404 6699 31.25 71.25 161 0.973 11.810082123732 524.72698234116 2928.7972785047
56460	240619 4951 1404 6699 31.25 71.25 161 -3.6257305145264 2.5 39.869146347046 293.18328045768
56459	245570 5032 1381 6699 31 71.25 162 5.6500000953674 15.875 2251.5632224083 32769.035682897
56458	250602 5369 1358 6699 30.75 71.25 163 486.85000610352 801.41563415527 94324.583602905 56546655.929008
56457	255971 5376 1358 6699 30.75 71.25 163 235.60272216797 483.14999389648 70678.926177979 31575145.649499
vector 56604  IntersectionExampleScenario.node[33].veinsmobility  posx  ETV
vector 56605  IntersectionExampleScenario.node[33].veinsmobility  posy  ETV
vector 56606  IntersectionExampleScenario.node[33].veinsmobility  speed  ETV
vector 56607  IntersectionExampleScenario.node[33].veinsmobility  acceleration  ETV
vector 56608  IntersectionExampleScenario.node[33].veinsmobility  co2emission  ETV
56475	261748 4937 1832 7048 35.75 74 154 0.973 11.200708441096 437.87646826069 2148.3028329505
56474	266685 4715 1832 7048 35.75 74 154 -3.2466468811035 2.5 35.116056442261 167.36521634
56473	271400 4875 1805 7048 35.5 74 155 5.6500000953674 15.02499961853 2119.9456691742 29474.735068719
56472	276275 5138 1778 7048 35.25 74 156 208.99920654297 734.47560119629 72197.047714233 37193387.851403
56471	281413 5148 1778 7048 35.25 74 156 486.85000610352 486.85000610352 75948.600952148 36975576.837107
56468	286561 5405 1753 7329 35 76.5 167 0.973 10.209991344897 456.4521622409 1959.5965361438
56467	291966 4973 1753 7329 35 76.5 167 -4.5 2.5 34.606801986694 159.26868039546
56466	296939 5349 1728 7329 34.75 76.5 168 5.6500000953674 14.63192653656 2228.5538396835 30295.593049375
56465	302288 5566 1703 7329 34.5 76.5 169 179.81719970703 732.09565734863 74668.929824829 37619345.583034
56464	307854 5577 1703 7329 34.5 76.5 169 486.85000610352 486.85000610352 82277.651031494 40056874.906866
56433	313431 6150 937 7430 25 77.5 211 0.973 12.26218747632 595.87998836492 3319.0918091352
56432	319581 5850 937 7430 25 77.5 211 -9.4157371520996 4 41.396924972534 541.14491865313
56431	325431 5829 918 7430 24.75 77.5 212 0 16.5 2050.9354145527 29908.960180289
56430	331260 6942 899 7430 24.5 77.5 213 238.51751708984 483.14999389648 95199.978149414 43522259.207056
56429	338202 6997 899 7430 24.5 77.5 213 213.87969970703 483.36395263672 91053.510192871 40404503.381596
56489	345199 5113 2251 7577 39.5 79 159 0.973 11.200708441096 473.06171166483 2403.8942960439
56488	350312 4927 2251 7577 39.5 79 159 -3.0181503295898 2.5 36.134572982788 195.18004536463
56487	355239 5061 2220 7577 39.25 79 160 5.6500000953674 15.02499961853 2216.0766248703 31218.009608354
56486	360300 5311 2189 7577 39 79 161 486.85000610352 486.85000610352 78382.850982666 38160691.479322
56485	365611 5296 2189 7577 39 79 161 236.73883056641 785.82187652588 83815.817634583 47885565.817488
56419	370907 7434 712 7756 21.75 81 238 0.973 11.36141391502 658.09725646322 3355.7033735339
56418	378341 7292 712 7756 21.75 81 238 -4.5 2.5000019073486 37.15309715271 590.49069765856
56417	385633 7585 697 7756 21.5 81 239 0 15.25 2254.4751914386 29806.912234603
56416	393218 7890 682 7756 21.25 81 240 237.17980957031 483.14999389648 107644.90527344 49353248.218846
56415	401108 7862 682 7756 21.25 81 240 166.078125 483.33779907227 96979.476654053 41777632.420983
56503	408970 4841 2922 7894 45 82.75 152 0.973 11.810082123732 544.70959495869 3032.3350188392
56502	413811 4647 2922 7894 45 82.75 152 -3.7128944396973 2.5 43.943227767944 302.46160473457
56501	418458 4718 2893 7894 44.75 82.75 153 5.6500000953674 16.852136611938 2188.1485433578 33089.516320554
56500	423176 5077 2864 7894 44.5 82.75 154 486.85000610352 733.93203735352 82589.373657227 45159676.155132
56499	428253 5074 2864 7894 44.5 82.75 154 486.85000610352 785.82187652588 88339.617591858 52374903.521124
vector 56611  IntersectionExampleScenario.node[34].veinsmobility  posx  ETV
vector 56612  IntersectionExampleScenario.node[34].veinsmobility  posy  ETV
vector 56613  IntersectionExampleScenario.node[34].veinsmobility  speed  ETV
vector 56614  IntersectionExampleScenario.node[34].veinsmobility  acceleration  ETV
vector 56615  IntersectionExampleScenario.node[34].veinsmobility  co2emission  ETV
56426	433728 7526 746 7969 22.25 83.75 247 0.973 11.093806525473 609.58717391602 2690.0742980395
56425	441254 7869 746 7969 22.25 83.75 247 -3.6620559692383 2.5000009536743 35.285810470581 361.6291113788
56424	449123 7920 729 7969 22 83.75 248 0 14.875 2343.7358779628 29375.151397397
56423	457043 8201 712 7969 21.75 83.75 249 483.14999389648 483.14999389648 120304.34848022 58125045.233941
56422	465244 8171 712 7969 21.75 83.75 249 151.38439941406 733.29974365234 106550.12641907 51368978.694499
vector 56618  IntersectionExampleScenario.node[35].veinsmobility  posx  ETV
vector 56619  IntersectionExampleScenario.node[35].veinsmobility  posy  ETV
vector 56620  IntersectionExampleScenario.node[35].veinsmobility  speed  ETV
vector 56621  IntersectionExampleScenario.node[35].veinsmobility  acceleration  ETV
vector 56622  IntersectionExampleScenario.node[35].veinsmobility  co2emission  ETV
vector 56625  IntersectionExampleScenario.node[36].veinsmobility  posx  ETV
vector 56626  IntersectionExampleScenario.node[36].veinsmobility  posy  ETV
vector 56627  IntersectionExampleScenario.node[36].veinsmobility  speed  ETV
56517	474048 4610 3445 8103 49.5 85.5 145 0.973 12.099024792222 479.11721648861 2748.4784769379
56516	478658 4408 3445 8103 49.5 85.5 145 -3.6340408325195 2.5 40.038900375366 223.86483987468
56515	483066 4573 3414 8103 49.25 85.5 146 5.6500000953674 16.27499961853 2119.9419307709 31508.79751078
56514	487639 4850 3383 8103 49 85.5 147 486.85000610352 486.85000610352 71566.950897217 34842370.48112
56513	492489 4837 3383 8103 49 85.5 147 237.25384521484 762.16954040527 75040.779510498 41864620.276259
vector 56628  IntersectionExampleScenario.node[36].veinsmobility  acceleration  ETV
vector 56629  IntersectionExampleScenario.node[36].veinsmobility  co2emission  ETV
56447	497495 6924 1278 8144 29.75 86 226 0.973 11.093806525473 592.79762267665 2706.3573031791
56446	504419 6923 1278 8144 29.75 86 226 -4.5 2.5 37.832105636597 370.58457687824
56445	511342 7218 1259 8144 29.5 86 227 0 15.150776863098 2270.950229574 30017.555698864
56444	518560 7524 1239 8144 29.25 86 228 483.14999389648 483.14999389648 110158.1986084 53222932.985295
56443	526084 7492 1239 8144 29.25 86 228 172.03173828125 734.65168762207 100949.48193359 49208265.88172
vector 56632  IntersectionExampleScenario.node[37].veinsmobility  posx  ETV
vector 56633  IntersectionExampleScenario.node[37].veinsmobility  posy  ETV
vector 56639  IntersectionExampleScenario.node[38].veinsmobility  posx  ETV
vector 56640  IntersectionExampleScenario.node[38].veinsmobility  posy  ETV
vector 56634  IntersectionExampleScenario.node[37].veinsmobility  speed  ETV
vector 56635  IntersectionExampleScenario.node[37].veinsmobility  acceleration  ETV
vector 56636  IntersectionExampleScenario.node[37].veinsmobility  co2emission  ETV
vector 56641  IntersectionExampleScenario.node[38].veinsmobility  speed  ETV
vector 56642  IntersectionExampleScenario.node[38].veinsmobility  acceleration  ETV
vector 56643  IntersectionExampleScenario.node[38].veinsmobility  co2emission  ETV
vector 56646  IntersectionExampleScenario.node[39].veinsmobility  posx  ETV
vector 56647  IntersectionExampleScenario.node[39].veinsmobility  posy  ETV
vector 56648  IntersectionExampleScenario.node[39].veinsmobility  speed  ETV
56510	534610 5530 3238 8468 47.75 90.75 173 0.973 10.916047529558 508.83107500323 2436.3154267329
56509	540140 5282 3238 8468 47.75 90.75 173 -3.5938968658447 2.5 35.795072555542 266.97313824525
56508	545422 5452 3209 8468 47.5 90.75 174 5.6500000953674 14.790552139282 2234.9994416237 30080.143699214
56507	550874 5775 3180 8468 47.25 90.75 175 486.85000610352 731.97547912598 93641.717468262 51076946.132492
56506	556649 5770 3180 8468 47.25 90.75 175 486.85000610352 800.04531860352 102133.80484772 61791003.664732
56531	562419 5183 3583 8468 50.5 90.75 162 0.973 11.54047740176 529.34017747582 2803.7258115922
56530	567602 4846 3583 8468 50.5 90.75 162 -4.5 2.5 39.869146347046 297.06414795397
56529	572448 5156 3546 8468 50.25 90.75 163 5.6500000953674 15.673721313477 2307.0288534164 33605.792355853
56528	577604 5412 3511 8468 50 90.75 164 483.14999389648 483.14999389648 79236.598999023 38283162.322756
56527	583016 5388 3511 8468 50 90.75 164 160.43438720703 731.85688781738 71320.486038208 35636279.070615
56524	588404 5202 3511 8468 50 90.75 164 0.973 11.235033097371 508.26829251864 2773.9071765431
56523	593606 4866 3511 8468 50 90.75 164 -3.7594871520996 2.5 35.795072555542 295.9435211859
56522	598472 5152 3478 8468 49.75 90.75 165 5.6500000953674 15.073106765747 2177.7767572403 29851.695652863
56521	603624 5468 3445 8468 49.5 90.75 166 238.205078125 483.14999389648 71773.111633301 31978299.725263
56520	609092 5456 3445 8468 49.5 90.75 166 184.17810058594 483.14999389648 65968.485809326 27991737.104566
vector 56653  IntersectionExampleScenario.node[40].veinsmobility  posx  ETV
vector 56654  IntersectionExampleScenario.node[40].veinsmobility  posy  ETV
vector 56649  IntersectionExampleScenario.node[39].veinsmobility  acceleration  ETV
vector 56650  IntersectionExampleScenario.node[39].veinsmobility  co2emission  ETV
vector 56655  IntersectionExampleScenario.node[40].veinsmobility  speed  ETV
vector 56656  IntersectionExampleScenario.node[40].veinsmobility  acceleration  ETV
vector 56657  IntersectionExampleScenario.node[40].veinsmobility  co2emission  ETV
vector 56660  IntersectionExampleScenario.node[41].veinsmobility  posx  ETV
vector 56661  IntersectionExampleScenario.node[41].veinsmobility  posy  ETV
vector 56662  IntersectionExampleScenario.node[41].veinsmobility  speed  ETV
vector 56663  IntersectionExampleScenario.node[41].veinsmobility  acceleration  ETV
vector 56664  IntersectionExampleScenario.node[41].veinsmobility  co2emission  ETV
56559	615519 5071 4175 8728 54.5 93.75 158 0.973 10.65035628006 426.12232487988 1920.6122111977
56558	620590 4790 4175 8728 54.5 93.75 158 -3.096549987793 2.5 33.079023361206 149.4447983281
56557	625380 5039 4134 8728 54.25 93.75 159 5.6500000953674 14.366851806641 2115.0506153107 28524.402824683
56556	630419 5280 4093 8728 54 93.75 160 486.85000610352 486.85000610352 77896.000976562 37923668.550879
56555	635699 5247 4093 8728 54 93.75 160 236.89581298828 761.36708068848 81183.073822021 45056271.695217
56545	640946 5372 3907 8840 52.75 95 170 0.973 10.916047529558 541.60984242742 2700.4683351819
56544	646318 5195 3907 8840 52.75 95 170 -4.5 2.5 39.869146347046 306.30379559374
56543	651513 5332 3870 8840 52.5 95 171 5.6500000953674 15.625925064087 2234.4341731071 30731.457338686
56542	656845 5670 3833 8840 52.25 95 172 486.85000610352 733.31909179688 91780.790771484 49911839.514032
56541	662515 5667 3833 8840 52.25 95 172 486.85000610352 798.44041442871 100290.71437073 60582024.831548
vector 56667  IntersectionExampleScenario.node[42].veinsmobility  posx  ETV
vector 56668  IntersectionExampleScenario.node[42].veinsmobility  posy  ETV
vector 56669  IntersectionExampleScenario.node[42].veinsmobility  speed  ETV
vector 56670  IntersectionExampleScenario.node[42].veinsmobility  acceleration  ETV
vector 56671  IntersectionExampleScenario.node[42].veinsmobility  co2emission  ETV
vector 56674  IntersectionExampleScenario.node[43].veinsmobility  posx  ETV
vector 56675  IntersectionExampleScenario.node[43].veinsmobility  posy  ETV
56552	668737 5537 4134 9022 54.25 97 172 0.973 10.65035628006 503.25251239111 2288.2107968589
56551	674274 5147 4134 9022 54.25 97 172 -4.5 2.5 35.795072555542 193.48744606594
56550	679421 5507 4093 9022 54 97 173 5.6500000953674 14.799668312073 2329.8129386902 32059.005144205
56549	684928 5741 4055 9022 53.75 97 174 486.85000610352 486.85000610352 84711.901062012 41241989.549081
56548	690669 5732 4055 9022 53.75 97 174 235.02026367188 812.42489624023 93569.101661682 55473945.443517
vector 56676  IntersectionExampleScenario.node[43].veinsmobility  speed  ETV
vector 56677  IntersectionExampleScenario.node[43].veinsmobility  acceleration  ETV
vector 56678  IntersectionExampleScenario.node[43].veinsmobility  co2emission  ETV
56538	696648 5891 3620 9172 50.75 98.5 192 0.973 11.36141391502 552.77742466551 2790.7472033322
56537	702539 5410 3620 9172 50.75 98.5 192 -8.5673685073853 4 37.15309715271 478.17696354423
56536	707949 5730 3583 9172 50.5 98.5 193 0 15.25 2176.5459842682 30083.211907201
56535	713679 6383 3546 9172 50.25 98.5 194 184.17810058594 483.36395263672 79336.106689453 34341475.010269
56534	720062 6341 3546 9172 50.25 98.5 194 486.85000610352 733.15849304199 102786.23965454 55466249.245591
56482	726403 7188 2160 9322 38.75 100 246 0.973 11.200708441096 606.21739055484 2754.8305125654
56481	733591 6544 2160 9322 38.75 100 246 -15.113826751709 4 37.15309715271 655.82421547897
56480	740135 6882 2131 9322 38.5 100 247 0 15.053541183472 2174.6247396469 30272.284102599
56479	747017 8172 2102 9322 38.25 100 248 486.63354492188 785.82187652588 135721.97847748 76341541.797179
56478	755189 8169 2102 9322 38.25 100 248 236.72637939453 483.14999389648 111469.79058838 51189676.449995
56566	763358 5748 4175 9372 54.5 100.5 185 0.973 11.36141391502 552.54939501397 2794.5878950226
56565	769106 5555 4175 9372 54.5 100.5 185 -4.5 2.5000009536743 38.850629806519 404.07854187536
56564	774661 5851 4134 9372 54.25 100.5 186 0 15.388677597046 2209.7113975585 30708.871729122
56563	780512 6134 4093 9372 54 100.5 187 176.21716308594 483.14999389648 75337.909423828 32305151.69675
56562	786646 6168 4093 9372 54 100.5 187 486.85000610352 731.7933807373 99083.831726074 53462466.378449
56587	792814 5105 5315 9602 61.75 103 166 0.973 11.648172402475 561.61562783008 3248.9304230095
56586	797919 4953 5315 9602 61.75 103 166 -3.4131660461426 2.5 41.396924972534 326.66539668062
56585	802872 5195 5275 9602 61.5 103 167 5.6500000953674 16.025850296021 2189.4037432671 30477.085635745
56584	808067 5529 5234 9602 61.25 103 168 184.17810058594 483.16687011719 66937.497711182 28393504.570103
56583	813596 5553 5234 9602 61.25 103 168 486.85000610352 734.71183776855 89730.134490967 48853766.062474
56496	819149 7833 2441 9623 41 103.25 250 0.973 10.916047529558 593.11649782577 2555.5245665269
56495	826982 7801 2441 9623 41 103.25 250 -4.5 2.5 34.606801986694 362.02547398141
56494	834783 8027 2408 9623 40.75 103.25 251 0 14.625 2249.8663845221 29380.774543289
56493	842810 8308 2375 9623 40.5 103.25 252 486.69567871094 802.70781707764 140197.05805206 80352934.533875
56492	851118 8282 2375 9623 40.5 103.25 252 237.08770751953 483.14999389648 113075.6416626 51860436.130666
56573	859400 5825 4686 9812 57.75 105.5 192 0.973 11.648172402475 557.4708318106 2929.3196021602
56572	865225 6123 4686 9812 57.75 105.5 192 -4.1920776367188 2.5 38.001859664917 342.24482763345
56571	871348 6364 4647 9812 57.5 105.5 193 3.0999658107758 15.64999961853 2208.1472074986 28706.845481719
56570	877712 6414 4607 9812 57.25 105.5 194 483.14999389648 785.82187652588 109322.50727081 63466925.54851
56569	884126 6417 4607 9812 57.25 105.5 194 483.14999389648 733.77793884277 102315.26324463 55001782.240411
56580	890543 5731 5078 9833 60.25 105.75 183 0.973 11.54047740176 547.40346623105 2878.1446938364
56579	896274 5680 5078 9833 60.25 105.75 183 -4.5 2.5 37.32285118103 333.61085617027
56578	901954 5855 5039 9833 60 105.75 184 4.4010725021362 15.5 2270.9284114838 30338.249375636
56577	907809 6115 4998 9833 59.75 105.75 185 238.59918212891 801.41563415527 98399.414482117 56857921.607917
56576	913924 6130 4998 9833 59.75 105.75 185 483.14999389648 483.14999389648 89382.74887085 43185274.571402
vector 56681  IntersectionExampleScenario.node[44].veinsmobility  posx  ETV
vector 56682  IntersectionExampleScenario.node[44].veinsmobility  posy  ETV
vector 56683  IntersectionExampleScenario.node[44].veinsmobility  speed  ETV
vector 56684  IntersectionExampleScenario.node[44].veinsmobility  acceleration  ETV
vector 56685  IntersectionExampleScenario.node[44].veinsmobility  co2emission  ETV
vector 56688  IntersectionExampleScenario.node[45].veinsmobility  posx  ETV
vector 56689  IntersectionExampleScenario.node[45].veinsmobility  posy  ETV
vector 56695  IntersectionExampleScenario.node[46].veinsmobility  posx  ETV
vector 56696  IntersectionExampleScenario.node[46].veinsmobility  posy  ETV
vector 56690  IntersectionExampleScenario.node[45].veinsmobility  speed  ETV
vector 56697  IntersectionExampleScenario.node[46].veinsmobility  speed  ETV
56608	920919 4838 6889 10210 72.75 110.25 151 0.96333723109819 12.099024792222 489.94375951459 2760.295712192
56607	925757 4585 6889 10210 72.75 110.25 151 -3.5573692321777 2.5 40.208654403687 218.47816482201
56606	930342 4841 6856 10210 72.5 110.25 152 5.6500000953674 16.27499961853 2223.4606399536 33257.597184144
56605	935183 5069 6823 10210 72.25 110.25 153 235.20251464844 785.82187652588 79767.226539612 45670530.7664
56604	940252 5103 6823 10210 72.25 110.25 153 483.14999389648 483.14999389648 73921.949066162 35715389.240132
vector 56691  IntersectionExampleScenario.node[45].veinsmobility  acceleration  ETV
vector 56692  IntersectionExampleScenario.node[45].veinsmobility  co2emission  ETV
vector 56698  IntersectionExampleScenario.node[46].veinsmobility  acceleration  ETV
vector 56699  IntersectionExampleScenario.node[46].veinsmobility  co2emission  ETV
vector 56702  IntersectionExampleScenario.node[47].veinsmobility  posx  ETV
vector 56703  IntersectionExampleScenario.node[47].veinsmobility  posy  ETV
vector 56704  IntersectionExampleScenario.node[47].veinsmobility  speed  ETV
vector 56705  IntersectionExampleScenario.node[47].veinsmobility  acceleration  ETV
vector 56706  IntersectionExampleScenario.node[47].veinsmobility  co2emission  ETV
vector 56709  IntersectionExampleScenario.node[48].veinsmobility  posx  ETV
vector 56710  IntersectionExampleScenario.node[48].veinsmobility  posy  ETV
vector 56711  IntersectionExampleScenario.node[48].veinsmobility  speed  ETV
vector 56712  IntersectionExampleScenario.node[48].veinsmobility  acceleration  ETV
vector 56713  IntersectionExampleScenario.node[48].veinsmobility  co2emission  ETV
56594	946495 6758 5436 11017 62.5 118 223 0.973 11.200708441096 574.90927713397 2710.9715477353
56593	953253 6122 5436 11017 62.5 118 223 -8.6544361114502 4 35.795072555542 478.35014899822
56592	959375 6541 5395 11017 62.25 118 224 0 15.02499961853 2218.0963418484 30381.505709367
56591	965916 7538 5354 11017 62 118 225 483.14999389648 483.14999389648 108708.74862671 52522631.235489
56590	973454 7516 5354 11017 62 118 225 184.17810058594 735.35032653809 102683.18589783 51197208.820214
56601	980970 6527 6083 11017 66.75 118 206 0.973 12.26218747632 599.22332455271 3145.484102131
56600	987497 6547 6083 11017 66.75 118 206 -4.5 2.5000001192093 41.227170944214 458.07367140168
56599	994044 6621 6044 11017 66.5 118 207 0 16.5 2193.6146110874 31390.277208815
56598	1000665 6978 6005 11017 66.25 118 208 239.04656982422 483.14999389648 92801.462158203 42366828.223681
56597	1007643 6962 6005 11017 66.25 118 208 179.81719970703 483.14999389648 85553.162475586 37142111.221786
vector 56716  IntersectionExampleScenario.node[49].veinsmobility  posx  ETV
vector 56717  IntersectionExampleScenario.node[49].veinsmobility  posy  ETV
vector 56718  IntersectionExampleScenario.node[49].veinsmobility  speed  ETV
vector 56719  IntersectionExampleScenario.node[49].veinsmobility  acceleration  ETV
vector 56720  IntersectionExampleScenario.node[49].veinsmobility  co2emission  ETV
vector 56723  IntersectionExampleScenario.node[50].veinsmobility  posx  ETV
vector 56724  IntersectionExampleScenario.node[50].veinsmobility  posy  ETV
vector 56725  IntersectionExampleScenario.node[50].veinsmobility  speed  ETV
vector 56726  IntersectionExampleScenario.node[50].veinsmobility  acceleration  ETV
vector 56727  IntersectionExampleScenario.node[50].veinsmobility  co2emission  ETV
56629	1015407 5243 8124 11836 85.75 125 158 0.973 11.648172402475 490.30051086847 2628.2899425702
56628	1020650 4882 8124 11836 85.75 125 158 -3.439136505127 2.5 38.001859664917 238.01146598149
56627	1025532 5131 8103 11836 85.5 125 159 5.6500000953674 15.64999961853 2213.7336349487 31719.162551843
56626	1030663 5447 8082 11836 85.25 125 160 235.29779052734 486.85000610352 69341.009216309 31027687.362458
56625	1036110 5442 8082 11836 85.25 125 160 483.13668823242 785.82187652588 91464.347328186 54067524.580951
vector 56730  IntersectionExampleScenario.node[51].veinsmobility  posx  ETV
vector 56731  IntersectionExampleScenario.node[51].veinsmobility  posy  ETV
vector 56732  IntersectionExampleScenario.node[51].veinsmobility  speed  ETV
vector 56733  IntersectionExampleScenario.node[51].veinsmobility  acceleration  ETV
vector 56734  IntersectionExampleScenario.node[51].veinsmobility  co2emission  ETV
vector 56737  IntersectionExampleScenario.node[52].veinsmobility  posx  ETV
vector 56738  IntersectionExampleScenario.node[52].veinsmobility  posy  ETV
vector 56739  IntersectionExampleScenario.node[52].veinsmobility  speed  ETV
vector 56740  IntersectionExampleScenario.node[52].veinsmobility  acceleration  ETV
vector 56741  IntersectionExampleScenario.node[52].veinsmobility  co2emission  ETV
vector 56744  IntersectionExampleScenario.node[53].veinsmobility  posx  ETV
vector 56745  IntersectionExampleScenario.node[53].veinsmobility  posy  ETV
vector 56746  IntersectionExampleScenario.node[53].veinsmobility  speed  ETV
vector 56747  IntersectionExampleScenario.node[53].veinsmobility  acceleration  ETV
vector 56748  IntersectionExampleScenario.node[53].veinsmobility  co2emission  ETV
56615	1042755 6488 7969 13114 83.75 136.25 211 0.973 12.26218747632 626.01994224319 3479.8439076669
56614	1049243 5985 7969 13114 83.75 136.25 211 -8.0954446792603 4 42.754949569702 546.64766714579
56613	1055228 6185 7950 13114 83.5 136.25 212 0 16.5 2169.5599431992 32210.774726115
56612	1061413 7261 7931 13114 83.25 136.25 213 184.17810058594 483.36395263672 88851.183929443 38992902.98115
56611	1068674 7220 7931 13114 83.25 136.25 213 486.85000610352 731.10134887695 111244.88088989 59054867.338688
56622	1075894 6950 8044 13401 84.75 139.25 219 0.973 12.26218747632 626.15037710688 3311.8907341404
56621	1082844 6317 8044 13401 84.75 139.25 219 -4.5 2.5 42.075933456421 501.09453753953
56620	1089161 6859 8025 13401 84.5 139.25 220 0 16.5 2275.405162761 33242.258025963
56619	1096020 7549 8006 13401 84.25 139.25 221 162.00311279297 483.14999389648 90306.144927979 39201473.476541
56618	1103569 7570 8006 13401 84.25 139.25 221 486.85000610352 733.34211730957 115344.88735962 61196941.729139
vector 56751  IntersectionExampleScenario.node[54].veinsmobility  posx  ETV
vector 56752  IntersectionExampleScenario.node[54].veinsmobility  posy  ETV
vector 56753  IntersectionExampleScenario.node[54].veinsmobility  speed  ETV
vector 56754  IntersectionExampleScenario.node[54].veinsmobility  acceleration  ETV
vector 56755  IntersectionExampleScenario.node[54].veinsmobility  co2emission  ETV
56657	1111540 6567 8529 13721 91.5 143 207 0.973 11.648172402475 554.48286836779 2844.7242379136
56656	1118107 6598 8529 13721 91.5 143 207 -3.8552184104919 2.5 38.171613693237 354.94249775833
56655	1124705 6824 8508 13721 91.25 143 208 0 15.64999961853 2039.2648149822 26712.34195635
56654	1131529 7193 8487 13721 91 143 209 220.57873535156 483.22717285156 88291.636566162 38625382.219388
56653	1138722 7205 8487 13721 91 143 209 486.85000610352 733.70802307129 110004.8690033 58926895.009725
vector 56758  IntersectionExampleScenario.node[55].veinsmobility  posx  ETV
vector 56759  IntersectionExampleScenario.node[55].veinsmobility  posy  ETV
vector 56760  IntersectionExampleScenario.node[55].veinsmobility  speed  ETV
vector 56761  IntersectionExampleScenario.node[55].veinsmobility  acceleration  ETV
vector 56762  IntersectionExampleScenario.node[55].veinsmobility  co2emission  ETV
56643	1146328 7091 8432 13892 90.25 145.25 221 0.973 11.648172402475 621.49789374541 3136.521501535
56642	1153419 6899 8432 13892 90.25 145.25 221 -4.5 2.5000009536743 39.529638290405 608.64792195965
56641	1160318 7333 8415 13892 90 145.25 222 0 15.64999961853 2121.4050084651 27417.66452042
56640	1167651 7679 8397 13892 89.75 145.25 223 199.52630615234 483.14999389648 90605.390197754 38721961.855478
56639	1175330 7683 8397 13892 89.75 145.25 223 486.85000610352 732.96334838867 116595.88989258 61985560.892537
56636	1183013 7574 8415 14088 90 148.5 235 0.973 11.36141391502 622.68153083693 2994.0325509295
56635	1190587 7382 8415 14088 90 148.5 235 -4.5 2.5 41.81541633606 501.7495949293
56634	1197969 7711 8397 14088 89.75 148.5 236 0 15.25 2216.0316103157 27575.626985519
56633	1205680 8164 8380 14088 89.5 148.5 237 176.01159667969 483.14999389648 93724.254058838 39499026.772279
56632	1213844 8166 8380 14088 89.5 148.5 237 486.85000610352 732.9454498291 123605.8324585 65524671.718068
vector 56765  IntersectionExampleScenario.node[56].veinsmobility  posx  ETV
vector 56766  IntersectionExampleScenario.node[56].veinsmobility  posy  ETV
56650	1222164 7645 8487 14148 91 149.5 235 0.973 11.90022389248 650.22914521519 3206.6792142704
56649	1229809 7714 8487 14148 91 149.5 235 -4.5 2.5 39.869146347046 504.29218833288
56648	1237523 7838 8468 14148 90.75 149.5 236 0 16 2313.2167278528 29530.93771542
56647	1245361 8179 8449 14148 90.5 149.5 237 157.48132324219 487.04983520508 92295.951965332 38637867.542723
56646	1253540 8181 8449 14148 90.5 149.5 237 237.02355957031 486.85003662109 107186.41217041 49556932.787603
vector 56767  IntersectionExampleScenario.node[56].veinsmobility  speed  ETV
vector 56768  IntersectionExampleScenario.node[56].veinsmobility  acceleration  ETV
vector 56769  IntersectionExampleScenario.node[56].veinsmobility  co2emission  ETV
vector 56772  IntersectionExampleScenario.node[57].veinsmobility  posx  ETV
vector 56773  IntersectionExampleScenario.node[57].veinsmobility  posy  ETV
vector 56774  IntersectionExampleScenario.node[57].veinsmobility  speed  ETV
vector 56775  IntersectionExampleScenario.node[57].veinsmobility  acceleration  ETV
vector 56776  IntersectionExampleScenario.node[57].veinsmobility  co2emission  ETV
56664	1262369 7476 8659 14262 93 151.25 234 0.973 11.54047740176 626.200220598 2919.3968388226
56663	1269845 7375 8659 14262 93 151.25 234 -4.5 2.5 38.680875778198 427.82336867494
56662	1277220 7611 8636 14262 92.75 151.25 235 0 15.5 2350.4767983854 30204.88586735
56661	1284831 8122 8613 14262 92.5 151.25 236 152.07879638672 734.8794708252 99646.439331055 47460069.662578
56660	1292953 8169 8613 14262 92.5 151.25 236 486.85000610352 486.85012817383 114896.60205078 55937411.706846
vector 56779  IntersectionExampleScenario.node[58].veinsmobility  posx  ETV
vector 56780  IntersectionExampleScenario.node[58].veinsmobility  posy  ETV
vector 56786  IntersectionExampleScenario.node[59].veinsmobility  posx  ETV
vector 56787  IntersectionExampleScenario.node[59].veinsmobility  posy  ETV
vector 56781  IntersectionExampleScenario.node[58].veinsmobility  speed  ETV
vector 56782  IntersectionExampleScenario.node[58].veinsmobility  acceleration  ETV
vector 56783  IntersectionExampleScenario.node[58].veinsmobility  co2emission  ETV
vector 56788  IntersectionExampleScenario.node[59].veinsmobility  speed  ETV
vector 56789  IntersectionExampleScenario.node[59].veinsmobility  acceleration  ETV
vector 56790  IntersectionExampleScenario.node[59].veinsmobility  co2emission  ETV
56671	1301924 7327 8907 14433 95.75 153.5 232 0.973 11.36141391502 679.84380876602 3414.4339968782
56670	1309251 7266 8907 14433 95.75 153.5 232 -4.5 2.5 42.585195541382 533.57765144892
56669	1316517 7413 8884 14433 95.5 153.5 233 0 16.332180023193 2309.8480260596 30544.971950785
56668	1323930 8113 8861 14433 95.25 153.5 234 152.46124267578 483.14999389648 91349.673675537 38107373.859244
56667	1332043 8107 8861 14433 95.25 153.5 234 486.85000610352 733.38670349121 121661.06515503 64259356.158968
56678	1340150 7280 9072 14643 97.5 156 235 0.973 11.810082123732 617.94943340365 3103.7358063432
56677	1347430 6414 9072 14643 97.5 156 235 -27.15495300293 4 39.869146347046 1115.8983262255
56676	1353844 6831 9047 14643 97.25 156 236 0 15.875 2183.6293897629 31640.575496517
56675	1360675 8168 9022 14643 97 156 237 486.85000610352 734.37205505371 123458.21173096 65364241.526269
56674	1368843 8228 9022 14643 97 156 237 486.63604736328 785.82187652588 129915.13805389 73228710.14041
56685	1377071 6236 10164 14748 109.75 157.25 191 0.96333723109819 12.099024792222 575.69111152343 3002.1958800511
56684	1383307 5963 10164 14748 109.75 157.25 191 -6.7176465988159 4 40.208654403687 454.40260497699
56683	1389270 6399 10143 14748 109.5 157.25 192 0 16.27499961853 2182.0956152678 31328.89448719
56682	1395669 6748 10122 14748 109.25 157.25 193 483.14999389648 731.39831542969 101347.09863281 54211917.798375
56681	1402417 6723 10122 14748 109.25 157.25 193 184.17810058594 486.85000610352 79505.402679443 34658390.860509
56706	1409140 5554 10789 14790 116 157.75 168 0.973 11.990504229548 525.89314835974 2982.6235883993
56705	1414694 5484 10789 14790 116 157.75 168 -2.6592903137207 2.5000019073486 39.529638290405 286.4736268774
56704	1420178 5655 10762 14790 115.75 157.75 169 4.6484460830688 16.125 2221.1247768402 31135.261722871
56703	1425833 5951 10735 14790 115.5 157.75 170 483.14999389648 483.14999389648 82135.498962402 39683765.822369
56702	1431784 5921 10735 14790 115.5 157.75 170 184.17810058594 733.85585021973 76068.66242981 38142062.14821
vector 56793  IntersectionExampleScenario.node[60].veinsmobility  posx  ETV
vector 56794  IntersectionExampleScenario.node[60].veinsmobility  posy  ETV
vector 56795  IntersectionExampleScenario.node[60].veinsmobility  speed  ETV
vector 56796  IntersectionExampleScenario.node[60].veinsmobility  acceleration  ETV
vector 56797  IntersectionExampleScenario.node[60].veinsmobility  co2emission  ETV
56692	1438106 6494 10235 15028 110.5 160.5 201 0.973 11.36141391502 567.27051487468 2855.0202917327
56691	1444600 6540 10235 15028 110.5 160.5 201 -4.5 2.5 37.15309715271 439.56830255403
56690	1451140 6880 10210 15028 110.25 160.5 202 1.3254923820496 15.25 2184.3919215202 28321.680170763
56689	1458020 7085 10185 15028 110 160.5 203 486.85000610352 733.32832336426 107189.80354309 57623662.732188
56688	1465105 7097 10185 15028 110 160.5 203 486.85000610352 785.82187652588 114084.9017868 65983325.742513
56727	1472202 5105 11570 15049 122.75 160.75 153 0.973 12.164752027453 566.36888835492 3832.4532148005
56726	1477307 4849 11570 15049 122.75 160.75 153 -4.5 2.5 40.887662887573 348.60869081112
56725	1482156 5145 11539 15049 122.5 160.75 154 5.6500000953674 16.365734100342 2219.8816156387 32792.002220232
56724	1487301 5427 11508 15049 122.25 160.75 155 486.85000610352 486.85000610352 75461.750946045 36738553.908664
56723	1492728 5414 11508 15049 122.25 160.75 155 236.62561035156 785.82187652588 81138.585762024 46508443.985455
vector 56800  IntersectionExampleScenario.node[61].veinsmobility  posx  ETV
vector 56801  IntersectionExampleScenario.node[61].veinsmobility  posy  ETV
vector 56802  IntersectionExampleScenario.node[61].veinsmobility  speed  ETV
56713	1498374 5912 10901 15093 117 161.25 178 0.973 11.810082123732 606.64219375784 3528.6560835524
56712	1504286 5630 10901 15093 117 161.25 178 -4.5 2.5000019073486 40.038900375366 481.45960934401
56711	1509916 5935 10872 15093 116.75 161.25 179 4.7118234634399 15.875 2264.3568201065 31117.241478727
56710	1515851 6294 10843 15093 116.5 161.25 180 238.77453613281 483.14999389648 79109.459655762 35700016.632532
56709	1522145 6266 10843 15093 116.5 161.25 180 162.00311279297 483.18035888672 70301.849578857 29530062.416372
vector 56803  IntersectionExampleScenario.node[61].veinsmobility  acceleration  ETV
vector 56804  IntersectionExampleScenario.node[61].veinsmobility  co2emission  ETV
vector 56807  IntersectionExampleScenario.node[62].veinsmobility  posx  ETV
vector 56808  IntersectionExampleScenario.node[62].veinsmobility  posy  ETV
vector 56809  IntersectionExampleScenario.node[62].veinsmobility  speed  ETV
vector 56810  IntersectionExampleScenario.node[62].veinsmobility  acceleration  ETV
vector 56811  IntersectionExampleScenario.node[62].veinsmobility  co2emission  ETV
56734	1528981 5196 12040 15455 126.75 165.75 157 0.97223939240464 11.839203280975 514.90625614614 3141.0307899141
56733	1534177 4914 12040 15455 126.75 165.75 157 -3.5962867736816 2.5 38.680875778198 280.42761841827
56732	1539091 5245 12011 15455 126.5 165.75 158 5.6500000953674 15.915403366089 2205.3050260544 31696.099502792
56731	1544336 5556 11981 15455 126.25 165.75 159 483.14999389648 732.56214904785 85146.060501099 46543720.965204
56730	1549892 5541 11981 15455 126.25 165.75 159 184.17810058594 486.8772277832 63215.544311523 26903834.716654
vector 56814  IntersectionExampleScenario.node[63].veinsmobility  posx  ETV
vector 56815  IntersectionExampleScenario.node[63].veinsmobility  posy  ETV
vector 56816  IntersectionExampleScenario.node[63].veinsmobility  speed  ETV
vector 56817  IntersectionExampleScenario.node[63].veinsmobility  acceleration  ETV
vector 56818  IntersectionExampleScenario.node[63].veinsmobility  co2emission  ETV
56699	1555834 7761 10235 16062 110.5 175 259 0.87724236611116 12.80944146078 729.43751434147 4305.5600602029
56698	1563595 7349 10235 16062 110.5 175 259 -34.768974304199 4 43.943227767944 1718.1352516083
56697	1570944 7650 10210 16062 110.25 175 260 0 17.25 2196.6653466225 30146.413860175
56696	1578594 9102 10185 16062 110 175 261 184.17810058594 486.85000610352 109802.85351562 48232152.104305
56695	1587696 9127 10185 16062 110 175 261 238.85028076172 486.85000610352 119460.59005737 55710404.447169
vector 56821  IntersectionExampleScenario.node[64].veinsmobility  posx  ETV
vector 56822  IntersectionExampleScenario.node[64].veinsmobility  posy  ETV
vector 56828  IntersectionExampleScenario.node[65].veinsmobility  posx  ETV
vector 56829  IntersectionExampleScenario.node[65].veinsmobility  posy  ETV
vector 56823  IntersectionExampleScenario.node[64].veinsmobility  speed  ETV
vector 56824  IntersectionExampleScenario.node[64].veinsmobility  acceleration  ETV
vector 56825  IntersectionExampleScenario.node[64].veinsmobility  co2emission  ETV
vector 56830  IntersectionExampleScenario.node[65].veinsmobility  speed  ETV
vector 56831  IntersectionExampleScenario.node[65].veinsmobility  acceleration  ETV
vector 56832  IntersectionExampleScenario.node[65].veinsmobility  co2emission  ETV
vector 56835  IntersectionExampleScenario.node[66].veinsmobility  posx  ETV
vector 56836  IntersectionExampleScenario.node[66].veinsmobility  posy  ETV
vector 56837  IntersectionExampleScenario.node[66].veinsmobility  speed  ETV
56720	1597857 7355 11421 16258 121.5 178 227 0.973 11.200708441096 572.0056348533 2694.9505793551
56719	1605212 7566 11421 16258 121.5 178 227 -3.7397186756134 2.5 35.964826583862 336.32734021967
56718	1612778 7829 11392 16258 121.25 178 228 0 15.02499961853 2220.9464936797 29091.879092917
56717	1620607 7965 11363 16258 121 178 229 184.17810058594 734.90950012207 103626.67198181 51202716.772877
56716	1628572 8013 11363 16258 121 178 229 486.85000610352 486.85000610352 111488.65139771 54278250.613445
vector 56838  IntersectionExampleScenario.node[66].veinsmobility  acceleration  ETV
vector 56839  IntersectionExampleScenario.node[66].veinsmobility  co2emission  ETV
vector 56842  IntersectionExampleScenario.node[67].veinsmobility  posx  ETV
vector 56843  IntersectionExampleScenario.node[67].veinsmobility  posy  ETV
vector 56844  IntersectionExampleScenario.node[67].veinsmobility  speed  ETV
56741	1636986 6463 12276 16328 128.75 179 202 0.973 11.810082123732 574.12702286082 3030.1261353647
56740	1643449 6154 12276 16328 128.75 179 202 -7.7750473022461 4 38.511121749878 500.60848155561
56739	1649603 6292 12245 16328 128.5 179 203 0 15.875 2179.2315201759 30724.876195575
56738	1655895 7125 12214 16328 128.25 179 204 486.75677490234 785.82187652588 113650.40073395 65237731.218376
56737	1663020 7129 12214 16328 128.25 179 204 237.01403808594 483.14999389648 90419.637359619 41084948.481979
vector 56845  IntersectionExampleScenario.node[67].veinsmobility  acceleration  ETV
vector 56846  IntersectionExampleScenario.node[67].veinsmobility  co2emission  ETV
vector 56849  IntersectionExampleScenario.node[68].veinsmobility  posx  ETV
vector 56850  IntersectionExampleScenario.node[68].veinsmobility  posy  ETV
vector 56851  IntersectionExampleScenario.node[68].veinsmobility  speed  ETV
vector 56852  IntersectionExampleScenario.node[68].veinsmobility  acceleration  ETV
vector 56853  IntersectionExampleScenario.node[68].veinsmobility  co2emission  ETV
56755	1670719 5389 13534 16457 140.75 180.75 161 0.973 11.648172402475 538.99809773371 3232.4470306525
56754	1676108 5090 13534 16457 140.75 180.75 161 -3.424674987793 2.5 38.511121749878 302.01726573889
56753	1681198 5436 13511 16457 140.5 180.75 162 5.6500000953674 15.64999961853 2218.7711038589 31296.298848306
56752	1686634 5689 13488 16457 140.25 180.75 163 236.21795654297 785.82187652588 85176.082618713 48659864.129705
56751	1692323 5707 13488 16457 140.25 180.75 163 483.14999389648 483.14999389648 78753.449005127 38049728.406154
56748	1698030 6298 12765 16495 133 181.25 194 0.973 11.200708441096 547.13443523121 2700.9691296218
56747	1704328 6517 12765 16495 133 181.25 194 -4.5 2.5 35.964826583862 326.94088044093
56746	1710845 6804 12736 16495 132.75 181.25 195 3.0327818393707 15.02499961853 2205.6710083485 28050.903408521
56745	1717649 6828 12707 16495 132.5 181.25 196 184.17810058594 486.85000610352 79507.287994385 34132581.181832
56744	1724477 6850 12707 16495 132.5 181.25 196 237.22918701172 486.85000610352 86681.225738525 39394735.059721
vector 56856  IntersectionExampleScenario.node[69].veinsmobility  posx  ETV
vector 56857  IntersectionExampleScenario.node[69].veinsmobility  posy  ETV
vector 56858  IntersectionExampleScenario.node[69].veinsmobility  speed  ETV
vector 56859  IntersectionExampleScenario.node[69].veinsmobility  acceleration  ETV
vector 56860  IntersectionExampleScenario.node[69].veinsmobility  co2emission  ETV
56762	1731728 5449 13798 16760 144 184.5 163 0.973 11.648172402475 527.04376694493 2863.9908355548
56761	1737177 5448 13798 16760 144 184.5 163 -4.2200813293457 2.5 41.396924972534 273.00675044331
56760	1742625 5412 13779 16760 143.75 184.5 164 5.6500000953674 16.059740066528 2236.6985516548 32092.003906716
56759	1748037 5764 13759 16760 143.5 184.5 165 486.83364868164 797.07032012939 95062.600944519 56654492.851164
56758	1753801 5742 13759 16760 143.5 184.5 165 235.28918457031 483.14999389648 71780.758972168 32148467.139035
vector 56863  IntersectionExampleScenario.node[70].veinsmobility  posx  ETV
vector 56864  IntersectionExampleScenario.node[70].veinsmobility  posy  ETV
vector 56865  IntersectionExampleScenario.node[70].veinsmobility  speed  ETV
vector 56866  IntersectionExampleScenario.node[70].veinsmobility  acceleration  ETV
vector 56867  IntersectionExampleScenario.node[70].veinsmobility  co2emission  ETV
vector 56870  IntersectionExampleScenario.node[71].veinsmobility  posx  ETV
vector 56871  IntersectionExampleScenario.node[71].veinsmobility  posy  ETV
vector 56877  IntersectionExampleScenario.node[72].veinsmobility  posx  ETV
vector 56878  IntersectionExampleScenario.node[72].veinsmobility  posy  ETV
vector 56872  IntersectionExampleScenario.node[71].veinsmobility  speed  ETV
vector 56873  IntersectionExampleScenario.node[71].veinsmobility  acceleration  ETV
vector 56874  IntersectionExampleScenario.node[71].veinsmobility  co2emission  ETV
vector 56879  IntersectionExampleScenario.node[72].veinsmobility  speed  ETV
vector 56880  IntersectionExampleScenario.node[72].veinsmobility  acceleration  ETV
vector 56881  IntersectionExampleScenario.node[72].veinsmobility  co2emission  ETV
vector 56884  IntersectionExampleScenario.node[73].veinsmobility  posx  ETV
vector 56885  IntersectionExampleScenario.node[73].veinsmobility  posy  ETV
vector 56886  IntersectionExampleScenario.node[73].veinsmobility  speed  ETV
vector 56887  IntersectionExampleScenario.node[73].veinsmobility  acceleration  ETV
vector 56888  IntersectionExampleScenario.node[73].veinsmobility  co2emission  ETV
vector 56891  IntersectionExampleScenario.node[74].veinsmobility  posx  ETV
vector 56892  IntersectionExampleScenario.node[74].veinsmobility  posy  ETV
vector 56898  IntersectionExampleScenario.node[75].veinsmobility  posx  ETV
vector 56899  IntersectionExampleScenario.node[75].veinsmobility  posy  ETV
vector 56893  IntersectionExampleScenario.node[74].veinsmobility  speed  ETV
vector 56894  IntersectionExampleScenario.node[74].veinsmobility  acceleration  ETV
vector 56895  IntersectionExampleScenario.node[74].veinsmobility  co2emission  ETV
vector 56900  IntersectionExampleScenario.node[75].veinsmobility  speed  ETV
vector 56901  IntersectionExampleScenario.node[75].veinsmobility  acceleration  ETV
vector 56902  IntersectionExampleScenario.node[75].veinsmobility  co2emission  ETV
56769	1761949 5609 14179 17418 150 191 165 0.973 11.00486315618 471.29385309376 2335.3341232193
56768	1767558 5448 14179 17418 150 191 165 -3.2484703063965 2.5 34.606801986694 208.78680007792
56767	1773006 5535 14164 17418 149.75 191 166 5.6500000953674 14.75 2211.5996437073 30150.454621023
56766	1778541 5805 14148 17418 149.5 191 167 184.17810058594 486.85000610352 66580.887695312 28384440.024094
56765	1784346 5835 14148 17418 149.5 191 167 235.55786132812 486.85000610352 72287.847442627 32315797.842498
56790	1790181 5454 14391 17649 153 192.75 160 0.973 11.990504229548 541.30961596881 2939.7381034936
56789	1795635 5100 14391 17649 153 192.75 160 -4.5 2.5 41.396924972534 273.82110786625
56788	1800735 5392 14370 17649 152.75 192.75 161 5.6500000953674 16.125 2338.0873613358 34847.83680366
56787	1806127 5642 14349 17649 152.5 192.75 162 155.79296875 734.89559936523 70289.882507324 35188228.885335
56786	1811769 5671 14349 17649 152.5 192.75 162 486.85000610352 486.85000610352 78869.70098877 38397714.407765
56776	1817440 5778 14228 17682 150.75 193 170 0.973 11.36141391502 512.92097015596 2589.5233277029
56775	1823218 5237 14228 17682 150.75 193 170 -4.5 2.5 36.813589096069 270.33294639472
56774	1828455 5677 14211 17682 150.5 193 171 5.6500000953674 15.25 2273.6030416489 31484.586172839
56773	1834132 5995 14194 17682 150.25 193 172 161.1796875 483.20425415039 66639.872192383 27992801.819289
56772	1840127 6017 14194 17682 150.25 193 172 486.85000610352 732.67304992676 92089.967651367 50265357.027363
56783	1846144 5781 14370 18012 152.75 195.5 172 0.973 11.200708441096 537.52234020989 2768.2480481058
56782	1851925 5592 14370 18012 152.75 195.5 172 -7.0790643692017 4 37.32285118103 468.25482297729
56781	1857517 5760 14349 18012 152.5 195.5 173 0 15.195026397705 2211.800901413 30932.862304049
56780	1863277 6091 14330 18012 152.25 195.5 174 486.85000610352 486.85000610352 84711.901062012 41241989.549081
56779	1869368 6076 14330 18012 152.25 195.5 174 236.58160400391 785.82187652588 90323.7397995 51091001.269039
vector 56905  IntersectionExampleScenario.node[76].veinsmobility  posx  ETV
vector 56906  IntersectionExampleScenario.node[76].veinsmobility  posy  ETV
vector 56907  IntersectionExampleScenario.node[76].veinsmobility  speed  ETV
vector 56908  IntersectionExampleScenario.node[76].veinsmobility  acceleration  ETV
vector 56909  IntersectionExampleScenario.node[76].veinsmobility  co2emission  ETV
vector 56912  IntersectionExampleScenario.node[77].veinsmobility  posx  ETV
vector 56913  IntersectionExampleScenario.node[77].veinsmobility  posy  ETV
vector 56914  IntersectionExampleScenario.node[77].veinsmobility  speed  ETV
vector 56915  IntersectionExampleScenario.node[77].veinsmobility  acceleration  ETV
vector 56916  IntersectionExampleScenario.node[77].veinsmobility  co2emission  ETV
vector 56919  IntersectionExampleScenario.node[78].veinsmobility  posx  ETV
vector 56920  IntersectionExampleScenario.node[78].veinsmobility  posy  ETV
vector 56926  IntersectionExampleScenario.node[79].veinsmobility  posx  ETV
vector 56927  IntersectionExampleScenario.node[79].veinsmobility  posy  ETV
vector 56921  IntersectionExampleScenario.node[78].veinsmobility  speed  ETV
vector 56922  IntersectionExampleScenario.node[78].veinsmobility  acceleration  ETV
vector 56923  IntersectionExampleScenario.node[78].veinsmobility  co2emission  ETV
vector 56928  IntersectionExampleScenario.node[79].veinsmobility  speed  ETV
vector 56929  IntersectionExampleScenario.node[79].veinsmobility  acceleration  ETV
vector 56930  IntersectionExampleScenario.node[79].veinsmobility  co2emission  ETV
vector 56933  IntersectionExampleScenario.node[80].veinsmobility  posx  ETV
vector 56934  IntersectionExampleScenario.node[80].veinsmobility  posy  ETV
vector 56935  IntersectionExampleScenario.node[80].veinsmobility  speed  ETV
vector 56936  IntersectionExampleScenario.node[80].veinsmobility  acceleration  ETV
vector 56937  IntersectionExampleScenario.node[80].veinsmobility  co2emission  ETV
56804	1877449 6860 15115 20424 161.5 215.25 216 0.973 11.648172402475 586.44207431962 2969.5165627506
56803	1884309 6504 15115 20424 161.5 215.25 216 -7.1714692115784 4 38.171613693237 483.12768341918
56802	1890813 6644 15093 20424 161.25 215.25 217 0 15.64999961853 2210.2436753511 31319.548170354
56801	1897457 7593 15070 20424 161 215.25 218 184.17810058594 732.85957336426 99174.087387085 49278689.962166
56800	1905050 7629 15070 20424 161 215.25 218 486.85000610352 486.85000610352 106133.30133057 51670998.400572
56797	1912679 7058 14983 20449 160 215.5 223 0.973 11.450879080643 581.49895178836 2831.2492411648
56796	1919737 6564 14983 20449 160 215.5 223 -9.2727584838867 4 36.643835067749 497.39910828892
56795	1926301 6829 14960 20449 159.75 215.5 224 0 15.375 2205.2649021149 30558.015137007
56794	1933130 7861 14937 20449 159.5 215.5 225 238.44940185547 785.82187652588 115869.61450958 63883323.023022
56793	1940991 7875 14937 20449 159.5 215.5 225 483.14999389648 483.14999389648 108708.74862671 52522631.235489
vector 56940  IntersectionExampleScenario.node[81].veinsmobility  posx  ETV
vector 56941  IntersectionExampleScenario.node[81].veinsmobility  posy  ETV
56811	1949020 7126 15242 20549 163 216.5 215 0.973 11.810082123732 601.83501726282 3006.5583155578
56810	1956146 6810 15242 20549 163 216.5 215 -4.5 2.5 40.038900375366 445.96553885811
56809	1962956 7130 15221 20549 162.75 216.5 216 0 15.875 2242.3727558739 31725.932371025
56808	1970086 7577 15199 20549 162.5 216.5 217 486.85000610352 798.59687805176 121486.83141327 70142394.505877
56807	1977663 7583 15199 20549 162.5 216.5 217 235.21832275391 483.14999389648 96764.977111816 44179329.069449
vector 56942  IntersectionExampleScenario.node[81].veinsmobility  speed  ETV
vector 56943  IntersectionExampleScenario.node[81].veinsmobility  acceleration  ETV
vector 56944  IntersectionExampleScenario.node[81].veinsmobility  co2emission  ETV
56846	1985493 5132 16347 20657 179.25 217.5 154 0.973 12.099024792222 540.72949306323 3259.5321851969
56845	1990625 4960 16347 20657 179.25 217.5 154 -3.2365646362305 2.5 42.245687484741 270.91817674335
56844	1995585 5184 16328 20657 179 217.5 155 5.6500000953674 16.27499961853 2216.0974884033 32686.778325608
56843	2000769 5426 16309 20657 178.75 217.5 156 184.17810058594 732.87075805664 69524.335235596 34954170.539679
56842	2006195 5460 16309 20657 178.75 217.5 156 486.85000610352 486.85000610352 75948.600952148 36975576.837107
56818	2011655 6161 15765 20759 170.5 218.5 193 0.973 11.90022389248 560.32184470094 3057.2070372527
56817	2017816 6275 15765 20759 170.5 218.5 193 -2.3133125305176 2.5 39.699392318726 319.99115758028
56816	2024091 6472 15748 20759 170.25 218.5 194 2.0504467487335 16 2212.5179522038 29519.13927515
56815	2030563 6820 15731 20759 170 218.5 195 483.14999389648 785.82187652588 109965.24471283 63843002.379206
56814	2037383 6813 15731 20759 170 218.5 195 483.14999389648 733.93023681641 102499.17306519 54908605.404873
56860	2044196 5247 16613 21003 182.75 221.5 156 0.973 12.099024792222 546.81664742097 3239.5267342488
56859	2049443 5089 16613 21003 182.75 221.5 156 -3.8976707458496 2.5 42.415441513062 330.3835739629
56858	2054532 5162 16592 21003 182.5 221.5 157 5.6500000953674 16.420162200928 2227.9785404205 33287.245496445
56857	2059694 5502 16571 21003 182.25 221.5 158 174.53436279297 483.20391845703 62171.244415283 26301612.80748
56856	2065196 5519 16571 21003 182.25 221.5 158 486.85000610352 734.37188720703 84713.537139893 46313649.95751
vector 56947  IntersectionExampleScenario.node[82].veinsmobility  posx  ETV
vector 56948  IntersectionExampleScenario.node[82].veinsmobility  posy  ETV
vector 56949  IntersectionExampleScenario.node[82].veinsmobility  speed  ETV
vector 56950  IntersectionExampleScenario.node[82].veinsmobility  acceleration  ETV
vector 56951  IntersectionExampleScenario.node[82].veinsmobility  co2emission  ETV
vector 56954  IntersectionExampleScenario.node[83].veinsmobility  posx  ETV
vector 56955  IntersectionExampleScenario.node[83].veinsmobility  posy  ETV
vector 56956  IntersectionExampleScenario.node[83].veinsmobility  speed  ETV
vector 56957  IntersectionExampleScenario.node[83].veinsmobility  acceleration  ETV
vector 56958  IntersectionExampleScenario.node[83].veinsmobility  co2emission  ETV
56874	2071517 5332 17114 21429 188.5 227.5 157 0.973 11.810082123732 515.43055861261 2886.8724378541
56873	2076849 4833 17114 21429 188.5 227.5 157 -3.4797992706299 2.5 39.869146347046 288.3537892539
56872	2081682 5219 17087 21429 188.25 227.5 158 5.6500000953674 15.875 2188.3650727272 31769.767524
56871	2086901 5554 17062 21429 188 227.5 159 486.85000610352 785.82187652588 91043.511863708 53856883.081526
56870	2092455 5527 17062 21429 188 227.5 159 235.78228759766 483.14999389648 68758.902191162 30650667.211468
vector 56961  IntersectionExampleScenario.node[84].veinsmobility  posx  ETV
vector 56962  IntersectionExampleScenario.node[84].veinsmobility  posy  ETV
vector 56963  IntersectionExampleScenario.node[84].veinsmobility  speed  ETV
vector 56968  IntersectionExampleScenario.node[85].veinsmobility  posx  ETV
vector 56969  IntersectionExampleScenario.node[85].veinsmobility  posy  ETV
vector 56964  IntersectionExampleScenario.node[84].veinsmobility  acceleration  ETV
vector 56965  IntersectionExampleScenario.node[84].veinsmobility  co2emission  ETV
vector 56970  IntersectionExampleScenario.node[85].veinsmobility  speed  ETV
56888	2098615 5515 17226 21572 189.5 229.75 162 0.973 11.36141391502 499.87035857346 2622.926022274
56887	2104130 5294 17226 21572 189.5 229.75 162 -3.4326858520508 2.5 37.32285118103 268.97026803176
56886	2109424 5387 17197 21572 189.25 229.75 163 5.6500000953674 15.25 2189.9557247162 30695.0554491
56885	2114811 5713 17168 21572 189 229.75 164 184.17810058594 483.14999389648 65256.624206543 27729701.064957
56884	2120524 5730 17168 21572 189 229.75 164 486.85000610352 734.72160339355 88269.408401489 48464253.071075
vector 56971  IntersectionExampleScenario.node[85].veinsmobility  acceleration  ETV
vector 56972  IntersectionExampleScenario.node[85].veinsmobility  co2emission  ETV
56902	2126423 5460 17352 21648 190.5 230.75 162 0.973 12.157967029961 549.47683967824 3017.2724111479
56901	2131883 5513 17352 21648 190.5 230.75 162 -4.0000877380371 2.5 42.825414657593 290.33340670376
56900	2137396 5412 17319 21648 190.25 230.75 163 5.6500000953674 16.356353759766 2270.3635163307 33207.180304256
56899	2142808 5717 17286 21648 190 230.75 164 162.00311279297 483.14999389648 63764.525817871 26856960.008524
56898	2148525 5718 17286 21648 190 230.75 164 486.85000610352 732.28036499023 87757.641921997 47870459.405495
56832	2154243 7196 16159 21876 176.5 233.75 230 0.973 12.099024792222 628.60841549362 3280.3851859382
56831	2161439 6353 16159 21876 176.5 233.75 230 -30.8835105896 4 41.227170944214 1348.4652174813
56830	2167792 6754 16142 21876 176.25 233.75 231 0 16.27499961853 2210.8333702087 32910.617141957
56829	2174546 8113 16124 21876 176 233.75 232 235.68029785156 486.85000610352 104828.42422485 48439422.166626
56828	2182659 8112 16124 21876 176 233.75 232 483.14999389648 785.82187652588 127002.45941925 71543171.293133
56825	2190771 7281 16142 21894 176.25 234 232 0.973 11.648172402475 606.28022104449 2978.7068910085
56824	2198052 6422 16142 21894 176.25 234 232 -30.222370147705 4 38.511121749878 1294.6914850323
56823	2204474 6855 16124 21894 176 234 233 0 15.64999961853 2183.6074085236 31334.698643051
56822	2211329 8183 16107 21894 175.75 234 234 483.14999389648 734.23628234863 121508.77505493 64205098.511688
56821	2219512 8168 16107 21894 175.75 234 234 184.17810058594 486.85000610352 98664.702301025 43648085.214761
vector 56975  IntersectionExampleScenario.node[86].veinsmobility  posx  ETV
vector 56976  IntersectionExampleScenario.node[86].veinsmobility  posy  ETV
vector 56982  IntersectionExampleScenario.node[87].veinsmobility  posx  ETV
vector 56983  IntersectionExampleScenario.node[87].veinsmobility  posy  ETV
vector 56977  IntersectionExampleScenario.node[86].veinsmobility  speed  ETV
vector 56984  IntersectionExampleScenario.node[87].veinsmobility  speed  ETV
vector 56978  IntersectionExampleScenario.node[86].veinsmobility  acceleration  ETV
vector 56979  IntersectionExampleScenario.node[86].veinsmobility  co2emission  ETV
vector 56985  IntersectionExampleScenario.node[87].veinsmobility  acceleration  ETV
vector 56986  IntersectionExampleScenario.node[87].veinsmobility  co2emission  ETV
56881	2228482 6203 17141 22079 188.75 236.25 191 0.973 11.093806525473 520.42919207541 2501.3619769312
56880	2234685 6238 17141 22079 188.75 236.25 191 -2.089656829834 2.5000009536743 34.77654838562 274.91226690333
56879	2240923 6542 17114 22079 188.5 236.25 192 2.2606165409088 14.875 2214.0483205318 28513.346489658
56878	2247465 6756 17087 22079 188.25 236.25 193 483.14999389648 483.14999389648 93247.948822021 45052745.904219
56877	2254221 6723 17087 22079 188.25 236.25 193 184.17810058594 732.96829223633 86676.250320435 43256622.548543
56839	2260944 7741 16275 22142 178.25 237 236 0.973 10.756497587458 578.18394994783 2507.5540967602
56838	2268685 7647 16275 22142 178.25 237 236 -3.8009688854218 2.5 34.606801986694 341.74498249999
56837	2276332 7960 16258 22142 178 237 237 0 14.440527915955 2267.1250252612 29227.41246135
56836	2284292 8321 16241 22142 177.75 237 238 486.85000610352 734.87759399414 124679.56745911 66443797.5062
56835	2292613 8301 16241 22142 177.75 237 238 486.74673461914 805.05782318115 133495.92489624 77226442.414487
vector 56989  IntersectionExampleScenario.node[88].veinsmobility  posx  ETV
vector 56990  IntersectionExampleScenario.node[88].veinsmobility  posy  ETV
vector 56991  IntersectionExampleScenario.node[88].veinsmobility  speed  ETV
vector 56992  IntersectionExampleScenario.node[88].veinsmobility  acceleration  ETV
vector 56993  IntersectionExampleScenario.node[88].veinsmobility  co2emission  ETV
56853	2301315 7660 16438 22288 180.5 238.75 234 0.973 10.916047529558 613.41280405854 2716.6899843221
56852	2308975 7720 16438 22288 180.5 238.75 234 -4.5 2.5 38.341367721558 423.93905349417
56851	2316695 7904 16419 22288 180.25 238.75 235 0 15.287879943848 2290.103976436 30223.490651295
56850	2324599 8257 16400 22288 180 238.75 236 486.85000610352 733.46391296387 123120.49789429 65290815.171096
56849	2332856 8236 16400 22288 180 238.75 236 486.85000610352 812.32579803467 133486.13420105 77872533.38462
vector 56996  IntersectionExampleScenario.node[89].veinsmobility  posx  ETV
vector 56997  IntersectionExampleScenario.node[89].veinsmobility  posy  ETV
vector 56998  IntersectionExampleScenario.node[89].veinsmobility  speed  ETV
vector 56999  IntersectionExampleScenario.node[89].veinsmobility  acceleration  ETV
vector 57000  IntersectionExampleScenario.node[89].veinsmobility  co2emission  ETV
56916	2341493 5265 18749 22376 201 239.75 156 0.973 11.734532802788 493.39994041774 2783.9125654022
56915	2346758 4918 18749 22376 201 239.75 156 -3.2245178222656 2.5 38.001859664917 221.65203973308
56914	2351676 5277 18718 22376 200.75 239.75 157 5.6500000953674 15.770088195801 2225.5147762299 32164.155107668
56913	2356953 5531 18687 22376 200.5 239.75 158 483.14999389648 483.14999389648 76337.699035645 36882558.823143
56912	2362484 5504 18687 22376 200.5 239.75 158 184.17810058594 735.28193664551 71000.841110229 36109707.286944
56867	2367988 6998 17016 22490 187.5 241.25 216 0.973 11.648172402475 575.5955781878 2903.001951041
56866	2374986 6967 17016 22490 187.5 241.25 216 -3.8853211402893 2.5 38.341367721558 382.09246642403
56865	2381953 7228 16993 22490 187.25 241.25 217 0 15.64999961853 2188.079798039 28795.745083526
56864	2389181 7622 16970 22490 187 241.25 218 486.85000610352 733.98731994629 114382.06816101 61056649.050967
56863	2396803 7615 16970 22490 187 241.25 218 486.85000610352 785.82187652588 122167.68395233 70309839.302374
vector 57003  IntersectionExampleScenario.node[90].veinsmobility  posx  ETV
vector 57004  IntersectionExampleScenario.node[90].veinsmobility  posy  ETV
vector 57010  IntersectionExampleScenario.node[91].veinsmobility  posx  ETV
vector 57011  IntersectionExampleScenario.node[91].veinsmobility  posy  ETV
vector 57017  IntersectionExampleScenario.node[92].veinsmobility  posx  ETV
vector 57018  IntersectionExampleScenario.node[92].veinsmobility  posy  ETV
vector 57005  IntersectionExampleScenario.node[90].veinsmobility  speed  ETV
vector 57012  IntersectionExampleScenario.node[91].veinsmobility  speed  ETV
vector 57006  IntersectionExampleScenario.node[90].veinsmobility  acceleration  ETV
vector 57007  IntersectionExampleScenario.node[90].veinsmobility  co2emission  ETV
vector 57013  IntersectionExampleScenario.node[91].veinsmobility  acceleration  ETV
vector 57014  IntersectionExampleScenario.node[91].veinsmobility  co2emission  ETV
vector 57019  IntersectionExampleScenario.node[92].veinsmobility  speed  ETV
vector 57020  IntersectionExampleScenario.node[92].veinsmobility  acceleration  ETV
vector 57021  IntersectionExampleScenario.node[92].veinsmobility  co2emission  ETV
56895	2405621 7018 17319 22677 190.25 243.5 214 0.973 11.648172402475 576.42658938626 2867.7984627373
56894	2412639 7178 17319 22677 190.25 243.5 214 -3.8751487731934 2.5 37.662351608276 361.41095497088
56893	2419817 7208 17286 22677 190 243.5 215 0 15.64999961853 2237.4505530652 28925.97894608
56892	2427025 7543 17255 22677 189.75 243.5 216 486.85000610352 732.0424041748 113366.66410828 60524920.45867
56891	2434568 7544 17255 22677 189.75 243.5 216 486.83941650391 800.04531860352 122685.34738922 71738108.992125
vector 57024  IntersectionExampleScenario.node[93].veinsmobility  posx  ETV
vector 57025  IntersectionExampleScenario.node[93].veinsmobility  posy  ETV
vector 57026  IntersectionExampleScenario.node[93].veinsmobility  speed  ETV
vector 57027  IntersectionExampleScenario.node[93].veinsmobility  acceleration  ETV
vector 57028  IntersectionExampleScenario.node[93].veinsmobility  co2emission  ETV
vector 57031  IntersectionExampleScenario.node[94].veinsmobility  posx  ETV
vector 57032  IntersectionExampleScenario.node[94].veinsmobility  posy  ETV
vector 57038  IntersectionExampleScenario.node[95].veinsmobility  posx  ETV
vector 57039  IntersectionExampleScenario.node[95].veinsmobility  posy  ETV
vector 57033  IntersectionExampleScenario.node[94].veinsmobility  speed  ETV
vector 57040  IntersectionExampleScenario.node[95].veinsmobility  speed  ETV
vector 57034  IntersectionExampleScenario.node[94].veinsmobility  acceleration  ETV
vector 57035  IntersectionExampleScenario.node[94].veinsmobility  co2emission  ETV
vector 57041  IntersectionExampleScenario.node[95].veinsmobility  acceleration  ETV
vector 57042  IntersectionExampleScenario.node[95].veinsmobility  co2emission  ETV
56937	2443315 5191 20042 23315 211.75 249.5 152 0.973 11.990504229548 480.56587504167 2612.2460010431
[...]
60538	19102680 5871 150575 153978 1723.75 1763.5 160 166.54217529297 734.29360961914 70346.762145996 35423210.040562
vector 60646  IntersectionExampleScenario.node[610].veinsmobility  acceleration  ETV
vector 60647  IntersectionExampleScenario.node[610].veinsmobility  co2emission  ETV
vector 60650  IntersectionExampleScenario.node[611].veinsmobility  posx  ETV
vector 60651  IntersectionExampleScenario.node[611].veinsmobility  posy  ETV
vector 60652  IntersectionExampleScenario.node[611].veinsmobility  speed  ETV
vector 60653  IntersectionExampleScenario.node[611].veinsmobility  acceleration  ETV
vector 60654  IntersectionExampleScenario.node[611].veinsmobility  co2emission  ETV
vector 60657  IntersectionExampleScenario.node[612].veinsmobility  posx  ETV
vector 60658  IntersectionExampleScenario.node[612].veinsmobility  posy  ETV
vector 60659  IntersectionExampleScenario.node[612].veinsmobility  speed  ETV
vector 60664  IntersectionExampleScenario.node[613].veinsmobility  posx  ETV
vector 60665  IntersectionExampleScenario.node[613].veinsmobility  posy  ETV
vector 60660  IntersectionExampleScenario.node[612].veinsmobility  acceleration  ETV
vector 60661  IntersectionExampleScenario.node[612].veinsmobility  co2emission  ETV
vector 60666  IntersectionExampleScenario.node[613].veinsmobility  speed  ETV
vector 60667  IntersectionExampleScenario.node[613].veinsmobility  acceleration  ETV
vector 60668  IntersectionExampleScenario.node[613].veinsmobility  co2emission  ETV
60549	19109940 6745 150740 155139 1725.5 1774.75 198 0.973 11.90022389248 592.6610500271 3216.6475664969
60548	19116685 6334 150740 155139 1725.5 1774.75 198 -7.0450916290283 4 41.227170944214 488.42444125002
60547	19123019 6563 150715 155139 1725.25 1774.75 199 0 16.389331817627 2207.8762598038 32372.306726396
60546	19129582 7383 150690 155139 1725 1774.75 200 483.14999389648 785.82187652588 111119.18047333 63662738.487242
60545	19136965 7394 150690 155139 1725 1774.75 200 483.14999389648 734.31971740723 104750.77601624 55891193.916474
60514	19144359 7914 149816 155168 1715.75 1775 238 0.973 11.90022389248 628.09324672036 3166.5334085401
60513	19152273 6966 149816 155168 1715.75 1775 238 -43.740642547607 4 39.869146347046 2240.3928115886
60512	19159239 7448 149791 155168 1715.5 1775 239 0 16 2222.4917821884 32796.867950158
60511	19166687 8854 149766 155168 1715.25 1775 240 184.17810058594 735.07762145996 109699.8326416 54280516.326899
60510	19175541 8880 149766 155168 1715.25 1775 240 486.85000610352 486.85000610352 116844.00146484 56885502.826318
60556	19184421 6158 151269 155284 1731.5 1776 179 0.973 11.990504229548 546.61661362355 3020.1817553454
60555	19190579 6342 151269 155284 1731.5 1776 179 -2.6842727661133 2.5000019073486 39.699392318726 317.8765851716
60554	19196921 6453 151248 155284 1731.25 1776 180 2.1797306537628 16.125 2212.1398563385 30712.991655023
60553	19203374 6681 151227 155284 1731 1776 181 237.90356445312 785.82187652588 94527.939247131 53427635.359269
60552	19210055 6695 151227 155284 1731 1776 181 483.14999389648 483.14999389648 87450.148895264 42251538.904993
60535	19216750 7201 150598 155371 1724 1776.75 212 0.973 11.648172402475 580.31203066486 2987.8272941027
60534	19223951 7515 150598 155371 1724 1776.75 212 -3.9727282524109 2.5000001192093 39.699392318726 346.10200346378
60533	19231466 7666 150575 155371 1723.75 1776.75 213 0 15.799726486206 2185.4302429631 29251.270363251
60532	19239132 7882 150553 155371 1723.5 1776.75 214 184.17810058594 483.14999389648 88076.334503174 38116565.983603
60531	19247014 7913 150553 155371 1723.5 1776.75 214 486.85000610352 733.57453918457 112230.30613708 59874083.687459
vector 60671  IntersectionExampleScenario.node[614].veinsmobility  posx  ETV
vector 60672  IntersectionExampleScenario.node[614].veinsmobility  posy  ETV
vector 60673  IntersectionExampleScenario.node[614].veinsmobility  speed  ETV
vector 60674  IntersectionExampleScenario.node[614].veinsmobility  acceleration  ETV
vector 60675  IntersectionExampleScenario.node[614].veinsmobility  co2emission  ETV
vector 60678  IntersectionExampleScenario.node[615].veinsmobility  posx  ETV
vector 60679  IntersectionExampleScenario.node[615].veinsmobility  posy  ETV
vector 60680  IntersectionExampleScenario.node[615].veinsmobility  speed  ETV
vector 60681  IntersectionExampleScenario.node[615].veinsmobility  acceleration  ETV
vector 60682  IntersectionExampleScenario.node[615].veinsmobility  co2emission  ETV
vector 60685  IntersectionExampleScenario.node[616].veinsmobility  posx  ETV
vector 60686  IntersectionExampleScenario.node[616].veinsmobility  posy  ETV
60577	19255895 5525 152230 155806 1742.75 1780.75 153 0.973 11.648172402475 487.11400669425 2691.1449125277
60576	19261420 5265 152230 155806 1742.75 1780.75 153 -3.7104339599609 2.5 38.850629806519 217.13510298988
60575	19266685 5473 152209 155806 1742.5 1780.75 154 5.6500000953674 15.64999961853 2211.0613470078 32403.691095723
60574	19272158 5726 152188 155806 1742.25 1780.75 155 238.21343994141 785.82187652588 80980.892311096 46396089.80842
60573	19277884 5737 152188 155806 1742.25 1780.75 155 483.14999389648 483.14999389648 74888.249053955 36182257.073337
vector 60687  IntersectionExampleScenario.node[616].veinsmobility  speed  ETV
vector 60688  IntersectionExampleScenario.node[616].veinsmobility  acceleration  ETV
vector 60689  IntersectionExampleScenario.node[616].veinsmobility  co2emission  ETV
60570	19283871 5912 152047 155951 1740.5 1782 167 0.973 11.200708441096 533.68378599291 3049.8799964554
60569	19289783 5575 152047 155951 1740.5 1782 167 -3.3022994995117 2.5 35.455564498901 314.90886023382
60568	19295358 5920 152024 155951 1740.25 1782 168 5.6500000953674 15.02499961853 2189.0537538528 29608.519979519
60567	19301278 6220 152001 155951 1740 1782 169 184.17810058594 483.14999389648 67280.065551758 28572619.632725
60566	19307498 6247 152001 155951 1740 1782 169 486.85000610352 734.50410461426 90939.080718994 49918211.982434
vector 60692  IntersectionExampleScenario.node[617].veinsmobility  posx  ETV
vector 60693  IntersectionExampleScenario.node[617].veinsmobility  posy  ETV
vector 60694  IntersectionExampleScenario.node[617].veinsmobility  speed  ETV
vector 60695  IntersectionExampleScenario.node[617].veinsmobility  acceleration  ETV
vector 60696  IntersectionExampleScenario.node[617].veinsmobility  co2emission  ETV
vector 60699  IntersectionExampleScenario.node[618].veinsmobility  posx  ETV
vector 60700  IntersectionExampleScenario.node[618].veinsmobility  posy  ETV
vector 60701  IntersectionExampleScenario.node[618].veinsmobility  speed  ETV
vector 60702  IntersectionExampleScenario.node[618].veinsmobility  acceleration  ETV
vector 60703  IntersectionExampleScenario.node[618].veinsmobility  co2emission  ETV
vector 60706  IntersectionExampleScenario.node[619].veinsmobility  posx  ETV
vector 60707  IntersectionExampleScenario.node[619].veinsmobility  posy  ETV
vector 60708  IntersectionExampleScenario.node[619].veinsmobility  speed  ETV
vector 60709  IntersectionExampleScenario.node[619].veinsmobility  acceleration  ETV
vector 60710  IntersectionExampleScenario.node[619].veinsmobility  co2emission  ETV
vector 60713  IntersectionExampleScenario.node[620].veinsmobility  posx  ETV
vector 60714  IntersectionExampleScenario.node[620].veinsmobility  posy  ETV
vector 60715  IntersectionExampleScenario.node[620].veinsmobility  speed  ETV
vector 60716  IntersectionExampleScenario.node[620].veinsmobility  acceleration  ETV
vector 60717  IntersectionExampleScenario.node[620].veinsmobility  co2emission  ETV
60563	19315369 7640 151735 157390 1737 1794 229 0.973 11.810082123732 612.22937319168 3113.1825720762
60562	19323009 7051 151735 157390 1737 1794 229 -7.46426820755 4 39.869146347046 538.96345985832
60561	19330060 7256 151712 157390 1736.75 1794 230 0 15.875 2183.1399694681 31519.498439191
60560	19337316 8476 151689 157390 1736.5 1794 231 486.85000610352 734.37205505371 120537.11169434 63942103.955611
60559	19345792 8537 151689 157390 1736.5 1794 231 486.63604736328 785.82187652588 126924.77565765 71736291.562106
60584	19354329 6148 152834 157452 1751.5 1794.5 173 0.973 11.36141391502 530.93740770487 2744.6814860374
60583	19360477 5762 152834 157452 1751.5 1794.5 173 -6.7711095809937 4 36.98334312439 450.59377063409
60582	19366239 6079 152817 157452 1751.25 1794.5 174 0 15.25 2175.7518153191 29985.055767119
60581	19372318 6412 152800 157452 1751 1794.5 175 237.36993408203 483.14999389648 76227.400543213 34168350.112268
60580	19378730 6447 152800 157452 1751 1794.5 175 184.17810058594 483.36395263672 70354.268066406 30098821.098771
vector 60720  IntersectionExampleScenario.node[621].veinsmobility  posx  ETV
vector 60721  IntersectionExampleScenario.node[621].veinsmobility  posy  ETV
vector 60722  IntersectionExampleScenario.node[621].veinsmobility  speed  ETV
vector 60723  IntersectionExampleScenario.node[621].veinsmobility  acceleration  ETV
vector 60724  IntersectionExampleScenario.node[621].veinsmobility  co2emission  ETV
60591	19385583 6035 152957 157670 1753.25 1796.25 173 0.973 11.648172402475 546.64905014764 3000.6046231109
60590	19391618 5877 152957 157670 1753.25 1796.25 173 -2.2433128356934 2.5 39.869146347046 300.16601065686
60589	19397495 6196 152938 157670 1753 1796.25 174 4.5405759811401 15.64999961853 2210.2603230476 30357.169109207
60588	19403691 6449 152919 157670 1752.75 1796.25 175 236.72747802734 486.85000610352 76972.705444336 34838575.64265
60587	19410140 6464 152919 157670 1752.75 1796.25 175 483.14999389648 785.82187652588 99457.378623962 58308679.09785
60626	19416604 5669 153511 157925 1758.75 1798.5 160 0.973 11.810082123732 541.99735027965 3206.7428162081
60625	19422273 5463 153511 157925 1758.75 1798.5 160 -3.7797546386719 2.5 39.529638290405 317.43537243113
60624	19427736 5633 153482 157925 1758.5 1798.5 161 5.6500000953674 15.875 2189.0509977341 31191.8726995
60623	19433369 5980 153453 157925 1758.25 1798.5 162 235.57684326172 483.14999389648 70145.842224121 31300999.490455
60622	19439349 5964 153453 157925 1758.25 1798.5 162 184.17810058594 483.14999389648 64446.741241455 27375356.146893
60598	19445313 5925 153018 158070 1754 1800 185 0.973 11.200708441096 449.12742555657 2134.7373619818
60597	19451238 5115 153018 158070 1754 1800 185 -24.258693695068 4 28.39999961853 933.08831139969
60596	19456353 5516 152997 158070 1753.75 1800 186 0 15.02499961853 1314.498134613 17499.117969209
60595	19461869 6896 152976 158070 1753.5 1800 187 184.17810058594 483.36395263672 75400.947631836 32178525.023422
60594	19468765 6877 152976 158070 1753.5 1800 187 486.85000610352 517.7890625 91266.429656982 44547242.172593
60605	19475642 5883 153064 158070 1754.5 1800 183 0.973 10.754870572631 448.20586890766 2011.6693098375
60604	19481525 5077 153064 158070 1754.5 1800 183 -13.636524200439 5.3420143127441 15.89999961853 735.82548019635
60603	19486602 5592 153041 158070 1754.25 1800 184 -1.335503578186 15.240957260132 1261.1925504208 16129.4962752
60602	19492194 6822 153018 158070 1754 1800 185 486.83288574219 785.82187652588 107191.54667664 64027528.567226
60601	19499016 6843 153018 158070 1754 1800 185 464.70788574219 483.14999389648 89277.469696045 43084812.320928
60612	19505859 5803 153160 158070 1755.5 1800 179 0.973 11.598553492964 402.85412785853 1757.988163242
60611	19511662 5670 153160 158070 1755.5 1800 179 -4.5 2.5000009536743 -0.57934188842773 462.06123938257
60610	19517332 5889 153135 158070 1755.25 1800 180 0 16.349292755127 1269.8288858458 17305.756422324
60609	19523221 6674 153110 158070 1755 1800 181 492.39770507812 807.99687957764 106732.94732666 64976321.077426
60608	19529895 6694 153110 158070 1755 1800 181 481.16213989258 483.14999389648 87444.99005127 42246560.994312
60619	19536589 5629 153264 158070 1756.5 1800 175 0.973 11.200708441096 423.98087712201 1949.605489636
60618	19542218 5026 153264 158070 1756.5 1800 175 -42.27473449707 4 25.482652664185 2055.7847749488
60617	19547244 5321 153237 158070 1756.25 1800 176 0 15.02499961853 1182.0790328979 15788.057221007
60616	19552565 6534 153210 158070 1756 1800 177 461.40390014648 753.92188262939 98277.477073669 55902890.620134
60615	19559099 6547 153210 158070 1756 1800 177 483.14999389648 483.14999389648 85517.548919678 41317803.238584
60633	19565646 5222 153784 158070 1761.5 1800 155 0.973 11.200708441096 345.78310671488 1514.2731935308
60632	19570868 5619 153784 158070 1761.5 1800 155 -3.9424867630005 2.5000009536743 5.8090381622314 265.8384547664
60631	19576487 5741 153761 158070 1761.25 1800 156 0 15.02499961853 1165.0647250637 14577.334116854
60630	19582228 5786 153738 158070 1761 1800 157 506.93017578125 795.84036254883 93668.706924438 57329458.963234
60629	19588014 5807 153738 158070 1761 1800 157 483.14999389648 483.14999389648 75854.549041748 36649124.906541
60640	19593821 5354 153926 158070 1763 1800 149 0.973 11.36141391502 469.96668611535 2553.7052963763
60639	19599175 5302 153926 158070 1763 1800 149 -3.6404132843018 2.5 36.983346939087 276.36452366832
60638	19604477 5225 153901 158070 1762.75 1800 150 5.6500000953674 15.25 1991.1308951378 27633.464592981
60637	19609702 5580 153876 158070 1762.5 1800 151 486.85000610352 685.14288330078 78988.345092773 41839772.291251
60636	19615282 5577 153876 158070 1762.5 1800 151 486.85000610352 785.82187652588 87535.874031067 52406231.406627
60647	19620859 5201 154005 158070 1763.75 1800 146 0.973 11.36141391502 458.57154207478 2537.6396457209
60646	19626060 4971 154005 158070 1763.75 1800 146 -4.5 2.5 36.983671188354 282.26675272931
60645	19631031 5127 153978 158070 1763.5 1800 147 5.6500000953674 15.364349365234 1903.6350069046 25867.58039885
60644	19636158 5473 153951 158070 1763.25 1800 148 486.85000610352 639.94958496094 75370.083526611 38642997.56984
60643	19641631 5469 153951 158070 1763.25 1800 148 486.85000610352 808.82032012939 88446.311233521 54756009.35616
60654	19647100 4462 154211 158070 1765.75 1800 138 0.973 11.648172402475 333.90922476739 1600.3017848819
60653	19651562 5000 154211 158070 1765.75 1800 138 -3.7703204154968 2.5 5.9820594787598 258.76808853241
60652	19656562 5001 154186 158070 1765.5 1800 139 0 15.64999961853 1236.5609463453 14817.863436562
60651	19661563 5151 154161 158070 1765.25 1800 140 184.17810058594 486.63122558594 52456.02142334 20983909.390143
60650	19666714 5178 154161 158070 1765.25 1800 140 476.50765991211 486.85000610352 68111.509033203 33137287.549926
60661	19671892 3763 154965 158070 1773.25 1800 108 0.96333723109819 12.099024792222 411.48921183492 2810.4573448241
60660	19675655 3609 154965 158070 1773.25 1800 108 -3.4129219055176 2.5 39.274435043335 300.18982913252
60659	19679264 3714 154938 158070 1773 1800 109 5.6500000953674 16.27499961853 1424.1598024368 19889.652944787
60658	19682978 4068 154911 158070 1772.75 1800 110 486.85000610352 543.27899169922 54104.745819092 26628664.779835
60657	19687046 4054 154911 158070 1772.75 1800 110 486.85000610352 785.82187652588 67110.826515198 42151638.110501
60668	19691100 3762 155023 158070 1773.75 1800 106 0.973 11.810082123732 406.27003087191 2651.419280496
60667	19694862 3266 155023 158070 1773.75 1800 106 -3.4797992706299 2.5 40.89999961853 288.20197915846
60666	19698128 3649 154994 158070 1773.5 1800 107 5.6500000953674 15.875 1391.110394001 19306.654189339
60665	19701777 3966 154965 158070 1773.25 1800 108 435.177734375 483.14999389648 51755.126159668 24812890.059976
60664	19705743 3973 154965 158070 1773.25 1800 108 184.17810058594 483.14999389648 38545.838928223 14930440.613259
60675	19709716 2956 155614 158070 1779 1800 85 0.973 10.717227300549 294.96787380675 1603.8134611635
60674	19712672 2921 155614 158070 1779 1800 85 -4.5 2.5 14.541227340698 331.07169521238
60673	19715593 3174 155587 158070 1778.75 1800 86 5.5249996185303 15.607676506042 953.36931467056 11644.944944623
60672	19718767 3213 155560 158070 1778.5 1800 87 550.32632446289 785.82187652588 58504.867050171 39869626.809474
60671	19721980 3218 155560 158070 1778.5 1800 87 483.14999389648 483.14999389648 42034.049468994 20308750.744389
60682	19725198 2656 155779 158070 1780.5 1800 79 0.973 9.6269594991027 232.74323269712 1162.5518516144
60681	19727854 2938 155779 158070 1780.5 1800 79 -4.5 2.5 9.8698825836182 138.32531814372
60680	19730792 2949 155751 158070 1780.25 1800 80 5.6500000953674 15.237950325012 975.15013408661 12503.87890615
60679	19733741 2989 155722 158070 1780 1800 81 564.6494140625 806.11563110352 56106.570487976 39351571.755467
60678	19736730 2995 155722 158070 1780 1800 81 483.14999389648 483.14999389648 39135.149505615 18908147.244776
60689	19739725 2564 155864 158070 1781.25 1800 76 0.973 11.200708441096 251.0447173945 1520.2837464819
60688	19742289 2654 155864 158070 1781.25 1800 76 -3.4410438537598 2.5 13.210176467896 206.43612217079
60687	19744943 2833 155835 158070 1781 1800 77 5.6500000953674 15.02499961853 896.12804794312 11094.768358222
60686	19747776 2874 155806 158070 1780.75 1800 78 530.94360351562 752.70781707764 49820.559936523 32216978.47879
60685	19750650 2885 155806 158070 1780.75 1800 78 483.14999389648 483.14999389648 37685.699523926 18207845.494969
60696	19753535 2406 156064 158070 1783 1800 69 0.973 11.225220388132 237.4734272803 1322.5442098963
60695	19755941 2415 156064 158070 1783 1800 69 -4.5 2.5 17.631299972534 175.67429689106
60694	19758356 2576 156035 158070 1782.75 1800 70 5.6500000953674 15.749167442322 907.65069484711 12345.663802847
60693	19760932 2617 156006 158070 1782.5 1800 71 588.44161987305 812.1185760498 50154.396385193 35798845.5093
60692	19763549 2626 156006 158070 1782.5 1800 71 483.14999389648 483.14999389648 34303.64956665 16573808.078754
60703	19766175 2065 156445 158070 1786.25 1800 56 1.4638759209493 12.553400930962 244.43993662504 1686.8051212881
60702	19768240 1999 156445 158070 1786.25 1800 56 -0.22175598144531 2.5 44.112981796265 112.61239443819
60701	19770239 2093 156414 158070 1786 1800 57 5.6500000953674 16.89999961853 848.66345214844 13230.519733247
60700	19772332 2121 156383 158070 1785.75 1800 58 184.17810058594 390.86697387695 15984.200775146 4649266.1916213
60699	19774453 2145 156383 158070 1785.75 1800 58 486.85000610352 486.85000610352 28237.300354004 13747329.849694
60710	19776598 1714 156711 158070 1788.5 1800 47 0.973 11.648172402475 195.33045810314 1312.8251665069
60709	19778312 1663 156711 158070 1788.5 1800 47 -0.45709991455078 2.5 38.171850204468 100.47756578547
60708	19779975 1760 156680 158070 1788.25 1800 48 5.6500000953674 15.64999961853 653.40105056763 9285.0401944025
60707	19781735 1811 156649 158070 1788 1800 49 486.85000610352 486.85000610352 23855.650299072 11614123.493707
60706	19783546 1809 156649 158070 1788 1800 49 627.57391357422 785.82187652588 35079.572425842 25235344.383452
60717	19785355 1470 156925 158070 1790.25 1800 40 1.7043447497947 11.648172402475 205.82401025773 1409.523344721
60716	19786825 1334 156925 158070 1790.25 1800 40 -0.15315246582031 2.5 44.178075790405 101.22952893863
60715	19788159 1502 156894 158070 1790 1800 41 5.6500000953674 16.729684829712 573.30389881134 8500.8477159092
60714	19789661 1553 156863 158070 1789.75 1800 42 486.85000610352 486.85000610352 20447.700256348 9954962.9946057
60713	19791214 1550 156863 158070 1789.75 1800 42 667.33985900879 805.05782318115 31356.662254333 23489392.587523
60724	19792764 589 157670 158070 1796.25 1800 16 5.2162187258585 11.648172402475 134.25053707584 1188.8536053759
60723	19793353 412 157670 158070 1796.25 1800 16 2.4999980926514 2.5 39.999998092651 99.99999046326
60722	19793765 617 157639 158070 1796 1800 17 5.6500000953674 15.64999961853 181.04999542236 2087.5573869991
60721	19794382 665 157607 158070 1795.75 1800 18 486.85000610352 486.85000610352 8763.3001098633 4266412.7119739
60720	19795047 665 157607 158070 1795.75 1800 18 745.72188568115 785.82187652588 13857.068901062 10670567.205861
56369	19795712 636 0 158069 0 1800 31 0 26 475 7869
56370	19796348 648 0 158069 0 1800 31 0 174 2707 314817
