version 2
run nodebug-42-20200606-22:05:28-21964
attr configname nodebug
attr datetime 20200606-22:05:28
attr experiment nodebug
attr inifile omnetpp.ini
attr iterationvars ""
attr iterationvars2 $repetition=42
attr measurement ""
attr network "\"org.car2x.veins.modules.application.ExtTraCIScenarioManagerLaunchd.IntersectionExampleScenario\""
attr processid 21964
attr repetition 42
attr replication #42
attr resultdir results
attr runnumber 42
attr seedset 42
param **.coreDebug false
param **.debug false
param *.**.nic.mac1609_4.bitrate 18Mbps
param *.**.nic.mac1609_4.txPower 20mW
param *.**.nic.mac1609_4.useServiceChannel false
param *.**.nic.phy80211p.analogueModels "xmldoc(\"config.xml\")"
param *.**.nic.phy80211p.decider "xmldoc(\"config.xml\")"
param *.**.nic.phy80211p.sensitivity -89dBm
param *.**.nic.phy80211p.thermalNoise -110dBm
param *.**.nic.phy80211p.usePropagationDelay true
param *.**.nic.phy80211p.useThermalNoise true
param *.annotations.draw false
param *.connectionManager.alpha 2.0
param *.connectionManager.carrierFrequency "5.890e9 Hz"
param *.connectionManager.pMax 20mW
param *.connectionManager.sat -89dBm
param *.connectionManager.sendDirect true
param *.manager.autoShutdown true
param *.manager.host "\"localhost\""
param *.manager.launchConfig "xmldoc(\"paramics.launchd.xml\")"
param *.manager.margin 25
param *.manager.moduleDisplayString "\"\""
param *.manager.moduleName "\"node\""
param *.manager.moduleType "\"org.car2x.veins.nodes.Car\""
param *.manager.port 9999
param *.manager.updateInterval 250ms
param *.node[*0].veinsmobility.accidentCount 0
param *.node[*0].veinsmobility.accidentDuration 30s
param *.node[*0].veinsmobility.accidentStart 75s
param *.node[*].appl.LiderSelectZoneRadio 55.0
param *.node[*].appl.ShareDataZoneRadio 110.0
param *.node[*].appl.TiempoSemaforo 30.0
param *.node[*].appl.beaconInterval 1s
param *.node[*].appl.beaconPriority 3
param *.node[*].appl.dataOnSch false
param *.node[*].appl.dataPriority 2
param *.node[*].appl.debug false
param *.node[*].appl.headerLength "256 bit"
param *.node[*].appl.maxOffset 0.005s
param *.node[*].appl.sendBeacons false
param *.node[*].appl.sendData true
param *.node[*].applType "\"Dummy\""
param *.node[*].mobilityType "\"TraCIMobility\""
param *.node[*].mobilityType.debug true
param *.node[*].veinsmobility.x 0
param *.node[*].veinsmobility.y 0
param *.node[*].veinsmobility.z 1.895
param *.node[*].veinsmobilityType "\"org.car2x.veins.modules.mobility.traci.TraCIMobility\""
param *.node[*].veinsmobilityType.debug true
param *.playgroundSizeX 8500m
param *.playgroundSizeY 8500m
param *.playgroundSizeZ 50m
param *.world.use2D false
param *.world.useTorus false

scalar IntersectionExampleScenario.node[1].appl 	VehicleRemoved 	0
scalar IntersectionExampleScenario.node[1].appl 	ArrivedAtDest 	1
scalar IntersectionExampleScenario.node[1].appl 	IntersectionEnterTime 	15.5
scalar IntersectionExampleScenario.node[1].appl 	IntersectionExitTime 	42.60827201858
scalar IntersectionExampleScenario.node[1].appl 	NumberOfCollisions 	0
scalar IntersectionExampleScenario.node[1].nic.phy80211p 	busyTime 	0
scalar IntersectionExampleScenario.node[1].nic.mac1609_4 	ReceivedUnicastPackets 	0
scalar IntersectionExampleScenario.node[1].nic.mac1609_4 	ReceivedBroadcasts 	0
scalar IntersectionExampleScenario.node[1].nic.mac1609_4 	SentPackets 	0
scalar IntersectionExampleScenario.node[1].nic.mac1609_4 	SNIRLostPackets 	0
scalar IntersectionExampleScenario.node[1].nic.mac1609_4 	RXTXLostPackets 	0
scalar IntersectionExampleScenario.node[1].nic.mac1609_4 	TotalLostPackets 	0
scalar IntersectionExampleScenario.node[1].nic.mac1609_4 	DroppedPacketsInMac 	0
scalar IntersectionExampleScenario.node[1].nic.mac1609_4 	TooLittleTime 	0
scalar IntersectionExampleScenario.node[1].nic.mac1609_4 	TimesIntoBackoff 	0
scalar IntersectionExampleScenario.node[1].nic.mac1609_4 	SlotsBackoff 	0
scalar IntersectionExampleScenario.node[1].nic.mac1609_4 	NumInternalContention 	0
scalar IntersectionExampleScenario.node[1].nic.mac1609_4 	totalBusyTime 	0
scalar IntersectionExampleScenario.node[1].veinsmobility 	startTime 	15.5
scalar IntersectionExampleScenario.node[1].veinsmobility 	totalTime 	43.5
scalar IntersectionExampleScenario.node[1].veinsmobility 	stopTime 	59.25
scalar IntersectionExampleScenario.node[1].veinsmobility 	minSpeed 	0
scalar IntersectionExampleScenario.node[1].veinsmobility 	maxSpeed 	16.27499961853
scalar IntersectionExampleScenario.node[1].veinsmobility 	totalDistance 	546.3535680905
scalar IntersectionExampleScenario.node[1].veinsmobility 	totalCO2Emission 	139.69767273625
scalar IntersectionExampleScenario.node[0].appl 	VehicleRemoved 	0
scalar IntersectionExampleScenario.node[0].appl 	ArrivedAtDest 	1
scalar IntersectionExampleScenario.node[0].appl 	IntersectionEnterTime 	5.5
scalar IntersectionExampleScenario.node[0].appl 	IntersectionExitTime 	43.324832310784
scalar IntersectionExampleScenario.node[0].appl 	NumberOfCollisions 	0
scalar IntersectionExampleScenario.node[0].nic.phy80211p 	busyTime 	0
scalar IntersectionExampleScenario.node[0].nic.mac1609_4 	ReceivedUnicastPackets 	0
scalar IntersectionExampleScenario.node[0].nic.mac1609_4 	ReceivedBroadcasts 	0
scalar IntersectionExampleScenario.node[0].nic.mac1609_4 	SentPackets 	0
scalar IntersectionExampleScenario.node[0].nic.mac1609_4 	SNIRLostPackets 	0
scalar IntersectionExampleScenario.node[0].nic.mac1609_4 	RXTXLostPackets 	0
scalar IntersectionExampleScenario.node[0].nic.mac1609_4 	TotalLostPackets 	0
scalar IntersectionExampleScenario.node[0].nic.mac1609_4 	DroppedPacketsInMac 	0
scalar IntersectionExampleScenario.node[0].nic.mac1609_4 	TooLittleTime 	0
scalar IntersectionExampleScenario.node[0].nic.mac1609_4 	TimesIntoBackoff 	0
scalar IntersectionExampleScenario.node[0].nic.mac1609_4 	SlotsBackoff 	0
scalar IntersectionExampleScenario.node[0].nic.mac1609_4 	NumInternalContention 	0
scalar IntersectionExampleScenario.node[0].nic.mac1609_4 	totalBusyTime 	0
scalar IntersectionExampleScenario.node[0].veinsmobility 	startTime 	5.5
scalar IntersectionExampleScenario.node[0].veinsmobility 	totalTime 	54
scalar IntersectionExampleScenario.node[0].veinsmobility 	stopTime 	59.75
scalar IntersectionExampleScenario.node[0].veinsmobility 	minSpeed 	0
scalar IntersectionExampleScenario.node[0].veinsmobility 	maxSpeed 	15.375
scalar IntersectionExampleScenario.node[0].veinsmobility 	totalDistance 	551.07523345947
scalar IntersectionExampleScenario.node[0].veinsmobility 	totalCO2Emission 	143.42873794709
scalar IntersectionExampleScenario.node[2].appl 	VehicleRemoved 	0
scalar IntersectionExampleScenario.node[2].appl 	ArrivedAtDest 	1
scalar IntersectionExampleScenario.node[2].appl 	IntersectionEnterTime 	16.25
scalar IntersectionExampleScenario.node[2].appl 	IntersectionExitTime 	44.121238730877
scalar IntersectionExampleScenario.node[2].appl 	NumberOfCollisions 	0
scalar IntersectionExampleScenario.node[2].nic.phy80211p 	busyTime 	0
scalar IntersectionExampleScenario.node[2].nic.mac1609_4 	ReceivedUnicastPackets 	0
scalar IntersectionExampleScenario.node[2].nic.mac1609_4 	ReceivedBroadcasts 	0
scalar IntersectionExampleScenario.node[2].nic.mac1609_4 	SentPackets 	0
scalar IntersectionExampleScenario.node[2].nic.mac1609_4 	SNIRLostPackets 	0
scalar IntersectionExampleScenario.node[2].nic.mac1609_4 	RXTXLostPackets 	0
scalar IntersectionExampleScenario.node[2].nic.mac1609_4 	TotalLostPackets 	0
scalar IntersectionExampleScenario.node[2].nic.mac1609_4 	DroppedPacketsInMac 	0
scalar IntersectionExampleScenario.node[2].nic.mac1609_4 	TooLittleTime 	0
scalar IntersectionExampleScenario.node[2].nic.mac1609_4 	TimesIntoBackoff 	0
scalar IntersectionExampleScenario.node[2].nic.mac1609_4 	SlotsBackoff 	0
scalar IntersectionExampleScenario.node[2].nic.mac1609_4 	NumInternalContention 	0
scalar IntersectionExampleScenario.node[2].nic.mac1609_4 	totalBusyTime 	0
scalar IntersectionExampleScenario.node[2].veinsmobility 	startTime 	16.25
scalar IntersectionExampleScenario.node[2].veinsmobility 	totalTime 	43.75
scalar IntersectionExampleScenario.node[2].veinsmobility 	stopTime 	60.25
scalar IntersectionExampleScenario.node[2].veinsmobility 	minSpeed 	2.9563555717468
scalar IntersectionExampleScenario.node[2].veinsmobility 	maxSpeed 	15.5
scalar IntersectionExampleScenario.node[2].veinsmobility 	totalDistance 	575.72866821289
scalar IntersectionExampleScenario.node[2].veinsmobility 	totalCO2Emission 	136.67111234185
scalar IntersectionExampleScenario.node[3].appl 	VehicleRemoved 	0
scalar IntersectionExampleScenario.node[3].appl 	ArrivedAtDest 	1
scalar IntersectionExampleScenario.node[3].appl 	IntersectionEnterTime 	21.5
scalar IntersectionExampleScenario.node[3].appl 	IntersectionExitTime 	46.772925563739
scalar IntersectionExampleScenario.node[3].appl 	NumberOfCollisions 	0
scalar IntersectionExampleScenario.node[3].nic.phy80211p 	busyTime 	0
scalar IntersectionExampleScenario.node[3].nic.mac1609_4 	ReceivedUnicastPackets 	0
scalar IntersectionExampleScenario.node[3].nic.mac1609_4 	ReceivedBroadcasts 	0
scalar IntersectionExampleScenario.node[3].nic.mac1609_4 	SentPackets 	0
scalar IntersectionExampleScenario.node[3].nic.mac1609_4 	SNIRLostPackets 	0
scalar IntersectionExampleScenario.node[3].nic.mac1609_4 	RXTXLostPackets 	0
scalar IntersectionExampleScenario.node[3].nic.mac1609_4 	TotalLostPackets 	0
scalar IntersectionExampleScenario.node[3].nic.mac1609_4 	DroppedPacketsInMac 	0
scalar IntersectionExampleScenario.node[3].nic.mac1609_4 	TooLittleTime 	0
scalar IntersectionExampleScenario.node[3].nic.mac1609_4 	TimesIntoBackoff 	0
scalar IntersectionExampleScenario.node[3].nic.mac1609_4 	SlotsBackoff 	0
scalar IntersectionExampleScenario.node[3].nic.mac1609_4 	NumInternalContention 	0
scalar IntersectionExampleScenario.node[3].nic.mac1609_4 	totalBusyTime 	0
scalar IntersectionExampleScenario.node[3].veinsmobility 	startTime 	21.5
scalar IntersectionExampleScenario.node[3].veinsmobility 	totalTime 	40.75
scalar IntersectionExampleScenario.node[3].veinsmobility 	stopTime 	62.5
scalar IntersectionExampleScenario.node[3].veinsmobility 	minSpeed 	5.6500000953674
scalar IntersectionExampleScenario.node[3].veinsmobility 	maxSpeed 	15.721758842468
scalar IntersectionExampleScenario.node[3].veinsmobility 	totalDistance 	561.13368225098
scalar IntersectionExampleScenario.node[3].veinsmobility 	totalCO2Emission 	130.7597211499
scalar IntersectionExampleScenario.node[5].appl 	VehicleRemoved 	0
scalar IntersectionExampleScenario.node[5].appl 	ArrivedAtDest 	1
scalar IntersectionExampleScenario.node[5].appl 	IntersectionEnterTime 	25.75
scalar IntersectionExampleScenario.node[5].appl 	IntersectionExitTime 	61.545795230631
scalar IntersectionExampleScenario.node[5].appl 	NumberOfCollisions 	0
scalar IntersectionExampleScenario.node[5].nic.phy80211p 	busyTime 	0
scalar IntersectionExampleScenario.node[5].nic.mac1609_4 	ReceivedUnicastPackets 	0
scalar IntersectionExampleScenario.node[5].nic.mac1609_4 	ReceivedBroadcasts 	0
scalar IntersectionExampleScenario.node[5].nic.mac1609_4 	SentPackets 	0
scalar IntersectionExampleScenario.node[5].nic.mac1609_4 	SNIRLostPackets 	0
scalar IntersectionExampleScenario.node[5].nic.mac1609_4 	RXTXLostPackets 	0
scalar IntersectionExampleScenario.node[5].nic.mac1609_4 	TotalLostPackets 	0
scalar IntersectionExampleScenario.node[5].nic.mac1609_4 	DroppedPacketsInMac 	0
scalar IntersectionExampleScenario.node[5].nic.mac1609_4 	TooLittleTime 	0
scalar IntersectionExampleScenario.node[5].nic.mac1609_4 	TimesIntoBackoff 	0
scalar IntersectionExampleScenario.node[5].nic.mac1609_4 	SlotsBackoff 	0
scalar IntersectionExampleScenario.node[5].nic.mac1609_4 	NumInternalContention 	0
scalar IntersectionExampleScenario.node[5].nic.mac1609_4 	totalBusyTime 	0
scalar IntersectionExampleScenario.node[5].veinsmobility 	startTime 	25.75
scalar IntersectionExampleScenario.node[5].veinsmobility 	totalTime 	52
scalar IntersectionExampleScenario.node[5].veinsmobility 	stopTime 	78
scalar IntersectionExampleScenario.node[5].veinsmobility 	minSpeed 	0
scalar IntersectionExampleScenario.node[5].veinsmobility 	maxSpeed 	16.27499961853
scalar IntersectionExampleScenario.node[5].veinsmobility 	totalDistance 	543.92602445037
scalar IntersectionExampleScenario.node[5].veinsmobility 	totalCO2Emission 	150.81042875263
scalar IntersectionExampleScenario.node[4].appl 	VehicleRemoved 	0
scalar IntersectionExampleScenario.node[4].appl 	ArrivedAtDest 	1
scalar IntersectionExampleScenario.node[4].appl 	IntersectionEnterTime 	21.75
scalar IntersectionExampleScenario.node[4].appl 	IntersectionExitTime 	62.286403642502
scalar IntersectionExampleScenario.node[4].appl 	NumberOfCollisions 	0
scalar IntersectionExampleScenario.node[4].nic.phy80211p 	busyTime 	0
scalar IntersectionExampleScenario.node[4].nic.mac1609_4 	ReceivedUnicastPackets 	0
scalar IntersectionExampleScenario.node[4].nic.mac1609_4 	ReceivedBroadcasts 	0
scalar IntersectionExampleScenario.node[4].nic.mac1609_4 	SentPackets 	0
scalar IntersectionExampleScenario.node[4].nic.mac1609_4 	SNIRLostPackets 	0
scalar IntersectionExampleScenario.node[4].nic.mac1609_4 	RXTXLostPackets 	0
scalar IntersectionExampleScenario.node[4].nic.mac1609_4 	TotalLostPackets 	0
scalar IntersectionExampleScenario.node[4].nic.mac1609_4 	DroppedPacketsInMac 	0
scalar IntersectionExampleScenario.node[4].nic.mac1609_4 	TooLittleTime 	0
scalar IntersectionExampleScenario.node[4].nic.mac1609_4 	TimesIntoBackoff 	0
scalar IntersectionExampleScenario.node[4].nic.mac1609_4 	SlotsBackoff 	0
scalar IntersectionExampleScenario.node[4].nic.mac1609_4 	NumInternalContention 	0
scalar IntersectionExampleScenario.node[4].nic.mac1609_4 	totalBusyTime 	0
scalar IntersectionExampleScenario.node[4].veinsmobility 	startTime 	21.75
scalar IntersectionExampleScenario.node[4].veinsmobility 	totalTime 	56.25
scalar IntersectionExampleScenario.node[4].veinsmobility 	stopTime 	78.25
scalar IntersectionExampleScenario.node[4].veinsmobility 	minSpeed 	0
scalar IntersectionExampleScenario.node[4].veinsmobility 	maxSpeed 	16
scalar IntersectionExampleScenario.node[4].veinsmobility 	totalDistance 	554.25534057617
scalar IntersectionExampleScenario.node[4].veinsmobility 	totalCO2Emission 	151.66335248082
scalar IntersectionExampleScenario.node[7].appl 	VehicleRemoved 	0
scalar IntersectionExampleScenario.node[7].appl 	ArrivedAtDest 	1
scalar IntersectionExampleScenario.node[7].appl 	IntersectionEnterTime 	31.75
scalar IntersectionExampleScenario.node[7].appl 	IntersectionExitTime 	63.271315515623
scalar IntersectionExampleScenario.node[7].appl 	NumberOfCollisions 	0
scalar IntersectionExampleScenario.node[7].nic.phy80211p 	busyTime 	0
scalar IntersectionExampleScenario.node[7].nic.mac1609_4 	ReceivedUnicastPackets 	0
scalar IntersectionExampleScenario.node[7].nic.mac1609_4 	ReceivedBroadcasts 	0
scalar IntersectionExampleScenario.node[7].nic.mac1609_4 	SentPackets 	0
scalar IntersectionExampleScenario.node[7].nic.mac1609_4 	SNIRLostPackets 	0
scalar IntersectionExampleScenario.node[7].nic.mac1609_4 	RXTXLostPackets 	0
scalar IntersectionExampleScenario.node[7].nic.mac1609_4 	TotalLostPackets 	0
scalar IntersectionExampleScenario.node[7].nic.mac1609_4 	DroppedPacketsInMac 	0
scalar IntersectionExampleScenario.node[7].nic.mac1609_4 	TooLittleTime 	0
scalar IntersectionExampleScenario.node[7].nic.mac1609_4 	TimesIntoBackoff 	0
scalar IntersectionExampleScenario.node[7].nic.mac1609_4 	SlotsBackoff 	0
scalar IntersectionExampleScenario.node[7].nic.mac1609_4 	NumInternalContention 	0
scalar IntersectionExampleScenario.node[7].nic.mac1609_4 	totalBusyTime 	0
scalar IntersectionExampleScenario.node[7].veinsmobility 	startTime 	31.75
scalar IntersectionExampleScenario.node[7].veinsmobility 	totalTime 	47.75
scalar IntersectionExampleScenario.node[7].veinsmobility 	stopTime 	79.75
scalar IntersectionExampleScenario.node[7].veinsmobility 	minSpeed 	1.5790543556213
scalar IntersectionExampleScenario.node[7].veinsmobility 	maxSpeed 	15.5
scalar IntersectionExampleScenario.node[7].veinsmobility 	totalDistance 	551.82437896729
scalar IntersectionExampleScenario.node[7].veinsmobility 	totalCO2Emission 	134.25197417846
scalar IntersectionExampleScenario.node[6].appl 	VehicleRemoved 	0
scalar IntersectionExampleScenario.node[6].appl 	ArrivedAtDest 	1
scalar IntersectionExampleScenario.node[6].appl 	IntersectionEnterTime 	28.25
scalar IntersectionExampleScenario.node[6].appl 	IntersectionExitTime 	64.814279304526
scalar IntersectionExampleScenario.node[6].appl 	NumberOfCollisions 	0
scalar IntersectionExampleScenario.node[6].nic.phy80211p 	busyTime 	0
scalar IntersectionExampleScenario.node[6].nic.mac1609_4 	ReceivedUnicastPackets 	0
scalar IntersectionExampleScenario.node[6].nic.mac1609_4 	ReceivedBroadcasts 	0
scalar IntersectionExampleScenario.node[6].nic.mac1609_4 	SentPackets 	0
scalar IntersectionExampleScenario.node[6].nic.mac1609_4 	SNIRLostPackets 	0
scalar IntersectionExampleScenario.node[6].nic.mac1609_4 	RXTXLostPackets 	0
scalar IntersectionExampleScenario.node[6].nic.mac1609_4 	TotalLostPackets 	0
scalar IntersectionExampleScenario.node[6].nic.mac1609_4 	DroppedPacketsInMac 	0
scalar IntersectionExampleScenario.node[6].nic.mac1609_4 	TooLittleTime 	0
scalar IntersectionExampleScenario.node[6].nic.mac1609_4 	TimesIntoBackoff 	0
scalar IntersectionExampleScenario.node[6].nic.mac1609_4 	SlotsBackoff 	0
scalar IntersectionExampleScenario.node[6].nic.mac1609_4 	NumInternalContention 	0
scalar IntersectionExampleScenario.node[6].nic.mac1609_4 	totalBusyTime 	0
scalar IntersectionExampleScenario.node[6].veinsmobility 	startTime 	28.25
scalar IntersectionExampleScenario.node[6].veinsmobility 	totalTime 	53.5
scalar IntersectionExampleScenario.node[6].veinsmobility 	stopTime 	82
scalar IntersectionExampleScenario.node[6].veinsmobility 	minSpeed 	0
scalar IntersectionExampleScenario.node[6].veinsmobility 	maxSpeed 	14.39999961853
scalar IntersectionExampleScenario.node[6].veinsmobility 	totalDistance 	551.98388671875
scalar IntersectionExampleScenario.node[6].veinsmobility 	totalCO2Emission 	134.19541539038
scalar IntersectionExampleScenario.node[8].appl 	VehicleRemoved 	0
scalar IntersectionExampleScenario.node[8].appl 	ArrivedAtDest 	1
scalar IntersectionExampleScenario.node[8].appl 	IntersectionEnterTime 	32.25
scalar IntersectionExampleScenario.node[8].appl 	IntersectionExitTime 	66.85104966865
scalar IntersectionExampleScenario.node[8].appl 	NumberOfCollisions 	0
scalar IntersectionExampleScenario.node[8].nic.phy80211p 	busyTime 	0
scalar IntersectionExampleScenario.node[8].nic.mac1609_4 	ReceivedUnicastPackets 	0
scalar IntersectionExampleScenario.node[8].nic.mac1609_4 	ReceivedBroadcasts 	0
scalar IntersectionExampleScenario.node[8].nic.mac1609_4 	SentPackets 	0
scalar IntersectionExampleScenario.node[8].nic.mac1609_4 	SNIRLostPackets 	0
scalar IntersectionExampleScenario.node[8].nic.mac1609_4 	RXTXLostPackets 	0
scalar IntersectionExampleScenario.node[8].nic.mac1609_4 	TotalLostPackets 	0
scalar IntersectionExampleScenario.node[8].nic.mac1609_4 	DroppedPacketsInMac 	0
scalar IntersectionExampleScenario.node[8].nic.mac1609_4 	TooLittleTime 	0
scalar IntersectionExampleScenario.node[8].nic.mac1609_4 	TimesIntoBackoff 	0
scalar IntersectionExampleScenario.node[8].nic.mac1609_4 	SlotsBackoff 	0
scalar IntersectionExampleScenario.node[8].nic.mac1609_4 	NumInternalContention 	0
scalar IntersectionExampleScenario.node[8].nic.mac1609_4 	totalBusyTime 	0
scalar IntersectionExampleScenario.node[8].veinsmobility 	startTime 	32.25
scalar IntersectionExampleScenario.node[8].veinsmobility 	totalTime 	50.75
scalar IntersectionExampleScenario.node[8].veinsmobility 	stopTime 	83.25
scalar IntersectionExampleScenario.node[8].veinsmobility 	minSpeed 	2.4525506496429
scalar IntersectionExampleScenario.node[8].veinsmobility 	maxSpeed 	16.218050003052
scalar IntersectionExampleScenario.node[8].veinsmobility 	totalDistance 	558.43949890137
scalar IntersectionExampleScenario.node[8].veinsmobility 	totalCO2Emission 	148.96423467568
scalar IntersectionExampleScenario.node[10].appl 	VehicleRemoved 	0
scalar IntersectionExampleScenario.node[10].appl 	ArrivedAtDest 	1
scalar IntersectionExampleScenario.node[10].appl 	IntersectionEnterTime 	41.75
scalar IntersectionExampleScenario.node[10].appl 	IntersectionExitTime 	69.0216705809
scalar IntersectionExampleScenario.node[10].appl 	NumberOfCollisions 	0
scalar IntersectionExampleScenario.node[10].nic.phy80211p 	busyTime 	0
scalar IntersectionExampleScenario.node[10].nic.mac1609_4 	ReceivedUnicastPackets 	0
scalar IntersectionExampleScenario.node[10].nic.mac1609_4 	ReceivedBroadcasts 	0
scalar IntersectionExampleScenario.node[10].nic.mac1609_4 	SentPackets 	0
scalar IntersectionExampleScenario.node[10].nic.mac1609_4 	SNIRLostPackets 	0
scalar IntersectionExampleScenario.node[10].nic.mac1609_4 	RXTXLostPackets 	0
scalar IntersectionExampleScenario.node[10].nic.mac1609_4 	TotalLostPackets 	0
scalar IntersectionExampleScenario.node[10].nic.mac1609_4 	DroppedPacketsInMac 	0
scalar IntersectionExampleScenario.node[10].nic.mac1609_4 	TooLittleTime 	0
scalar IntersectionExampleScenario.node[10].nic.mac1609_4 	TimesIntoBackoff 	0
scalar IntersectionExampleScenario.node[10].nic.mac1609_4 	SlotsBackoff 	0
scalar IntersectionExampleScenario.node[10].nic.mac1609_4 	NumInternalContention 	0
scalar IntersectionExampleScenario.node[10].nic.mac1609_4 	totalBusyTime 	0
scalar IntersectionExampleScenario.node[10].veinsmobility 	startTime 	41.75
scalar IntersectionExampleScenario.node[10].veinsmobility 	totalTime 	43.5
scalar IntersectionExampleScenario.node[10].veinsmobility 	stopTime 	85.5
scalar IntersectionExampleScenario.node[10].veinsmobility 	minSpeed 	5.6500000953674
scalar IntersectionExampleScenario.node[10].veinsmobility 	maxSpeed 	15.128066062927
scalar IntersectionExampleScenario.node[10].veinsmobility 	totalDistance 	553.94741821289
scalar IntersectionExampleScenario.node[10].veinsmobility 	totalCO2Emission 	124.20025613396
scalar IntersectionExampleScenario.node[12].appl 	VehicleRemoved 	0
scalar IntersectionExampleScenario.node[12].appl 	ArrivedAtDest 	1
scalar IntersectionExampleScenario.node[12].appl 	IntersectionEnterTime 	49
scalar IntersectionExampleScenario.node[12].appl 	IntersectionExitTime 	72.105285596597
scalar IntersectionExampleScenario.node[12].appl 	NumberOfCollisions 	0
scalar IntersectionExampleScenario.node[12].nic.phy80211p 	busyTime 	0
scalar IntersectionExampleScenario.node[12].nic.mac1609_4 	ReceivedUnicastPackets 	0
scalar IntersectionExampleScenario.node[12].nic.mac1609_4 	ReceivedBroadcasts 	0
scalar IntersectionExampleScenario.node[12].nic.mac1609_4 	SentPackets 	0
scalar IntersectionExampleScenario.node[12].nic.mac1609_4 	SNIRLostPackets 	0
scalar IntersectionExampleScenario.node[12].nic.mac1609_4 	RXTXLostPackets 	0
scalar IntersectionExampleScenario.node[12].nic.mac1609_4 	TotalLostPackets 	0
scalar IntersectionExampleScenario.node[12].nic.mac1609_4 	DroppedPacketsInMac 	0
scalar IntersectionExampleScenario.node[12].nic.mac1609_4 	TooLittleTime 	0
scalar IntersectionExampleScenario.node[12].nic.mac1609_4 	TimesIntoBackoff 	0
scalar IntersectionExampleScenario.node[12].nic.mac1609_4 	SlotsBackoff 	0
scalar IntersectionExampleScenario.node[12].nic.mac1609_4 	NumInternalContention 	0
scalar IntersectionExampleScenario.node[12].nic.mac1609_4 	totalBusyTime 	0
scalar IntersectionExampleScenario.node[12].veinsmobility 	startTime 	49
scalar IntersectionExampleScenario.node[12].veinsmobility 	totalTime 	39.25
scalar IntersectionExampleScenario.node[12].veinsmobility 	stopTime 	88.5
scalar IntersectionExampleScenario.node[12].veinsmobility 	minSpeed 	5.6500000953674
scalar IntersectionExampleScenario.node[12].veinsmobility 	maxSpeed 	16.27499961853
scalar IntersectionExampleScenario.node[12].veinsmobility 	totalDistance 	543.07850254447
scalar IntersectionExampleScenario.node[12].veinsmobility 	totalCO2Emission 	129.34458986412
scalar IntersectionExampleScenario.node[15].appl 	VehicleRemoved 	0
scalar IntersectionExampleScenario.node[15].appl 	ArrivedAtDest 	1
scalar IntersectionExampleScenario.node[15].appl 	IntersectionEnterTime 	54.25
scalar IntersectionExampleScenario.node[15].appl 	IntersectionExitTime 	74.573343896045
scalar IntersectionExampleScenario.node[15].appl 	NumberOfCollisions 	0
scalar IntersectionExampleScenario.node[15].nic.phy80211p 	busyTime 	0
scalar IntersectionExampleScenario.node[15].nic.mac1609_4 	ReceivedUnicastPackets 	0
scalar IntersectionExampleScenario.node[15].nic.mac1609_4 	ReceivedBroadcasts 	0
scalar IntersectionExampleScenario.node[15].nic.mac1609_4 	SentPackets 	0
scalar IntersectionExampleScenario.node[15].nic.mac1609_4 	SNIRLostPackets 	0
scalar IntersectionExampleScenario.node[15].nic.mac1609_4 	RXTXLostPackets 	0
scalar IntersectionExampleScenario.node[15].nic.mac1609_4 	TotalLostPackets 	0
scalar IntersectionExampleScenario.node[15].nic.mac1609_4 	DroppedPacketsInMac 	0
scalar IntersectionExampleScenario.node[15].nic.mac1609_4 	TooLittleTime 	0
scalar IntersectionExampleScenario.node[15].nic.mac1609_4 	TimesIntoBackoff 	0
scalar IntersectionExampleScenario.node[15].nic.mac1609_4 	SlotsBackoff 	0
scalar IntersectionExampleScenario.node[15].nic.mac1609_4 	NumInternalContention 	0
scalar IntersectionExampleScenario.node[15].nic.mac1609_4 	totalBusyTime 	0
scalar IntersectionExampleScenario.node[15].veinsmobility 	startTime 	54.25
scalar IntersectionExampleScenario.node[15].veinsmobility 	totalTime 	35.75
scalar IntersectionExampleScenario.node[15].veinsmobility 	stopTime 	90.25
scalar IntersectionExampleScenario.node[15].veinsmobility 	minSpeed 	5.6500000953674
scalar IntersectionExampleScenario.node[15].veinsmobility 	maxSpeed 	16.27499961853
scalar IntersectionExampleScenario.node[15].veinsmobility 	totalDistance 	522.73699188232
scalar IntersectionExampleScenario.node[15].veinsmobility 	totalCO2Emission 	123.86408087222
scalar IntersectionExampleScenario.node[13].appl 	VehicleRemoved 	0
scalar IntersectionExampleScenario.node[13].appl 	ArrivedAtDest 	1
scalar IntersectionExampleScenario.node[13].appl 	IntersectionEnterTime 	50.75
scalar IntersectionExampleScenario.node[13].appl 	IntersectionExitTime 	78.090908999497
scalar IntersectionExampleScenario.node[13].appl 	NumberOfCollisions 	0
scalar IntersectionExampleScenario.node[13].nic.phy80211p 	busyTime 	0
scalar IntersectionExampleScenario.node[13].nic.mac1609_4 	ReceivedUnicastPackets 	0
scalar IntersectionExampleScenario.node[13].nic.mac1609_4 	ReceivedBroadcasts 	0
scalar IntersectionExampleScenario.node[13].nic.mac1609_4 	SentPackets 	0
scalar IntersectionExampleScenario.node[13].nic.mac1609_4 	SNIRLostPackets 	0
scalar IntersectionExampleScenario.node[13].nic.mac1609_4 	RXTXLostPackets 	0
scalar IntersectionExampleScenario.node[13].nic.mac1609_4 	TotalLostPackets 	0
scalar IntersectionExampleScenario.node[13].nic.mac1609_4 	DroppedPacketsInMac 	0
scalar IntersectionExampleScenario.node[13].nic.mac1609_4 	TooLittleTime 	0
scalar IntersectionExampleScenario.node[13].nic.mac1609_4 	TimesIntoBackoff 	0
scalar IntersectionExampleScenario.node[13].nic.mac1609_4 	SlotsBackoff 	0
scalar IntersectionExampleScenario.node[13].nic.mac1609_4 	NumInternalContention 	0
scalar IntersectionExampleScenario.node[13].nic.mac1609_4 	totalBusyTime 	0
scalar IntersectionExampleScenario.node[13].veinsmobility 	startTime 	50.75
scalar IntersectionExampleScenario.node[13].veinsmobility 	totalTime 	44.5
scalar IntersectionExampleScenario.node[13].veinsmobility 	stopTime 	95.5
scalar IntersectionExampleScenario.node[13].veinsmobility 	minSpeed 	5.6500000953674
scalar IntersectionExampleScenario.node[13].veinsmobility 	maxSpeed 	14.75
scalar IntersectionExampleScenario.node[13].veinsmobility 	totalDistance 	569.4162637324
scalar IntersectionExampleScenario.node[13].veinsmobility 	totalCO2Emission 	136.46497711834
scalar IntersectionExampleScenario.node[14].appl 	VehicleRemoved 	0
scalar IntersectionExampleScenario.node[14].appl 	ArrivedAtDest 	1
scalar IntersectionExampleScenario.node[14].appl 	IntersectionEnterTime 	52.5
scalar IntersectionExampleScenario.node[14].appl 	IntersectionExitTime 	79.620146503585
scalar IntersectionExampleScenario.node[14].appl 	NumberOfCollisions 	0
scalar IntersectionExampleScenario.node[14].nic.phy80211p 	busyTime 	0
scalar IntersectionExampleScenario.node[14].nic.mac1609_4 	ReceivedUnicastPackets 	0
scalar IntersectionExampleScenario.node[14].nic.mac1609_4 	ReceivedBroadcasts 	0
scalar IntersectionExampleScenario.node[14].nic.mac1609_4 	SentPackets 	0
scalar IntersectionExampleScenario.node[14].nic.mac1609_4 	SNIRLostPackets 	0
scalar IntersectionExampleScenario.node[14].nic.mac1609_4 	RXTXLostPackets 	0
scalar IntersectionExampleScenario.node[14].nic.mac1609_4 	TotalLostPackets 	0
scalar IntersectionExampleScenario.node[14].nic.mac1609_4 	DroppedPacketsInMac 	0
scalar IntersectionExampleScenario.node[14].nic.mac1609_4 	TooLittleTime 	0
scalar IntersectionExampleScenario.node[14].nic.mac1609_4 	TimesIntoBackoff 	0
scalar IntersectionExampleScenario.node[14].nic.mac1609_4 	SlotsBackoff 	0
scalar IntersectionExampleScenario.node[14].nic.mac1609_4 	NumInternalContention 	0
scalar IntersectionExampleScenario.node[14].nic.mac1609_4 	totalBusyTime 	0
scalar IntersectionExampleScenario.node[14].veinsmobility 	startTime 	52.5
scalar IntersectionExampleScenario.node[14].veinsmobility 	totalTime 	43.25
scalar IntersectionExampleScenario.node[14].veinsmobility 	stopTime 	96
scalar IntersectionExampleScenario.node[14].veinsmobility 	minSpeed 	5.6500000953674
scalar IntersectionExampleScenario.node[14].veinsmobility 	maxSpeed 	15.5
scalar IntersectionExampleScenario.node[14].veinsmobility 	totalDistance 	581.13056182861
scalar IntersectionExampleScenario.node[14].veinsmobility 	totalCO2Emission 	127.41149720424
scalar IntersectionExampleScenario.node[11].appl 	VehicleRemoved 	0
scalar IntersectionExampleScenario.node[11].appl 	ArrivedAtDest 	1
scalar IntersectionExampleScenario.node[11].appl 	IntersectionEnterTime 	43.75
scalar IntersectionExampleScenario.node[11].appl 	IntersectionExitTime 	81.553144484671
scalar IntersectionExampleScenario.node[11].appl 	NumberOfCollisions 	0
scalar IntersectionExampleScenario.node[11].nic.phy80211p 	busyTime 	0
scalar IntersectionExampleScenario.node[11].nic.mac1609_4 	ReceivedUnicastPackets 	0
scalar IntersectionExampleScenario.node[11].nic.mac1609_4 	ReceivedBroadcasts 	0
scalar IntersectionExampleScenario.node[11].nic.mac1609_4 	SentPackets 	0
scalar IntersectionExampleScenario.node[11].nic.mac1609_4 	SNIRLostPackets 	0
scalar IntersectionExampleScenario.node[11].nic.mac1609_4 	RXTXLostPackets 	0
scalar IntersectionExampleScenario.node[11].nic.mac1609_4 	TotalLostPackets 	0
scalar IntersectionExampleScenario.node[11].nic.mac1609_4 	DroppedPacketsInMac 	0
scalar IntersectionExampleScenario.node[11].nic.mac1609_4 	TooLittleTime 	0
scalar IntersectionExampleScenario.node[11].nic.mac1609_4 	TimesIntoBackoff 	0
scalar IntersectionExampleScenario.node[11].nic.mac1609_4 	SlotsBackoff 	0
scalar IntersectionExampleScenario.node[11].nic.mac1609_4 	NumInternalContention 	0
scalar IntersectionExampleScenario.node[11].nic.mac1609_4 	totalBusyTime 	0
scalar IntersectionExampleScenario.node[11].veinsmobility 	startTime 	43.75
scalar IntersectionExampleScenario.node[11].veinsmobility 	totalTime 	54
scalar IntersectionExampleScenario.node[11].veinsmobility 	stopTime 	98
scalar IntersectionExampleScenario.node[11].veinsmobility 	minSpeed 	0
scalar IntersectionExampleScenario.node[11].veinsmobility 	maxSpeed 	16.27499961853
scalar IntersectionExampleScenario.node[11].veinsmobility 	totalDistance 	544.91753293425
scalar IntersectionExampleScenario.node[11].veinsmobility 	totalCO2Emission 	153.62941378008
scalar IntersectionExampleScenario.node[9].appl 	VehicleRemoved 	0
scalar IntersectionExampleScenario.node[9].appl 	ArrivedAtDest 	1
scalar IntersectionExampleScenario.node[9].appl 	IntersectionEnterTime 	38.25
scalar IntersectionExampleScenario.node[9].appl 	IntersectionExitTime 	82.305019061489
scalar IntersectionExampleScenario.node[9].appl 	NumberOfCollisions 	0
scalar IntersectionExampleScenario.node[9].nic.phy80211p 	busyTime 	0
scalar IntersectionExampleScenario.node[9].nic.mac1609_4 	ReceivedUnicastPackets 	0
scalar IntersectionExampleScenario.node[9].nic.mac1609_4 	ReceivedBroadcasts 	0
scalar IntersectionExampleScenario.node[9].nic.mac1609_4 	SentPackets 	0
scalar IntersectionExampleScenario.node[9].nic.mac1609_4 	SNIRLostPackets 	0
scalar IntersectionExampleScenario.node[9].nic.mac1609_4 	RXTXLostPackets 	0
scalar IntersectionExampleScenario.node[9].nic.mac1609_4 	TotalLostPackets 	0
scalar IntersectionExampleScenario.node[9].nic.mac1609_4 	DroppedPacketsInMac 	0
scalar IntersectionExampleScenario.node[9].nic.mac1609_4 	TooLittleTime 	0
scalar IntersectionExampleScenario.node[9].nic.mac1609_4 	TimesIntoBackoff 	0
scalar IntersectionExampleScenario.node[9].nic.mac1609_4 	SlotsBackoff 	0
scalar IntersectionExampleScenario.node[9].nic.mac1609_4 	NumInternalContention 	0
scalar IntersectionExampleScenario.node[9].nic.mac1609_4 	totalBusyTime 	0
scalar IntersectionExampleScenario.node[9].veinsmobility 	startTime 	38.25
scalar IntersectionExampleScenario.node[9].veinsmobility 	totalTime 	60.5
scalar IntersectionExampleScenario.node[9].veinsmobility 	stopTime 	99
scalar IntersectionExampleScenario.node[9].veinsmobility 	minSpeed 	0
scalar IntersectionExampleScenario.node[9].veinsmobility 	maxSpeed 	15.02499961853
scalar IntersectionExampleScenario.node[9].veinsmobility 	totalDistance 	551.7727432251
scalar IntersectionExampleScenario.node[9].veinsmobility 	totalCO2Emission 	149.63092659234
scalar IntersectionExampleScenario.node[19].appl 	VehicleRemoved 	0
scalar IntersectionExampleScenario.node[19].appl 	ArrivedAtDest 	1
scalar IntersectionExampleScenario.node[19].appl 	IntersectionEnterTime 	61.25
scalar IntersectionExampleScenario.node[19].appl 	IntersectionExitTime 	86.081384628807
scalar IntersectionExampleScenario.node[19].appl 	NumberOfCollisions 	0
scalar IntersectionExampleScenario.node[19].nic.phy80211p 	busyTime 	0
scalar IntersectionExampleScenario.node[19].nic.mac1609_4 	ReceivedUnicastPackets 	0
scalar IntersectionExampleScenario.node[19].nic.mac1609_4 	ReceivedBroadcasts 	0
scalar IntersectionExampleScenario.node[19].nic.mac1609_4 	SentPackets 	0
scalar IntersectionExampleScenario.node[19].nic.mac1609_4 	SNIRLostPackets 	0
scalar IntersectionExampleScenario.node[19].nic.mac1609_4 	RXTXLostPackets 	0
scalar IntersectionExampleScenario.node[19].nic.mac1609_4 	TotalLostPackets 	0
scalar IntersectionExampleScenario.node[19].nic.mac1609_4 	DroppedPacketsInMac 	0
scalar IntersectionExampleScenario.node[19].nic.mac1609_4 	TooLittleTime 	0
scalar IntersectionExampleScenario.node[19].nic.mac1609_4 	TimesIntoBackoff 	0
scalar IntersectionExampleScenario.node[19].nic.mac1609_4 	SlotsBackoff 	0
scalar IntersectionExampleScenario.node[19].nic.mac1609_4 	NumInternalContention 	0
scalar IntersectionExampleScenario.node[19].nic.mac1609_4 	totalBusyTime 	0
scalar IntersectionExampleScenario.node[19].veinsmobility 	startTime 	61.25
scalar IntersectionExampleScenario.node[19].veinsmobility 	totalTime 	42
scalar IntersectionExampleScenario.node[19].veinsmobility 	stopTime 	103.5
scalar IntersectionExampleScenario.node[19].veinsmobility 	minSpeed 	5.6500000953674
scalar IntersectionExampleScenario.node[19].veinsmobility 	maxSpeed 	15.200531005859
scalar IntersectionExampleScenario.node[19].veinsmobility 	totalDistance 	543.74155300672
scalar IntersectionExampleScenario.node[19].veinsmobility 	totalCO2Emission 	135.03983841964
scalar IntersectionExampleScenario.node[22].appl 	VehicleRemoved 	0
scalar IntersectionExampleScenario.node[22].appl 	ArrivedAtDest 	1
scalar IntersectionExampleScenario.node[22].appl 	IntersectionEnterTime 	67.25
scalar IntersectionExampleScenario.node[22].appl 	IntersectionExitTime 	91.264949279954
scalar IntersectionExampleScenario.node[22].appl 	NumberOfCollisions 	0
scalar IntersectionExampleScenario.node[22].nic.phy80211p 	busyTime 	0
scalar IntersectionExampleScenario.node[22].nic.mac1609_4 	ReceivedUnicastPackets 	0
scalar IntersectionExampleScenario.node[22].nic.mac1609_4 	ReceivedBroadcasts 	0
scalar IntersectionExampleScenario.node[22].nic.mac1609_4 	SentPackets 	0
scalar IntersectionExampleScenario.node[22].nic.mac1609_4 	SNIRLostPackets 	0
scalar IntersectionExampleScenario.node[22].nic.mac1609_4 	RXTXLostPackets 	0
scalar IntersectionExampleScenario.node[22].nic.mac1609_4 	TotalLostPackets 	0
scalar IntersectionExampleScenario.node[22].nic.mac1609_4 	DroppedPacketsInMac 	0
scalar IntersectionExampleScenario.node[22].nic.mac1609_4 	TooLittleTime 	0
scalar IntersectionExampleScenario.node[22].nic.mac1609_4 	TimesIntoBackoff 	0
scalar IntersectionExampleScenario.node[22].nic.mac1609_4 	SlotsBackoff 	0
scalar IntersectionExampleScenario.node[22].nic.mac1609_4 	NumInternalContention 	0
scalar IntersectionExampleScenario.node[22].nic.mac1609_4 	totalBusyTime 	0
scalar IntersectionExampleScenario.node[22].veinsmobility 	startTime 	67.25
scalar IntersectionExampleScenario.node[22].veinsmobility 	totalTime 	39
scalar IntersectionExampleScenario.node[22].veinsmobility 	stopTime 	106.5
scalar IntersectionExampleScenario.node[22].veinsmobility 	minSpeed 	5.6500000953674
scalar IntersectionExampleScenario.node[22].veinsmobility 	maxSpeed 	16.75
scalar IntersectionExampleScenario.node[22].veinsmobility 	totalDistance 	571.27848815918
scalar IntersectionExampleScenario.node[22].veinsmobility 	totalCO2Emission 	131.57915652524
scalar IntersectionExampleScenario.node[23].appl 	VehicleRemoved 	0
scalar IntersectionExampleScenario.node[23].appl 	ArrivedAtDest 	1
scalar IntersectionExampleScenario.node[23].appl 	IntersectionEnterTime 	68.25
scalar IntersectionExampleScenario.node[23].appl 	IntersectionExitTime 	91.096370898129
scalar IntersectionExampleScenario.node[23].appl 	NumberOfCollisions 	0
scalar IntersectionExampleScenario.node[23].nic.phy80211p 	busyTime 	0
scalar IntersectionExampleScenario.node[23].nic.mac1609_4 	ReceivedUnicastPackets 	0
scalar IntersectionExampleScenario.node[23].nic.mac1609_4 	ReceivedBroadcasts 	0
scalar IntersectionExampleScenario.node[23].nic.mac1609_4 	SentPackets 	0
scalar IntersectionExampleScenario.node[23].nic.mac1609_4 	SNIRLostPackets 	0
scalar IntersectionExampleScenario.node[23].nic.mac1609_4 	RXTXLostPackets 	0
scalar IntersectionExampleScenario.node[23].nic.mac1609_4 	TotalLostPackets 	0
scalar IntersectionExampleScenario.node[23].nic.mac1609_4 	DroppedPacketsInMac 	0
scalar IntersectionExampleScenario.node[23].nic.mac1609_4 	TooLittleTime 	0
scalar IntersectionExampleScenario.node[23].nic.mac1609_4 	TimesIntoBackoff 	0
scalar IntersectionExampleScenario.node[23].nic.mac1609_4 	SlotsBackoff 	0
scalar IntersectionExampleScenario.node[23].nic.mac1609_4 	NumInternalContention 	0
scalar IntersectionExampleScenario.node[23].nic.mac1609_4 	totalBusyTime 	0
scalar IntersectionExampleScenario.node[23].veinsmobility 	startTime 	68.25
scalar IntersectionExampleScenario.node[23].veinsmobility 	totalTime 	38.75
scalar IntersectionExampleScenario.node[23].veinsmobility 	stopTime 	107.25
scalar IntersectionExampleScenario.node[23].veinsmobility 	minSpeed 	5.6500000953674
scalar IntersectionExampleScenario.node[23].veinsmobility 	maxSpeed 	16.5
scalar IntersectionExampleScenario.node[23].veinsmobility 	totalDistance 	544.3445203391
scalar IntersectionExampleScenario.node[23].veinsmobility 	totalCO2Emission 	131.78589207283
scalar IntersectionExampleScenario.node[21].appl 	VehicleRemoved 	0
scalar IntersectionExampleScenario.node[21].appl 	ArrivedAtDest 	1
scalar IntersectionExampleScenario.node[21].appl 	IntersectionEnterTime 	64.5
scalar IntersectionExampleScenario.node[21].appl 	IntersectionExitTime 	90.0912007718
scalar IntersectionExampleScenario.node[21].appl 	NumberOfCollisions 	0
scalar IntersectionExampleScenario.node[21].nic.phy80211p 	busyTime 	0
scalar IntersectionExampleScenario.node[21].nic.mac1609_4 	ReceivedUnicastPackets 	0
scalar IntersectionExampleScenario.node[21].nic.mac1609_4 	ReceivedBroadcasts 	0
scalar IntersectionExampleScenario.node[21].nic.mac1609_4 	SentPackets 	0
scalar IntersectionExampleScenario.node[21].nic.mac1609_4 	SNIRLostPackets 	0
scalar IntersectionExampleScenario.node[21].nic.mac1609_4 	RXTXLostPackets 	0
scalar IntersectionExampleScenario.node[21].nic.mac1609_4 	TotalLostPackets 	0
scalar IntersectionExampleScenario.node[21].nic.mac1609_4 	DroppedPacketsInMac 	0
scalar IntersectionExampleScenario.node[21].nic.mac1609_4 	TooLittleTime 	0
scalar IntersectionExampleScenario.node[21].nic.mac1609_4 	TimesIntoBackoff 	0
scalar IntersectionExampleScenario.node[21].nic.mac1609_4 	SlotsBackoff 	0
scalar IntersectionExampleScenario.node[21].nic.mac1609_4 	NumInternalContention 	0
scalar IntersectionExampleScenario.node[21].nic.mac1609_4 	totalBusyTime 	0
scalar IntersectionExampleScenario.node[21].veinsmobility 	startTime 	64.5
scalar IntersectionExampleScenario.node[21].veinsmobility 	totalTime 	43.25
scalar IntersectionExampleScenario.node[21].veinsmobility 	stopTime 	108
scalar IntersectionExampleScenario.node[21].veinsmobility 	minSpeed 	5.6500000953674
scalar IntersectionExampleScenario.node[21].veinsmobility 	maxSpeed 	14.625
scalar IntersectionExampleScenario.node[21].veinsmobility 	totalDistance 	557.9198228234
scalar IntersectionExampleScenario.node[21].veinsmobility 	totalCO2Emission 	121.30284988168
scalar IntersectionExampleScenario.node[24].appl 	VehicleRemoved 	0
scalar IntersectionExampleScenario.node[24].appl 	ArrivedAtDest 	1
scalar IntersectionExampleScenario.node[24].appl 	IntersectionEnterTime 	70.75
scalar IntersectionExampleScenario.node[24].appl 	IntersectionExitTime 	95.253177390696
scalar IntersectionExampleScenario.node[24].appl 	NumberOfCollisions 	0
scalar IntersectionExampleScenario.node[24].nic.phy80211p 	busyTime 	0
scalar IntersectionExampleScenario.node[24].nic.mac1609_4 	ReceivedUnicastPackets 	0
scalar IntersectionExampleScenario.node[24].nic.mac1609_4 	ReceivedBroadcasts 	0
scalar IntersectionExampleScenario.node[24].nic.mac1609_4 	SentPackets 	0
scalar IntersectionExampleScenario.node[24].nic.mac1609_4 	SNIRLostPackets 	0
scalar IntersectionExampleScenario.node[24].nic.mac1609_4 	RXTXLostPackets 	0
scalar IntersectionExampleScenario.node[24].nic.mac1609_4 	TotalLostPackets 	0
scalar IntersectionExampleScenario.node[24].nic.mac1609_4 	DroppedPacketsInMac 	0
scalar IntersectionExampleScenario.node[24].nic.mac1609_4 	TooLittleTime 	0
scalar IntersectionExampleScenario.node[24].nic.mac1609_4 	TimesIntoBackoff 	0
scalar IntersectionExampleScenario.node[24].nic.mac1609_4 	SlotsBackoff 	0
scalar IntersectionExampleScenario.node[24].nic.mac1609_4 	NumInternalContention 	0
scalar IntersectionExampleScenario.node[24].nic.mac1609_4 	totalBusyTime 	0
scalar IntersectionExampleScenario.node[24].veinsmobility 	startTime 	70.75
scalar IntersectionExampleScenario.node[24].veinsmobility 	totalTime 	41.25
scalar IntersectionExampleScenario.node[24].veinsmobility 	stopTime 	112.25
scalar IntersectionExampleScenario.node[24].veinsmobility 	minSpeed 	5.6500000953674
scalar IntersectionExampleScenario.node[24].veinsmobility 	maxSpeed 	15.02499961853
scalar IntersectionExampleScenario.node[24].veinsmobility 	totalDistance 	568.37840270996
scalar IntersectionExampleScenario.node[24].veinsmobility 	totalCO2Emission 	115.80475481842
scalar IntersectionExampleScenario.node[28].appl 	VehicleRemoved 	0
scalar IntersectionExampleScenario.node[28].appl 	ArrivedAtDest 	1
scalar IntersectionExampleScenario.node[28].appl 	IntersectionEnterTime 	75.25
scalar IntersectionExampleScenario.node[28].appl 	IntersectionExitTime 	98.829175470164
scalar IntersectionExampleScenario.node[28].appl 	NumberOfCollisions 	0
scalar IntersectionExampleScenario.node[28].nic.phy80211p 	busyTime 	0
scalar IntersectionExampleScenario.node[28].nic.mac1609_4 	ReceivedUnicastPackets 	0
scalar IntersectionExampleScenario.node[28].nic.mac1609_4 	ReceivedBroadcasts 	0
scalar IntersectionExampleScenario.node[28].nic.mac1609_4 	SentPackets 	0
scalar IntersectionExampleScenario.node[28].nic.mac1609_4 	SNIRLostPackets 	0
scalar IntersectionExampleScenario.node[28].nic.mac1609_4 	RXTXLostPackets 	0
scalar IntersectionExampleScenario.node[28].nic.mac1609_4 	TotalLostPackets 	0
scalar IntersectionExampleScenario.node[28].nic.mac1609_4 	DroppedPacketsInMac 	0
scalar IntersectionExampleScenario.node[28].nic.mac1609_4 	TooLittleTime 	0
scalar IntersectionExampleScenario.node[28].nic.mac1609_4 	TimesIntoBackoff 	0
scalar IntersectionExampleScenario.node[28].nic.mac1609_4 	SlotsBackoff 	0
scalar IntersectionExampleScenario.node[28].nic.mac1609_4 	NumInternalContention 	0
scalar IntersectionExampleScenario.node[28].nic.mac1609_4 	totalBusyTime 	0
scalar IntersectionExampleScenario.node[28].veinsmobility 	startTime 	75.25
scalar IntersectionExampleScenario.node[28].veinsmobility 	totalTime 	40.25
scalar IntersectionExampleScenario.node[28].veinsmobility 	stopTime 	115.75
scalar IntersectionExampleScenario.node[28].veinsmobility 	minSpeed 	5.6500000953674
scalar IntersectionExampleScenario.node[28].veinsmobility 	maxSpeed 	15.64999961853
scalar IntersectionExampleScenario.node[28].veinsmobility 	totalDistance 	546.01267061135
scalar IntersectionExampleScenario.node[28].veinsmobility 	totalCO2Emission 	126.68900605945
scalar IntersectionExampleScenario.node[17].appl 	VehicleRemoved 	0
scalar IntersectionExampleScenario.node[17].appl 	ArrivedAtDest 	1
scalar IntersectionExampleScenario.node[17].appl 	IntersectionEnterTime 	59.75
scalar IntersectionExampleScenario.node[17].appl 	IntersectionExitTime 	100.54936018959
scalar IntersectionExampleScenario.node[17].appl 	NumberOfCollisions 	0
scalar IntersectionExampleScenario.node[17].nic.phy80211p 	busyTime 	0
scalar IntersectionExampleScenario.node[17].nic.mac1609_4 	ReceivedUnicastPackets 	0
scalar IntersectionExampleScenario.node[17].nic.mac1609_4 	ReceivedBroadcasts 	0
scalar IntersectionExampleScenario.node[17].nic.mac1609_4 	SentPackets 	0
scalar IntersectionExampleScenario.node[17].nic.mac1609_4 	SNIRLostPackets 	0
scalar IntersectionExampleScenario.node[17].nic.mac1609_4 	RXTXLostPackets 	0
scalar IntersectionExampleScenario.node[17].nic.mac1609_4 	TotalLostPackets 	0
scalar IntersectionExampleScenario.node[17].nic.mac1609_4 	DroppedPacketsInMac 	0
scalar IntersectionExampleScenario.node[17].nic.mac1609_4 	TooLittleTime 	0
scalar IntersectionExampleScenario.node[17].nic.mac1609_4 	TimesIntoBackoff 	0
scalar IntersectionExampleScenario.node[17].nic.mac1609_4 	SlotsBackoff 	0
scalar IntersectionExampleScenario.node[17].nic.mac1609_4 	NumInternalContention 	0
scalar IntersectionExampleScenario.node[17].nic.mac1609_4 	totalBusyTime 	0
scalar IntersectionExampleScenario.node[17].veinsmobility 	startTime 	59.75
scalar IntersectionExampleScenario.node[17].veinsmobility 	totalTime 	57
scalar IntersectionExampleScenario.node[17].veinsmobility 	stopTime 	117
scalar IntersectionExampleScenario.node[17].veinsmobility 	minSpeed 	0
scalar IntersectionExampleScenario.node[17].veinsmobility 	maxSpeed 	16.154155731201
scalar IntersectionExampleScenario.node[17].veinsmobility 	totalDistance 	550.28463651091
scalar IntersectionExampleScenario.node[17].veinsmobility 	totalCO2Emission 	155.86540652427
scalar IntersectionExampleScenario.node[16].appl 	VehicleRemoved 	0
scalar IntersectionExampleScenario.node[16].appl 	ArrivedAtDest 	1
scalar IntersectionExampleScenario.node[16].appl 	IntersectionEnterTime 	57.75
scalar IntersectionExampleScenario.node[16].appl 	IntersectionExitTime 	101.53703418828
scalar IntersectionExampleScenario.node[16].appl 	NumberOfCollisions 	0
scalar IntersectionExampleScenario.node[16].nic.phy80211p 	busyTime 	0
scalar IntersectionExampleScenario.node[16].nic.mac1609_4 	ReceivedUnicastPackets 	0
scalar IntersectionExampleScenario.node[16].nic.mac1609_4 	ReceivedBroadcasts 	0
scalar IntersectionExampleScenario.node[16].nic.mac1609_4 	SentPackets 	0
scalar IntersectionExampleScenario.node[16].nic.mac1609_4 	SNIRLostPackets 	0
scalar IntersectionExampleScenario.node[16].nic.mac1609_4 	RXTXLostPackets 	0
scalar IntersectionExampleScenario.node[16].nic.mac1609_4 	TotalLostPackets 	0
scalar IntersectionExampleScenario.node[16].nic.mac1609_4 	DroppedPacketsInMac 	0
scalar IntersectionExampleScenario.node[16].nic.mac1609_4 	TooLittleTime 	0
scalar IntersectionExampleScenario.node[16].nic.mac1609_4 	TimesIntoBackoff 	0
scalar IntersectionExampleScenario.node[16].nic.mac1609_4 	SlotsBackoff 	0
scalar IntersectionExampleScenario.node[16].nic.mac1609_4 	NumInternalContention 	0
scalar IntersectionExampleScenario.node[16].nic.mac1609_4 	totalBusyTime 	0
scalar IntersectionExampleScenario.node[16].veinsmobility 	startTime 	57.75
scalar IntersectionExampleScenario.node[16].veinsmobility 	totalTime 	60
scalar IntersectionExampleScenario.node[16].veinsmobility 	stopTime 	118
scalar IntersectionExampleScenario.node[16].veinsmobility 	minSpeed 	0
scalar IntersectionExampleScenario.node[16].veinsmobility 	maxSpeed 	15.309178352356
scalar IntersectionExampleScenario.node[16].veinsmobility 	totalDistance 	553.85108947754
scalar IntersectionExampleScenario.node[16].veinsmobility 	totalCO2Emission 	151.72482804729
scalar IntersectionExampleScenario.node[20].appl 	VehicleRemoved 	0
scalar IntersectionExampleScenario.node[20].appl 	ArrivedAtDest 	1
scalar IntersectionExampleScenario.node[20].appl 	IntersectionEnterTime 	61.75
scalar IntersectionExampleScenario.node[20].appl 	IntersectionExitTime 	102.04136225305
scalar IntersectionExampleScenario.node[20].appl 	NumberOfCollisions 	0
scalar IntersectionExampleScenario.node[20].nic.phy80211p 	busyTime 	0
scalar IntersectionExampleScenario.node[20].nic.mac1609_4 	ReceivedUnicastPackets 	0
scalar IntersectionExampleScenario.node[20].nic.mac1609_4 	ReceivedBroadcasts 	0
scalar IntersectionExampleScenario.node[20].nic.mac1609_4 	SentPackets 	0
scalar IntersectionExampleScenario.node[20].nic.mac1609_4 	SNIRLostPackets 	0
scalar IntersectionExampleScenario.node[20].nic.mac1609_4 	RXTXLostPackets 	0
scalar IntersectionExampleScenario.node[20].nic.mac1609_4 	TotalLostPackets 	0
scalar IntersectionExampleScenario.node[20].nic.mac1609_4 	DroppedPacketsInMac 	0
scalar IntersectionExampleScenario.node[20].nic.mac1609_4 	TooLittleTime 	0
scalar IntersectionExampleScenario.node[20].nic.mac1609_4 	TimesIntoBackoff 	0
scalar IntersectionExampleScenario.node[20].nic.mac1609_4 	SlotsBackoff 	0
scalar IntersectionExampleScenario.node[20].nic.mac1609_4 	NumInternalContention 	0
scalar IntersectionExampleScenario.node[20].nic.mac1609_4 	totalBusyTime 	0
scalar IntersectionExampleScenario.node[20].veinsmobility 	startTime 	61.75
scalar IntersectionExampleScenario.node[20].veinsmobility 	totalTime 	56.75
scalar IntersectionExampleScenario.node[20].veinsmobility 	stopTime 	118.75
scalar IntersectionExampleScenario.node[20].veinsmobility 	minSpeed 	0
scalar IntersectionExampleScenario.node[20].veinsmobility 	maxSpeed 	15.537075996399
scalar IntersectionExampleScenario.node[20].veinsmobility 	totalDistance 	528.66775543564
scalar IntersectionExampleScenario.node[20].veinsmobility 	totalCO2Emission 	150.67299269858
scalar IntersectionExampleScenario.node[26].appl 	VehicleRemoved 	0
scalar IntersectionExampleScenario.node[26].appl 	ArrivedAtDest 	1
scalar IntersectionExampleScenario.node[26].appl 	IntersectionEnterTime 	72
scalar IntersectionExampleScenario.node[26].appl 	IntersectionExitTime 	103.30129786523
scalar IntersectionExampleScenario.node[26].appl 	NumberOfCollisions 	0
scalar IntersectionExampleScenario.node[26].nic.phy80211p 	busyTime 	0
scalar IntersectionExampleScenario.node[26].nic.mac1609_4 	ReceivedUnicastPackets 	0
scalar IntersectionExampleScenario.node[26].nic.mac1609_4 	ReceivedBroadcasts 	0
scalar IntersectionExampleScenario.node[26].nic.mac1609_4 	SentPackets 	0
scalar IntersectionExampleScenario.node[26].nic.mac1609_4 	SNIRLostPackets 	0
scalar IntersectionExampleScenario.node[26].nic.mac1609_4 	RXTXLostPackets 	0
scalar IntersectionExampleScenario.node[26].nic.mac1609_4 	TotalLostPackets 	0
scalar IntersectionExampleScenario.node[26].nic.mac1609_4 	DroppedPacketsInMac 	0
scalar IntersectionExampleScenario.node[26].nic.mac1609_4 	TooLittleTime 	0
scalar IntersectionExampleScenario.node[26].nic.mac1609_4 	TimesIntoBackoff 	0
scalar IntersectionExampleScenario.node[26].nic.mac1609_4 	SlotsBackoff 	0
scalar IntersectionExampleScenario.node[26].nic.mac1609_4 	NumInternalContention 	0
scalar IntersectionExampleScenario.node[26].nic.mac1609_4 	totalBusyTime 	0
scalar IntersectionExampleScenario.node[26].veinsmobility 	startTime 	72
scalar IntersectionExampleScenario.node[26].veinsmobility 	totalTime 	48.25
scalar IntersectionExampleScenario.node[26].veinsmobility 	stopTime 	120.5
scalar IntersectionExampleScenario.node[26].veinsmobility 	minSpeed 	2.4502146244049
scalar IntersectionExampleScenario.node[26].veinsmobility 	maxSpeed 	15.25
scalar IntersectionExampleScenario.node[26].veinsmobility 	totalDistance 	545.12661825038
scalar IntersectionExampleScenario.node[26].veinsmobility 	totalCO2Emission 	133.99617916619
scalar IntersectionExampleScenario.node[18].appl 	VehicleRemoved 	0
scalar IntersectionExampleScenario.node[18].appl 	ArrivedAtDest 	1
scalar IntersectionExampleScenario.node[18].appl 	IntersectionEnterTime 	60.5
scalar IntersectionExampleScenario.node[18].appl 	IntersectionExitTime 	104.83891774362
scalar IntersectionExampleScenario.node[18].appl 	NumberOfCollisions 	0
scalar IntersectionExampleScenario.node[18].nic.phy80211p 	busyTime 	0
scalar IntersectionExampleScenario.node[18].nic.mac1609_4 	ReceivedUnicastPackets 	0
scalar IntersectionExampleScenario.node[18].nic.mac1609_4 	ReceivedBroadcasts 	0
scalar IntersectionExampleScenario.node[18].nic.mac1609_4 	SentPackets 	0
scalar IntersectionExampleScenario.node[18].nic.mac1609_4 	SNIRLostPackets 	0
scalar IntersectionExampleScenario.node[18].nic.mac1609_4 	RXTXLostPackets 	0
scalar IntersectionExampleScenario.node[18].nic.mac1609_4 	TotalLostPackets 	0
scalar IntersectionExampleScenario.node[18].nic.mac1609_4 	DroppedPacketsInMac 	0
scalar IntersectionExampleScenario.node[18].nic.mac1609_4 	TooLittleTime 	0
scalar IntersectionExampleScenario.node[18].nic.mac1609_4 	TimesIntoBackoff 	0
scalar IntersectionExampleScenario.node[18].nic.mac1609_4 	SlotsBackoff 	0
scalar IntersectionExampleScenario.node[18].nic.mac1609_4 	NumInternalContention 	0
scalar IntersectionExampleScenario.node[18].nic.mac1609_4 	totalBusyTime 	0
scalar IntersectionExampleScenario.node[18].veinsmobility 	startTime 	60.5
scalar IntersectionExampleScenario.node[18].veinsmobility 	totalTime 	60.75
scalar IntersectionExampleScenario.node[18].veinsmobility 	stopTime 	121.5
scalar IntersectionExampleScenario.node[18].veinsmobility 	minSpeed 	0
scalar IntersectionExampleScenario.node[18].veinsmobility 	maxSpeed 	15.875
scalar IntersectionExampleScenario.node[18].veinsmobility 	totalDistance 	557.58016878657
scalar IntersectionExampleScenario.node[18].veinsmobility 	totalCO2Emission 	155.41112329107
scalar IntersectionExampleScenario.node[29].appl 	VehicleRemoved 	0
scalar IntersectionExampleScenario.node[29].appl 	ArrivedAtDest 	1
scalar IntersectionExampleScenario.node[29].appl 	IntersectionEnterTime 	77
scalar IntersectionExampleScenario.node[29].appl 	IntersectionExitTime 	105.36156987483
scalar IntersectionExampleScenario.node[29].appl 	NumberOfCollisions 	0
scalar IntersectionExampleScenario.node[29].nic.phy80211p 	busyTime 	0
scalar IntersectionExampleScenario.node[29].nic.mac1609_4 	ReceivedUnicastPackets 	0
scalar IntersectionExampleScenario.node[29].nic.mac1609_4 	ReceivedBroadcasts 	0
scalar IntersectionExampleScenario.node[29].nic.mac1609_4 	SentPackets 	0
scalar IntersectionExampleScenario.node[29].nic.mac1609_4 	SNIRLostPackets 	0
scalar IntersectionExampleScenario.node[29].nic.mac1609_4 	RXTXLostPackets 	0
scalar IntersectionExampleScenario.node[29].nic.mac1609_4 	TotalLostPackets 	0
scalar IntersectionExampleScenario.node[29].nic.mac1609_4 	DroppedPacketsInMac 	0
scalar IntersectionExampleScenario.node[29].nic.mac1609_4 	TooLittleTime 	0
scalar IntersectionExampleScenario.node[29].nic.mac1609_4 	TimesIntoBackoff 	0
scalar IntersectionExampleScenario.node[29].nic.mac1609_4 	SlotsBackoff 	0
scalar IntersectionExampleScenario.node[29].nic.mac1609_4 	NumInternalContention 	0
scalar IntersectionExampleScenario.node[29].nic.mac1609_4 	totalBusyTime 	0
scalar IntersectionExampleScenario.node[29].veinsmobility 	startTime 	77
scalar IntersectionExampleScenario.node[29].veinsmobility 	totalTime 	45
scalar IntersectionExampleScenario.node[29].veinsmobility 	stopTime 	122.25
scalar IntersectionExampleScenario.node[29].veinsmobility 	minSpeed 	5.5686364173889
scalar IntersectionExampleScenario.node[29].veinsmobility 	maxSpeed 	14.875
scalar IntersectionExampleScenario.node[29].veinsmobility 	totalDistance 	551.00730133057
scalar IntersectionExampleScenario.node[29].veinsmobility 	totalCO2Emission 	130.22522959096
scalar IntersectionExampleScenario.node[25].appl 	VehicleRemoved 	0
scalar IntersectionExampleScenario.node[25].appl 	ArrivedAtDest 	1
scalar IntersectionExampleScenario.node[25].appl 	IntersectionEnterTime 	71.25
scalar IntersectionExampleScenario.node[25].appl 	IntersectionExitTime 	107.03929449766
scalar IntersectionExampleScenario.node[25].appl 	NumberOfCollisions 	0
scalar IntersectionExampleScenario.node[25].nic.phy80211p 	busyTime 	0
scalar IntersectionExampleScenario.node[25].nic.mac1609_4 	ReceivedUnicastPackets 	0
scalar IntersectionExampleScenario.node[25].nic.mac1609_4 	ReceivedBroadcasts 	0
scalar IntersectionExampleScenario.node[25].nic.mac1609_4 	SentPackets 	0
scalar IntersectionExampleScenario.node[25].nic.mac1609_4 	SNIRLostPackets 	0
scalar IntersectionExampleScenario.node[25].nic.mac1609_4 	RXTXLostPackets 	0
scalar IntersectionExampleScenario.node[25].nic.mac1609_4 	TotalLostPackets 	0
scalar IntersectionExampleScenario.node[25].nic.mac1609_4 	DroppedPacketsInMac 	0
scalar IntersectionExampleScenario.node[25].nic.mac1609_4 	TooLittleTime 	0
scalar IntersectionExampleScenario.node[25].nic.mac1609_4 	TimesIntoBackoff 	0
scalar IntersectionExampleScenario.node[25].nic.mac1609_4 	SlotsBackoff 	0
scalar IntersectionExampleScenario.node[25].nic.mac1609_4 	NumInternalContention 	0
scalar IntersectionExampleScenario.node[25].nic.mac1609_4 	totalBusyTime 	0
scalar IntersectionExampleScenario.node[25].veinsmobility 	startTime 	71.25
scalar IntersectionExampleScenario.node[25].veinsmobility 	totalTime 	52.25
scalar IntersectionExampleScenario.node[25].veinsmobility 	stopTime 	123.75
scalar IntersectionExampleScenario.node[25].veinsmobility 	minSpeed 	1.355104804039
scalar IntersectionExampleScenario.node[25].veinsmobility 	maxSpeed 	15.375
scalar IntersectionExampleScenario.node[25].veinsmobility 	totalDistance 	551.05251781329
scalar IntersectionExampleScenario.node[25].veinsmobility 	totalCO2Emission 	140.03451320601
scalar IntersectionExampleScenario.node[27].appl 	VehicleRemoved 	0
scalar IntersectionExampleScenario.node[27].appl 	ArrivedAtDest 	1
scalar IntersectionExampleScenario.node[27].appl 	IntersectionEnterTime 	74.75
scalar IntersectionExampleScenario.node[27].appl 	IntersectionExitTime 	109.03621893172
scalar IntersectionExampleScenario.node[27].appl 	NumberOfCollisions 	0
scalar IntersectionExampleScenario.node[27].nic.phy80211p 	busyTime 	0
scalar IntersectionExampleScenario.node[27].nic.mac1609_4 	ReceivedUnicastPackets 	0
scalar IntersectionExampleScenario.node[27].nic.mac1609_4 	ReceivedBroadcasts 	0
scalar IntersectionExampleScenario.node[27].nic.mac1609_4 	SentPackets 	0
scalar IntersectionExampleScenario.node[27].nic.mac1609_4 	SNIRLostPackets 	0
scalar IntersectionExampleScenario.node[27].nic.mac1609_4 	RXTXLostPackets 	0
scalar IntersectionExampleScenario.node[27].nic.mac1609_4 	TotalLostPackets 	0
scalar IntersectionExampleScenario.node[27].nic.mac1609_4 	DroppedPacketsInMac 	0
scalar IntersectionExampleScenario.node[27].nic.mac1609_4 	TooLittleTime 	0
scalar IntersectionExampleScenario.node[27].nic.mac1609_4 	TimesIntoBackoff 	0
scalar IntersectionExampleScenario.node[27].nic.mac1609_4 	SlotsBackoff 	0
scalar IntersectionExampleScenario.node[27].nic.mac1609_4 	NumInternalContention 	0
scalar IntersectionExampleScenario.node[27].nic.mac1609_4 	totalBusyTime 	0
scalar IntersectionExampleScenario.node[27].veinsmobility 	startTime 	74.75
scalar IntersectionExampleScenario.node[27].veinsmobility 	totalTime 	50.75
scalar IntersectionExampleScenario.node[27].veinsmobility 	stopTime 	125.75
scalar IntersectionExampleScenario.node[27].veinsmobility 	minSpeed 	3.2050337791443
scalar IntersectionExampleScenario.node[27].veinsmobility 	maxSpeed 	15.875
scalar IntersectionExampleScenario.node[27].veinsmobility 	totalDistance 	552.97527665679
scalar IntersectionExampleScenario.node[27].veinsmobility 	totalCO2Emission 	144.76945705
scalar IntersectionExampleScenario.node[30].appl 	VehicleRemoved 	0
scalar IntersectionExampleScenario.node[30].appl 	ArrivedAtDest 	1
scalar IntersectionExampleScenario.node[30].appl 	IntersectionEnterTime 	87.75
scalar IntersectionExampleScenario.node[30].appl 	IntersectionExitTime 	111.29453723016
scalar IntersectionExampleScenario.node[30].appl 	NumberOfCollisions 	0
scalar IntersectionExampleScenario.node[30].nic.phy80211p 	busyTime 	0
scalar IntersectionExampleScenario.node[30].nic.mac1609_4 	ReceivedUnicastPackets 	0
scalar IntersectionExampleScenario.node[30].nic.mac1609_4 	ReceivedBroadcasts 	0
scalar IntersectionExampleScenario.node[30].nic.mac1609_4 	SentPackets 	0
scalar IntersectionExampleScenario.node[30].nic.mac1609_4 	SNIRLostPackets 	0
scalar IntersectionExampleScenario.node[30].nic.mac1609_4 	RXTXLostPackets 	0
scalar IntersectionExampleScenario.node[30].nic.mac1609_4 	TotalLostPackets 	0
scalar IntersectionExampleScenario.node[30].nic.mac1609_4 	DroppedPacketsInMac 	0
scalar IntersectionExampleScenario.node[30].nic.mac1609_4 	TooLittleTime 	0
scalar IntersectionExampleScenario.node[30].nic.mac1609_4 	TimesIntoBackoff 	0
scalar IntersectionExampleScenario.node[30].nic.mac1609_4 	SlotsBackoff 	0
scalar IntersectionExampleScenario.node[30].nic.mac1609_4 	NumInternalContention 	0
scalar IntersectionExampleScenario.node[30].nic.mac1609_4 	totalBusyTime 	0
scalar IntersectionExampleScenario.node[30].veinsmobility 	startTime 	87.75
scalar IntersectionExampleScenario.node[30].veinsmobility 	totalTime 	40.25
scalar IntersectionExampleScenario.node[30].veinsmobility 	stopTime 	128.25
scalar IntersectionExampleScenario.node[30].veinsmobility 	minSpeed 	5.6500000953674
scalar IntersectionExampleScenario.node[30].veinsmobility 	maxSpeed 	15.285373687744
scalar IntersectionExampleScenario.node[30].veinsmobility 	totalDistance 	551.83794034284
scalar IntersectionExampleScenario.node[30].veinsmobility 	totalCO2Emission 	120.87904801246
scalar IntersectionExampleScenario.node[31].appl 	VehicleRemoved 	0
scalar IntersectionExampleScenario.node[31].appl 	ArrivedAtDest 	1
scalar IntersectionExampleScenario.node[31].appl 	IntersectionEnterTime 	88.25
scalar IntersectionExampleScenario.node[31].appl 	IntersectionExitTime 	112.50006504706
scalar IntersectionExampleScenario.node[31].appl 	NumberOfCollisions 	0
scalar IntersectionExampleScenario.node[31].nic.phy80211p 	busyTime 	0
scalar IntersectionExampleScenario.node[31].nic.mac1609_4 	ReceivedUnicastPackets 	0
scalar IntersectionExampleScenario.node[31].nic.mac1609_4 	ReceivedBroadcasts 	0
scalar IntersectionExampleScenario.node[31].nic.mac1609_4 	SentPackets 	0
scalar IntersectionExampleScenario.node[31].nic.mac1609_4 	SNIRLostPackets 	0
scalar IntersectionExampleScenario.node[31].nic.mac1609_4 	RXTXLostPackets 	0
scalar IntersectionExampleScenario.node[31].nic.mac1609_4 	TotalLostPackets 	0
scalar IntersectionExampleScenario.node[31].nic.mac1609_4 	DroppedPacketsInMac 	0
scalar IntersectionExampleScenario.node[31].nic.mac1609_4 	TooLittleTime 	0
scalar IntersectionExampleScenario.node[31].nic.mac1609_4 	TimesIntoBackoff 	0
scalar IntersectionExampleScenario.node[31].nic.mac1609_4 	SlotsBackoff 	0
scalar IntersectionExampleScenario.node[31].nic.mac1609_4 	NumInternalContention 	0
scalar IntersectionExampleScenario.node[31].nic.mac1609_4 	totalBusyTime 	0
scalar IntersectionExampleScenario.node[31].veinsmobility 	startTime 	88.25
scalar IntersectionExampleScenario.node[31].veinsmobility 	totalTime 	41.25
scalar IntersectionExampleScenario.node[31].veinsmobility 	stopTime 	129.75
scalar IntersectionExampleScenario.node[31].veinsmobility 	minSpeed 	5.6500000953674
scalar IntersectionExampleScenario.node[31].veinsmobility 	maxSpeed 	15.64999961853
scalar IntersectionExampleScenario.node[31].veinsmobility 	totalDistance 	545.39145525329
scalar IntersectionExampleScenario.node[31].veinsmobility 	totalCO2Emission 	132.56093757111
scalar IntersectionExampleScenario.node[32].appl 	VehicleRemoved 	0
scalar IntersectionExampleScenario.node[32].appl 	ArrivedAtDest 	1
scalar IntersectionExampleScenario.node[32].appl 	IntersectionEnterTime 	88.5
scalar IntersectionExampleScenario.node[32].appl 	IntersectionExitTime 	114.31676117779
scalar IntersectionExampleScenario.node[32].appl 	NumberOfCollisions 	0
scalar IntersectionExampleScenario.node[32].nic.phy80211p 	busyTime 	0
scalar IntersectionExampleScenario.node[32].nic.mac1609_4 	ReceivedUnicastPackets 	0
scalar IntersectionExampleScenario.node[32].nic.mac1609_4 	ReceivedBroadcasts 	0
scalar IntersectionExampleScenario.node[32].nic.mac1609_4 	SentPackets 	0
scalar IntersectionExampleScenario.node[32].nic.mac1609_4 	SNIRLostPackets 	0
scalar IntersectionExampleScenario.node[32].nic.mac1609_4 	RXTXLostPackets 	0
scalar IntersectionExampleScenario.node[32].nic.mac1609_4 	TotalLostPackets 	0
scalar IntersectionExampleScenario.node[32].nic.mac1609_4 	DroppedPacketsInMac 	0
scalar IntersectionExampleScenario.node[32].nic.mac1609_4 	TooLittleTime 	0
scalar IntersectionExampleScenario.node[32].nic.mac1609_4 	TimesIntoBackoff 	0
scalar IntersectionExampleScenario.node[32].nic.mac1609_4 	SlotsBackoff 	0
scalar IntersectionExampleScenario.node[32].nic.mac1609_4 	NumInternalContention 	0
scalar IntersectionExampleScenario.node[32].nic.mac1609_4 	totalBusyTime 	0
scalar IntersectionExampleScenario.node[32].veinsmobility 	startTime 	88.5
scalar IntersectionExampleScenario.node[32].veinsmobility 	totalTime 	43
scalar IntersectionExampleScenario.node[32].veinsmobility 	stopTime 	131.75
scalar IntersectionExampleScenario.node[32].veinsmobility 	minSpeed 	5.6500000953674
scalar IntersectionExampleScenario.node[32].veinsmobility 	maxSpeed 	15.098834991455
scalar IntersectionExampleScenario.node[32].veinsmobility 	totalDistance 	566.68457229603
scalar IntersectionExampleScenario.node[32].veinsmobility 	totalCO2Emission 	132.43715629136
scalar IntersectionExampleScenario.node[33].appl 	VehicleRemoved 	0
scalar IntersectionExampleScenario.node[33].appl 	ArrivedAtDest 	1
scalar IntersectionExampleScenario.node[33].appl 	IntersectionEnterTime 	94.5
scalar IntersectionExampleScenario.node[33].appl 	IntersectionExitTime 	121.28051569007
scalar IntersectionExampleScenario.node[33].appl 	NumberOfCollisions 	0
scalar IntersectionExampleScenario.node[33].nic.phy80211p 	busyTime 	0
scalar IntersectionExampleScenario.node[33].nic.mac1609_4 	ReceivedUnicastPackets 	0
scalar IntersectionExampleScenario.node[33].nic.mac1609_4 	ReceivedBroadcasts 	0
scalar IntersectionExampleScenario.node[33].nic.mac1609_4 	SentPackets 	0
scalar IntersectionExampleScenario.node[33].nic.mac1609_4 	SNIRLostPackets 	0
scalar IntersectionExampleScenario.node[33].nic.mac1609_4 	RXTXLostPackets 	0
scalar IntersectionExampleScenario.node[33].nic.mac1609_4 	TotalLostPackets 	0
scalar IntersectionExampleScenario.node[33].nic.mac1609_4 	DroppedPacketsInMac 	0
scalar IntersectionExampleScenario.node[33].nic.mac1609_4 	TooLittleTime 	0
scalar IntersectionExampleScenario.node[33].nic.mac1609_4 	TimesIntoBackoff 	0
scalar IntersectionExampleScenario.node[33].nic.mac1609_4 	SlotsBackoff 	0
scalar IntersectionExampleScenario.node[33].nic.mac1609_4 	NumInternalContention 	0
scalar IntersectionExampleScenario.node[33].nic.mac1609_4 	totalBusyTime 	0
scalar IntersectionExampleScenario.node[33].veinsmobility 	startTime 	94.5
scalar IntersectionExampleScenario.node[33].veinsmobility 	totalTime 	42.5
scalar IntersectionExampleScenario.node[33].veinsmobility 	stopTime 	137.25
scalar IntersectionExampleScenario.node[33].veinsmobility 	minSpeed 	0
scalar IntersectionExampleScenario.node[33].veinsmobility 	maxSpeed 	15.64999961853
scalar IntersectionExampleScenario.node[33].veinsmobility 	totalDistance 	550.91556549072
scalar IntersectionExampleScenario.node[33].veinsmobility 	totalCO2Emission 	136.5351135857
scalar IntersectionExampleScenario.node[35].appl 	VehicleRemoved 	0
scalar IntersectionExampleScenario.node[35].appl 	ArrivedAtDest 	1
scalar IntersectionExampleScenario.node[35].appl 	IntersectionEnterTime 	103
scalar IntersectionExampleScenario.node[35].appl 	IntersectionExitTime 	126.08703803382
scalar IntersectionExampleScenario.node[35].appl 	NumberOfCollisions 	0
scalar IntersectionExampleScenario.node[35].nic.phy80211p 	busyTime 	0
scalar IntersectionExampleScenario.node[35].nic.mac1609_4 	ReceivedUnicastPackets 	0
scalar IntersectionExampleScenario.node[35].nic.mac1609_4 	ReceivedBroadcasts 	0
scalar IntersectionExampleScenario.node[35].nic.mac1609_4 	SentPackets 	0
scalar IntersectionExampleScenario.node[35].nic.mac1609_4 	SNIRLostPackets 	0
scalar IntersectionExampleScenario.node[35].nic.mac1609_4 	RXTXLostPackets 	0
scalar IntersectionExampleScenario.node[35].nic.mac1609_4 	TotalLostPackets 	0
scalar IntersectionExampleScenario.node[35].nic.mac1609_4 	DroppedPacketsInMac 	0
scalar IntersectionExampleScenario.node[35].nic.mac1609_4 	TooLittleTime 	0
scalar IntersectionExampleScenario.node[35].nic.mac1609_4 	TimesIntoBackoff 	0
scalar IntersectionExampleScenario.node[35].nic.mac1609_4 	SlotsBackoff 	0
scalar IntersectionExampleScenario.node[35].nic.mac1609_4 	NumInternalContention 	0
scalar IntersectionExampleScenario.node[35].nic.mac1609_4 	totalBusyTime 	0
scalar IntersectionExampleScenario.node[35].veinsmobility 	startTime 	103
scalar IntersectionExampleScenario.node[35].veinsmobility 	totalTime 	39
scalar IntersectionExampleScenario.node[35].veinsmobility 	stopTime 	142.25
scalar IntersectionExampleScenario.node[35].veinsmobility 	minSpeed 	5.6500000953674
scalar IntersectionExampleScenario.node[35].veinsmobility 	maxSpeed 	16
scalar IntersectionExampleScenario.node[35].veinsmobility 	totalDistance 	551.94969041539
scalar IntersectionExampleScenario.node[35].veinsmobility 	totalCO2Emission 	125.13138713895
scalar IntersectionExampleScenario.node[36].appl 	VehicleRemoved 	0
scalar IntersectionExampleScenario.node[36].appl 	ArrivedAtDest 	1
scalar IntersectionExampleScenario.node[36].appl 	IntersectionEnterTime 	104
scalar IntersectionExampleScenario.node[36].appl 	IntersectionExitTime 	128.28334762697
scalar IntersectionExampleScenario.node[36].appl 	NumberOfCollisions 	0
scalar IntersectionExampleScenario.node[36].nic.phy80211p 	busyTime 	0
scalar IntersectionExampleScenario.node[36].nic.mac1609_4 	ReceivedUnicastPackets 	0
scalar IntersectionExampleScenario.node[36].nic.mac1609_4 	ReceivedBroadcasts 	0
scalar IntersectionExampleScenario.node[36].nic.mac1609_4 	SentPackets 	0
scalar IntersectionExampleScenario.node[36].nic.mac1609_4 	SNIRLostPackets 	0
scalar IntersectionExampleScenario.node[36].nic.mac1609_4 	RXTXLostPackets 	0
scalar IntersectionExampleScenario.node[36].nic.mac1609_4 	TotalLostPackets 	0
scalar IntersectionExampleScenario.node[36].nic.mac1609_4 	DroppedPacketsInMac 	0
scalar IntersectionExampleScenario.node[36].nic.mac1609_4 	TooLittleTime 	0
scalar IntersectionExampleScenario.node[36].nic.mac1609_4 	TimesIntoBackoff 	0
scalar IntersectionExampleScenario.node[36].nic.mac1609_4 	SlotsBackoff 	0
scalar IntersectionExampleScenario.node[36].nic.mac1609_4 	NumInternalContention 	0
scalar IntersectionExampleScenario.node[36].nic.mac1609_4 	totalBusyTime 	0
scalar IntersectionExampleScenario.node[36].veinsmobility 	startTime 	104
scalar IntersectionExampleScenario.node[36].veinsmobility 	totalTime 	40
scalar IntersectionExampleScenario.node[36].veinsmobility 	stopTime 	144.25
scalar IntersectionExampleScenario.node[36].veinsmobility 	minSpeed 	5.6500000953674
scalar IntersectionExampleScenario.node[36].veinsmobility 	maxSpeed 	16.5
scalar IntersectionExampleScenario.node[36].veinsmobility 	totalDistance 	565.90812217063
scalar IntersectionExampleScenario.node[36].veinsmobility 	totalCO2Emission 	137.70225692711
scalar IntersectionExampleScenario.node[39].appl 	VehicleRemoved 	0
scalar IntersectionExampleScenario.node[39].appl 	ArrivedAtDest 	1
scalar IntersectionExampleScenario.node[39].appl 	IntersectionEnterTime 	109.25
scalar IntersectionExampleScenario.node[39].appl 	IntersectionExitTime 	131.54620680746
scalar IntersectionExampleScenario.node[39].appl 	NumberOfCollisions 	0
scalar IntersectionExampleScenario.node[39].nic.phy80211p 	busyTime 	0
scalar IntersectionExampleScenario.node[39].nic.mac1609_4 	ReceivedUnicastPackets 	0
scalar IntersectionExampleScenario.node[39].nic.mac1609_4 	ReceivedBroadcasts 	0
scalar IntersectionExampleScenario.node[39].nic.mac1609_4 	SentPackets 	0
scalar IntersectionExampleScenario.node[39].nic.mac1609_4 	SNIRLostPackets 	0
scalar IntersectionExampleScenario.node[39].nic.mac1609_4 	RXTXLostPackets 	0
scalar IntersectionExampleScenario.node[39].nic.mac1609_4 	TotalLostPackets 	0
scalar IntersectionExampleScenario.node[39].nic.mac1609_4 	DroppedPacketsInMac 	0
scalar IntersectionExampleScenario.node[39].nic.mac1609_4 	TooLittleTime 	0
scalar IntersectionExampleScenario.node[39].nic.mac1609_4 	TimesIntoBackoff 	0
scalar IntersectionExampleScenario.node[39].nic.mac1609_4 	SlotsBackoff 	0
scalar IntersectionExampleScenario.node[39].nic.mac1609_4 	NumInternalContention 	0
scalar IntersectionExampleScenario.node[39].nic.mac1609_4 	totalBusyTime 	0
scalar IntersectionExampleScenario.node[39].veinsmobility 	startTime 	109.25
scalar IntersectionExampleScenario.node[39].veinsmobility 	totalTime 	37.75
scalar IntersectionExampleScenario.node[39].veinsmobility 	stopTime 	147.25
scalar IntersectionExampleScenario.node[39].veinsmobility 	minSpeed 	5.6500000953674
scalar IntersectionExampleScenario.node[39].veinsmobility 	maxSpeed 	16.27499961853
scalar IntersectionExampleScenario.node[39].veinsmobility 	totalDistance 	551.43393707275
scalar IntersectionExampleScenario.node[39].veinsmobility 	totalCO2Emission 	120.91989472968
scalar IntersectionExampleScenario.node[40].appl 	VehicleRemoved 	0
scalar IntersectionExampleScenario.node[40].appl 	ArrivedAtDest 	1
scalar IntersectionExampleScenario.node[40].appl 	IntersectionEnterTime 	112.75
scalar IntersectionExampleScenario.node[40].appl 	IntersectionExitTime 	136.82903822846
scalar IntersectionExampleScenario.node[40].appl 	NumberOfCollisions 	0
scalar IntersectionExampleScenario.node[40].nic.phy80211p 	busyTime 	0
scalar IntersectionExampleScenario.node[40].nic.mac1609_4 	ReceivedUnicastPackets 	0
scalar IntersectionExampleScenario.node[40].nic.mac1609_4 	ReceivedBroadcasts 	0
scalar IntersectionExampleScenario.node[40].nic.mac1609_4 	SentPackets 	0
scalar IntersectionExampleScenario.node[40].nic.mac1609_4 	SNIRLostPackets 	0
scalar IntersectionExampleScenario.node[40].nic.mac1609_4 	RXTXLostPackets 	0
scalar IntersectionExampleScenario.node[40].nic.mac1609_4 	TotalLostPackets 	0
scalar IntersectionExampleScenario.node[40].nic.mac1609_4 	DroppedPacketsInMac 	0
scalar IntersectionExampleScenario.node[40].nic.mac1609_4 	TooLittleTime 	0
scalar IntersectionExampleScenario.node[40].nic.mac1609_4 	TimesIntoBackoff 	0
scalar IntersectionExampleScenario.node[40].nic.mac1609_4 	SlotsBackoff 	0
scalar IntersectionExampleScenario.node[40].nic.mac1609_4 	NumInternalContention 	0
scalar IntersectionExampleScenario.node[40].nic.mac1609_4 	totalBusyTime 	0
scalar IntersectionExampleScenario.node[40].veinsmobility 	startTime 	112.75
scalar IntersectionExampleScenario.node[40].veinsmobility 	totalTime 	40.75
scalar IntersectionExampleScenario.node[40].veinsmobility 	stopTime 	153.75
scalar IntersectionExampleScenario.node[40].veinsmobility 	minSpeed 	5.6500000953674
scalar IntersectionExampleScenario.node[40].veinsmobility 	maxSpeed 	15.64999961853
scalar IntersectionExampleScenario.node[40].veinsmobility 	totalDistance 	554.22504389684
scalar IntersectionExampleScenario.node[40].veinsmobility 	totalCO2Emission 	127.61466017906
scalar IntersectionExampleScenario.node[34].appl 	VehicleRemoved 	0
scalar IntersectionExampleScenario.node[34].appl 	ArrivedAtDest 	1
scalar IntersectionExampleScenario.node[34].appl 	IntersectionEnterTime 	99.75
scalar IntersectionExampleScenario.node[34].appl 	IntersectionExitTime 	139.5504795216
scalar IntersectionExampleScenario.node[34].appl 	NumberOfCollisions 	0
scalar IntersectionExampleScenario.node[34].nic.phy80211p 	busyTime 	0
scalar IntersectionExampleScenario.node[34].nic.mac1609_4 	ReceivedUnicastPackets 	0
scalar IntersectionExampleScenario.node[34].nic.mac1609_4 	ReceivedBroadcasts 	0
scalar IntersectionExampleScenario.node[34].nic.mac1609_4 	SentPackets 	0
scalar IntersectionExampleScenario.node[34].nic.mac1609_4 	SNIRLostPackets 	0
scalar IntersectionExampleScenario.node[34].nic.mac1609_4 	RXTXLostPackets 	0
scalar IntersectionExampleScenario.node[34].nic.mac1609_4 	TotalLostPackets 	0
scalar IntersectionExampleScenario.node[34].nic.mac1609_4 	DroppedPacketsInMac 	0
scalar IntersectionExampleScenario.node[34].nic.mac1609_4 	TooLittleTime 	0
scalar IntersectionExampleScenario.node[34].nic.mac1609_4 	TimesIntoBackoff 	0
scalar IntersectionExampleScenario.node[34].nic.mac1609_4 	SlotsBackoff 	0
scalar IntersectionExampleScenario.node[34].nic.mac1609_4 	NumInternalContention 	0
scalar IntersectionExampleScenario.node[34].nic.mac1609_4 	totalBusyTime 	0
scalar IntersectionExampleScenario.node[34].veinsmobility 	startTime 	99.75
scalar IntersectionExampleScenario.node[34].veinsmobility 	totalTime 	56.75
scalar IntersectionExampleScenario.node[34].veinsmobility 	stopTime 	156.75
scalar IntersectionExampleScenario.node[34].veinsmobility 	minSpeed 	0
scalar IntersectionExampleScenario.node[34].veinsmobility 	maxSpeed 	15.25
scalar IntersectionExampleScenario.node[34].veinsmobility 	totalDistance 	544.46379758269
scalar IntersectionExampleScenario.node[34].veinsmobility 	totalCO2Emission 	146.02649564102
scalar IntersectionExampleScenario.node[37].appl 	VehicleRemoved 	0
scalar IntersectionExampleScenario.node[37].appl 	ArrivedAtDest 	1
scalar IntersectionExampleScenario.node[37].appl 	IntersectionEnterTime 	104.25
scalar IntersectionExampleScenario.node[37].appl 	IntersectionExitTime 	140.29313390606
scalar IntersectionExampleScenario.node[37].appl 	NumberOfCollisions 	0
scalar IntersectionExampleScenario.node[37].nic.phy80211p 	busyTime 	0
scalar IntersectionExampleScenario.node[37].nic.mac1609_4 	ReceivedUnicastPackets 	0
scalar IntersectionExampleScenario.node[37].nic.mac1609_4 	ReceivedBroadcasts 	0
scalar IntersectionExampleScenario.node[37].nic.mac1609_4 	SentPackets 	0
scalar IntersectionExampleScenario.node[37].nic.mac1609_4 	SNIRLostPackets 	0
scalar IntersectionExampleScenario.node[37].nic.mac1609_4 	RXTXLostPackets 	0
scalar IntersectionExampleScenario.node[37].nic.mac1609_4 	TotalLostPackets 	0
scalar IntersectionExampleScenario.node[37].nic.mac1609_4 	DroppedPacketsInMac 	0
scalar IntersectionExampleScenario.node[37].nic.mac1609_4 	TooLittleTime 	0
[...]
scalar IntersectionExampleScenario.node[637].veinsmobility 	totalCO2Emission 	101.97229718833
scalar IntersectionExampleScenario.node[638].appl 	VehicleRemoved 	0
scalar IntersectionExampleScenario.node[638].appl 	ArrivedAtDest 	0
scalar IntersectionExampleScenario.node[638].appl 	IntersectionEnterTime 	1771.25
scalar IntersectionExampleScenario.node[638].appl 	IntersectionExitTime 	-1
scalar IntersectionExampleScenario.node[638].appl 	NumberOfCollisions 	0
scalar IntersectionExampleScenario.node[638].nic.phy80211p 	busyTime 	0
scalar IntersectionExampleScenario.node[638].nic.mac1609_4 	ReceivedUnicastPackets 	0
scalar IntersectionExampleScenario.node[638].nic.mac1609_4 	ReceivedBroadcasts 	0
scalar IntersectionExampleScenario.node[638].nic.mac1609_4 	SentPackets 	0
scalar IntersectionExampleScenario.node[638].nic.mac1609_4 	SNIRLostPackets 	0
scalar IntersectionExampleScenario.node[638].nic.mac1609_4 	RXTXLostPackets 	0
scalar IntersectionExampleScenario.node[638].nic.mac1609_4 	TotalLostPackets 	0
scalar IntersectionExampleScenario.node[638].nic.mac1609_4 	DroppedPacketsInMac 	0
scalar IntersectionExampleScenario.node[638].nic.mac1609_4 	TooLittleTime 	0
scalar IntersectionExampleScenario.node[638].nic.mac1609_4 	TimesIntoBackoff 	0
scalar IntersectionExampleScenario.node[638].nic.mac1609_4 	SlotsBackoff 	0
scalar IntersectionExampleScenario.node[638].nic.mac1609_4 	NumInternalContention 	0
scalar IntersectionExampleScenario.node[638].nic.mac1609_4 	totalBusyTime 	0
scalar IntersectionExampleScenario.node[638].veinsmobility 	startTime 	1771.25
scalar IntersectionExampleScenario.node[638].veinsmobility 	totalTime 	28.75
scalar IntersectionExampleScenario.node[638].veinsmobility 	stopTime 	1800
scalar IntersectionExampleScenario.node[638].veinsmobility 	minSpeed 	2.0440502166748
scalar IntersectionExampleScenario.node[638].veinsmobility 	maxSpeed 	16.00682258606
scalar IntersectionExampleScenario.node[638].veinsmobility 	totalDistance 	291.24798583984
scalar IntersectionExampleScenario.node[638].veinsmobility 	totalCO2Emission 	79.907083251605
scalar IntersectionExampleScenario.node[639].appl 	VehicleRemoved 	0
scalar IntersectionExampleScenario.node[639].appl 	ArrivedAtDest 	0
scalar IntersectionExampleScenario.node[639].appl 	IntersectionEnterTime 	1778.75
scalar IntersectionExampleScenario.node[639].appl 	IntersectionExitTime 	-1
scalar IntersectionExampleScenario.node[639].appl 	NumberOfCollisions 	0
scalar IntersectionExampleScenario.node[639].nic.phy80211p 	busyTime 	0
scalar IntersectionExampleScenario.node[639].nic.mac1609_4 	ReceivedUnicastPackets 	0
scalar IntersectionExampleScenario.node[639].nic.mac1609_4 	ReceivedBroadcasts 	0
scalar IntersectionExampleScenario.node[639].nic.mac1609_4 	SentPackets 	0
scalar IntersectionExampleScenario.node[639].nic.mac1609_4 	SNIRLostPackets 	0
scalar IntersectionExampleScenario.node[639].nic.mac1609_4 	RXTXLostPackets 	0
scalar IntersectionExampleScenario.node[639].nic.mac1609_4 	TotalLostPackets 	0
scalar IntersectionExampleScenario.node[639].nic.mac1609_4 	DroppedPacketsInMac 	0
scalar IntersectionExampleScenario.node[639].nic.mac1609_4 	TooLittleTime 	0
scalar IntersectionExampleScenario.node[639].nic.mac1609_4 	TimesIntoBackoff 	0
scalar IntersectionExampleScenario.node[639].nic.mac1609_4 	SlotsBackoff 	0
scalar IntersectionExampleScenario.node[639].nic.mac1609_4 	NumInternalContention 	0
scalar IntersectionExampleScenario.node[639].nic.mac1609_4 	totalBusyTime 	0
scalar IntersectionExampleScenario.node[639].veinsmobility 	startTime 	1778.75
scalar IntersectionExampleScenario.node[639].veinsmobility 	totalTime 	21.25
scalar IntersectionExampleScenario.node[639].veinsmobility 	stopTime 	1800
scalar IntersectionExampleScenario.node[639].veinsmobility 	minSpeed 	3.3857805728912
scalar IntersectionExampleScenario.node[639].veinsmobility 	maxSpeed 	15.64999961853
scalar IntersectionExampleScenario.node[639].veinsmobility 	totalDistance 	285.90780639648
scalar IntersectionExampleScenario.node[639].veinsmobility 	totalCO2Emission 	66.132540189258
scalar IntersectionExampleScenario.node[640].appl 	VehicleRemoved 	0
scalar IntersectionExampleScenario.node[640].appl 	ArrivedAtDest 	0
scalar IntersectionExampleScenario.node[640].appl 	IntersectionEnterTime 	1781
scalar IntersectionExampleScenario.node[640].appl 	IntersectionExitTime 	-1
scalar IntersectionExampleScenario.node[640].appl 	NumberOfCollisions 	0
scalar IntersectionExampleScenario.node[640].nic.phy80211p 	busyTime 	0
scalar IntersectionExampleScenario.node[640].nic.mac1609_4 	ReceivedUnicastPackets 	0
scalar IntersectionExampleScenario.node[640].nic.mac1609_4 	ReceivedBroadcasts 	0
scalar IntersectionExampleScenario.node[640].nic.mac1609_4 	SentPackets 	0
scalar IntersectionExampleScenario.node[640].nic.mac1609_4 	SNIRLostPackets 	0
scalar IntersectionExampleScenario.node[640].nic.mac1609_4 	RXTXLostPackets 	0
scalar IntersectionExampleScenario.node[640].nic.mac1609_4 	TotalLostPackets 	0
scalar IntersectionExampleScenario.node[640].nic.mac1609_4 	DroppedPacketsInMac 	0
scalar IntersectionExampleScenario.node[640].nic.mac1609_4 	TooLittleTime 	0
scalar IntersectionExampleScenario.node[640].nic.mac1609_4 	TimesIntoBackoff 	0
scalar IntersectionExampleScenario.node[640].nic.mac1609_4 	SlotsBackoff 	0
scalar IntersectionExampleScenario.node[640].nic.mac1609_4 	NumInternalContention 	0
scalar IntersectionExampleScenario.node[640].nic.mac1609_4 	totalBusyTime 	0
scalar IntersectionExampleScenario.node[640].veinsmobility 	startTime 	1781
scalar IntersectionExampleScenario.node[640].veinsmobility 	totalTime 	19
scalar IntersectionExampleScenario.node[640].veinsmobility 	stopTime 	1800
scalar IntersectionExampleScenario.node[640].veinsmobility 	minSpeed 	4.9281735420227
scalar IntersectionExampleScenario.node[640].veinsmobility 	maxSpeed 	15.543887138367
scalar IntersectionExampleScenario.node[640].veinsmobility 	totalDistance 	223.93341064453
scalar IntersectionExampleScenario.node[640].veinsmobility 	totalCO2Emission 	61.713146561838
scalar IntersectionExampleScenario.node[641].appl 	VehicleRemoved 	0
scalar IntersectionExampleScenario.node[641].appl 	ArrivedAtDest 	0
scalar IntersectionExampleScenario.node[641].appl 	IntersectionEnterTime 	1781.5
scalar IntersectionExampleScenario.node[641].appl 	IntersectionExitTime 	-1
scalar IntersectionExampleScenario.node[641].appl 	NumberOfCollisions 	0
scalar IntersectionExampleScenario.node[641].nic.phy80211p 	busyTime 	0
scalar IntersectionExampleScenario.node[641].nic.mac1609_4 	ReceivedUnicastPackets 	0
scalar IntersectionExampleScenario.node[641].nic.mac1609_4 	ReceivedBroadcasts 	0
scalar IntersectionExampleScenario.node[641].nic.mac1609_4 	SentPackets 	0
scalar IntersectionExampleScenario.node[641].nic.mac1609_4 	SNIRLostPackets 	0
scalar IntersectionExampleScenario.node[641].nic.mac1609_4 	RXTXLostPackets 	0
scalar IntersectionExampleScenario.node[641].nic.mac1609_4 	TotalLostPackets 	0
scalar IntersectionExampleScenario.node[641].nic.mac1609_4 	DroppedPacketsInMac 	0
scalar IntersectionExampleScenario.node[641].nic.mac1609_4 	TooLittleTime 	0
scalar IntersectionExampleScenario.node[641].nic.mac1609_4 	TimesIntoBackoff 	0
scalar IntersectionExampleScenario.node[641].nic.mac1609_4 	SlotsBackoff 	0
scalar IntersectionExampleScenario.node[641].nic.mac1609_4 	NumInternalContention 	0
scalar IntersectionExampleScenario.node[641].nic.mac1609_4 	totalBusyTime 	0
scalar IntersectionExampleScenario.node[641].veinsmobility 	startTime 	1781.5
scalar IntersectionExampleScenario.node[641].veinsmobility 	totalTime 	18.5
scalar IntersectionExampleScenario.node[641].veinsmobility 	stopTime 	1800
scalar IntersectionExampleScenario.node[641].veinsmobility 	minSpeed 	5.6500000953674
scalar IntersectionExampleScenario.node[641].veinsmobility 	maxSpeed 	16.333452224731
scalar IntersectionExampleScenario.node[641].veinsmobility 	totalDistance 	222.4352722168
scalar IntersectionExampleScenario.node[641].veinsmobility 	totalCO2Emission 	64.101644910325
scalar IntersectionExampleScenario.node[642].appl 	VehicleRemoved 	0
scalar IntersectionExampleScenario.node[642].appl 	ArrivedAtDest 	0
scalar IntersectionExampleScenario.node[642].appl 	IntersectionEnterTime 	1781.75
scalar IntersectionExampleScenario.node[642].appl 	IntersectionExitTime 	-1
scalar IntersectionExampleScenario.node[642].appl 	NumberOfCollisions 	0
scalar IntersectionExampleScenario.node[642].nic.phy80211p 	busyTime 	0
scalar IntersectionExampleScenario.node[642].nic.mac1609_4 	ReceivedUnicastPackets 	0
scalar IntersectionExampleScenario.node[642].nic.mac1609_4 	ReceivedBroadcasts 	0
scalar IntersectionExampleScenario.node[642].nic.mac1609_4 	SentPackets 	0
scalar IntersectionExampleScenario.node[642].nic.mac1609_4 	SNIRLostPackets 	0
scalar IntersectionExampleScenario.node[642].nic.mac1609_4 	RXTXLostPackets 	0
scalar IntersectionExampleScenario.node[642].nic.mac1609_4 	TotalLostPackets 	0
scalar IntersectionExampleScenario.node[642].nic.mac1609_4 	DroppedPacketsInMac 	0
scalar IntersectionExampleScenario.node[642].nic.mac1609_4 	TooLittleTime 	0
scalar IntersectionExampleScenario.node[642].nic.mac1609_4 	TimesIntoBackoff 	0
scalar IntersectionExampleScenario.node[642].nic.mac1609_4 	SlotsBackoff 	0
scalar IntersectionExampleScenario.node[642].nic.mac1609_4 	NumInternalContention 	0
scalar IntersectionExampleScenario.node[642].nic.mac1609_4 	totalBusyTime 	0
scalar IntersectionExampleScenario.node[642].veinsmobility 	startTime 	1781.75
scalar IntersectionExampleScenario.node[642].veinsmobility 	totalTime 	18.25
scalar IntersectionExampleScenario.node[642].veinsmobility 	stopTime 	1800
scalar IntersectionExampleScenario.node[642].veinsmobility 	minSpeed 	1.7779223918915
scalar IntersectionExampleScenario.node[642].veinsmobility 	maxSpeed 	16.265979766846
scalar IntersectionExampleScenario.node[642].veinsmobility 	totalDistance 	233.69683837891
scalar IntersectionExampleScenario.node[642].veinsmobility 	totalCO2Emission 	66.000016465187
scalar IntersectionExampleScenario.node[643].appl 	VehicleRemoved 	0
scalar IntersectionExampleScenario.node[643].appl 	ArrivedAtDest 	0
scalar IntersectionExampleScenario.node[643].appl 	IntersectionEnterTime 	1782
scalar IntersectionExampleScenario.node[643].appl 	IntersectionExitTime 	-1
scalar IntersectionExampleScenario.node[643].appl 	NumberOfCollisions 	0
scalar IntersectionExampleScenario.node[643].nic.phy80211p 	busyTime 	0
scalar IntersectionExampleScenario.node[643].nic.mac1609_4 	ReceivedUnicastPackets 	0
scalar IntersectionExampleScenario.node[643].nic.mac1609_4 	ReceivedBroadcasts 	0
scalar IntersectionExampleScenario.node[643].nic.mac1609_4 	SentPackets 	0
scalar IntersectionExampleScenario.node[643].nic.mac1609_4 	SNIRLostPackets 	0
scalar IntersectionExampleScenario.node[643].nic.mac1609_4 	RXTXLostPackets 	0
scalar IntersectionExampleScenario.node[643].nic.mac1609_4 	TotalLostPackets 	0
scalar IntersectionExampleScenario.node[643].nic.mac1609_4 	DroppedPacketsInMac 	0
scalar IntersectionExampleScenario.node[643].nic.mac1609_4 	TooLittleTime 	0
scalar IntersectionExampleScenario.node[643].nic.mac1609_4 	TimesIntoBackoff 	0
scalar IntersectionExampleScenario.node[643].nic.mac1609_4 	SlotsBackoff 	0
scalar IntersectionExampleScenario.node[643].nic.mac1609_4 	NumInternalContention 	0
scalar IntersectionExampleScenario.node[643].nic.mac1609_4 	totalBusyTime 	0
scalar IntersectionExampleScenario.node[643].veinsmobility 	startTime 	1782
scalar IntersectionExampleScenario.node[643].veinsmobility 	totalTime 	18
scalar IntersectionExampleScenario.node[643].veinsmobility 	stopTime 	1800
scalar IntersectionExampleScenario.node[643].veinsmobility 	minSpeed 	5.6500000953674
scalar IntersectionExampleScenario.node[643].veinsmobility 	maxSpeed 	15.64999961853
scalar IntersectionExampleScenario.node[643].veinsmobility 	totalDistance 	248.04748535156
scalar IntersectionExampleScenario.node[643].veinsmobility 	totalCO2Emission 	59.748880874975
scalar IntersectionExampleScenario.node[644].appl 	VehicleRemoved 	0
scalar IntersectionExampleScenario.node[644].appl 	ArrivedAtDest 	0
scalar IntersectionExampleScenario.node[644].appl 	IntersectionEnterTime 	1783.25
scalar IntersectionExampleScenario.node[644].appl 	IntersectionExitTime 	-1
scalar IntersectionExampleScenario.node[644].appl 	NumberOfCollisions 	0
scalar IntersectionExampleScenario.node[644].nic.phy80211p 	busyTime 	0
scalar IntersectionExampleScenario.node[644].nic.mac1609_4 	ReceivedUnicastPackets 	0
scalar IntersectionExampleScenario.node[644].nic.mac1609_4 	ReceivedBroadcasts 	0
scalar IntersectionExampleScenario.node[644].nic.mac1609_4 	SentPackets 	0
scalar IntersectionExampleScenario.node[644].nic.mac1609_4 	SNIRLostPackets 	0
scalar IntersectionExampleScenario.node[644].nic.mac1609_4 	RXTXLostPackets 	0
scalar IntersectionExampleScenario.node[644].nic.mac1609_4 	TotalLostPackets 	0
scalar IntersectionExampleScenario.node[644].nic.mac1609_4 	DroppedPacketsInMac 	0
scalar IntersectionExampleScenario.node[644].nic.mac1609_4 	TooLittleTime 	0
scalar IntersectionExampleScenario.node[644].nic.mac1609_4 	TimesIntoBackoff 	0
scalar IntersectionExampleScenario.node[644].nic.mac1609_4 	SlotsBackoff 	0
scalar IntersectionExampleScenario.node[644].nic.mac1609_4 	NumInternalContention 	0
scalar IntersectionExampleScenario.node[644].nic.mac1609_4 	totalBusyTime 	0
scalar IntersectionExampleScenario.node[644].veinsmobility 	startTime 	1783.25
scalar IntersectionExampleScenario.node[644].veinsmobility 	totalTime 	16.75
scalar IntersectionExampleScenario.node[644].veinsmobility 	stopTime 	1800
scalar IntersectionExampleScenario.node[644].veinsmobility 	minSpeed 	5.6500000953674
scalar IntersectionExampleScenario.node[644].veinsmobility 	maxSpeed 	16.045658111572
scalar IntersectionExampleScenario.node[644].veinsmobility 	totalDistance 	237.46927642822
scalar IntersectionExampleScenario.node[644].veinsmobility 	totalCO2Emission 	64.615151568572
scalar IntersectionExampleScenario.node[645].appl 	VehicleRemoved 	0
scalar IntersectionExampleScenario.node[645].appl 	ArrivedAtDest 	0
scalar IntersectionExampleScenario.node[645].appl 	IntersectionEnterTime 	1786
scalar IntersectionExampleScenario.node[645].appl 	IntersectionExitTime 	-1
scalar IntersectionExampleScenario.node[645].appl 	NumberOfCollisions 	0
scalar IntersectionExampleScenario.node[645].nic.phy80211p 	busyTime 	0
scalar IntersectionExampleScenario.node[645].nic.mac1609_4 	ReceivedUnicastPackets 	0
scalar IntersectionExampleScenario.node[645].nic.mac1609_4 	ReceivedBroadcasts 	0
scalar IntersectionExampleScenario.node[645].nic.mac1609_4 	SentPackets 	0
scalar IntersectionExampleScenario.node[645].nic.mac1609_4 	SNIRLostPackets 	0
scalar IntersectionExampleScenario.node[645].nic.mac1609_4 	RXTXLostPackets 	0
scalar IntersectionExampleScenario.node[645].nic.mac1609_4 	TotalLostPackets 	0
scalar IntersectionExampleScenario.node[645].nic.mac1609_4 	DroppedPacketsInMac 	0
scalar IntersectionExampleScenario.node[645].nic.mac1609_4 	TooLittleTime 	0
scalar IntersectionExampleScenario.node[645].nic.mac1609_4 	TimesIntoBackoff 	0
scalar IntersectionExampleScenario.node[645].nic.mac1609_4 	SlotsBackoff 	0
scalar IntersectionExampleScenario.node[645].nic.mac1609_4 	NumInternalContention 	0
scalar IntersectionExampleScenario.node[645].nic.mac1609_4 	totalBusyTime 	0
scalar IntersectionExampleScenario.node[645].veinsmobility 	startTime 	1786
scalar IntersectionExampleScenario.node[645].veinsmobility 	totalTime 	14
scalar IntersectionExampleScenario.node[645].veinsmobility 	stopTime 	1800
scalar IntersectionExampleScenario.node[645].veinsmobility 	minSpeed 	5.6500000953674
scalar IntersectionExampleScenario.node[645].veinsmobility 	maxSpeed 	15.530785560608
scalar IntersectionExampleScenario.node[645].veinsmobility 	totalDistance 	177.32015991211
scalar IntersectionExampleScenario.node[645].veinsmobility 	totalCO2Emission 	54.29144270846
scalar IntersectionExampleScenario.node[646].appl 	VehicleRemoved 	0
scalar IntersectionExampleScenario.node[646].appl 	ArrivedAtDest 	0
scalar IntersectionExampleScenario.node[646].appl 	IntersectionEnterTime 	1787.75
scalar IntersectionExampleScenario.node[646].appl 	IntersectionExitTime 	-1
scalar IntersectionExampleScenario.node[646].appl 	NumberOfCollisions 	0
scalar IntersectionExampleScenario.node[646].nic.phy80211p 	busyTime 	0
scalar IntersectionExampleScenario.node[646].nic.mac1609_4 	ReceivedUnicastPackets 	0
scalar IntersectionExampleScenario.node[646].nic.mac1609_4 	ReceivedBroadcasts 	0
scalar IntersectionExampleScenario.node[646].nic.mac1609_4 	SentPackets 	0
scalar IntersectionExampleScenario.node[646].nic.mac1609_4 	SNIRLostPackets 	0
scalar IntersectionExampleScenario.node[646].nic.mac1609_4 	RXTXLostPackets 	0
scalar IntersectionExampleScenario.node[646].nic.mac1609_4 	TotalLostPackets 	0
scalar IntersectionExampleScenario.node[646].nic.mac1609_4 	DroppedPacketsInMac 	0
scalar IntersectionExampleScenario.node[646].nic.mac1609_4 	TooLittleTime 	0
scalar IntersectionExampleScenario.node[646].nic.mac1609_4 	TimesIntoBackoff 	0
scalar IntersectionExampleScenario.node[646].nic.mac1609_4 	SlotsBackoff 	0
scalar IntersectionExampleScenario.node[646].nic.mac1609_4 	NumInternalContention 	0
scalar IntersectionExampleScenario.node[646].nic.mac1609_4 	totalBusyTime 	0
scalar IntersectionExampleScenario.node[646].veinsmobility 	startTime 	1787.75
scalar IntersectionExampleScenario.node[646].veinsmobility 	totalTime 	12.25
scalar IntersectionExampleScenario.node[646].veinsmobility 	stopTime 	1800
scalar IntersectionExampleScenario.node[646].veinsmobility 	minSpeed 	5.6500000953674
scalar IntersectionExampleScenario.node[646].veinsmobility 	maxSpeed 	15.64999961853
scalar IntersectionExampleScenario.node[646].veinsmobility 	totalDistance 	166.49238586426
scalar IntersectionExampleScenario.node[646].veinsmobility 	totalCO2Emission 	49.510739730236
scalar IntersectionExampleScenario.node[647].appl 	VehicleRemoved 	0
scalar IntersectionExampleScenario.node[647].appl 	ArrivedAtDest 	0
scalar IntersectionExampleScenario.node[647].appl 	IntersectionEnterTime 	1799.75
scalar IntersectionExampleScenario.node[647].appl 	IntersectionExitTime 	-1
scalar IntersectionExampleScenario.node[647].appl 	NumberOfCollisions 	0
scalar IntersectionExampleScenario.node[647].nic.phy80211p 	busyTime 	0
scalar IntersectionExampleScenario.node[647].nic.mac1609_4 	ReceivedUnicastPackets 	0
scalar IntersectionExampleScenario.node[647].nic.mac1609_4 	ReceivedBroadcasts 	0
scalar IntersectionExampleScenario.node[647].nic.mac1609_4 	SentPackets 	0
scalar IntersectionExampleScenario.node[647].nic.mac1609_4 	SNIRLostPackets 	0
scalar IntersectionExampleScenario.node[647].nic.mac1609_4 	RXTXLostPackets 	0
scalar IntersectionExampleScenario.node[647].nic.mac1609_4 	TotalLostPackets 	0
scalar IntersectionExampleScenario.node[647].nic.mac1609_4 	DroppedPacketsInMac 	0
scalar IntersectionExampleScenario.node[647].nic.mac1609_4 	TooLittleTime 	0
scalar IntersectionExampleScenario.node[647].nic.mac1609_4 	TimesIntoBackoff 	0
scalar IntersectionExampleScenario.node[647].nic.mac1609_4 	SlotsBackoff 	0
scalar IntersectionExampleScenario.node[647].nic.mac1609_4 	NumInternalContention 	0
scalar IntersectionExampleScenario.node[647].nic.mac1609_4 	totalBusyTime 	0
scalar IntersectionExampleScenario.node[647].veinsmobility 	startTime 	1799.75
scalar IntersectionExampleScenario.node[647].veinsmobility 	totalTime 	0.25
scalar IntersectionExampleScenario.node[647].veinsmobility 	stopTime 	1800
scalar IntersectionExampleScenario.node[647].veinsmobility 	minSpeed 	5.6500000953674
scalar IntersectionExampleScenario.node[647].veinsmobility 	maxSpeed 	5.6500000953674
scalar IntersectionExampleScenario.node[647].veinsmobility 	totalDistance 	1.3344116210938
scalar IntersectionExampleScenario.node[647].veinsmobility 	totalCO2Emission 	0
