file 20868008 1591495733                                        
version 2
run nodebug-42-20200606-22:05:28-21964
attr configname nodebug
attr datetime 20200606-22:05:28
attr experiment nodebug
attr inifile omnetpp.ini
attr iterationvars ""
attr iterationvars2 $repetition=42
attr measurement ""
attr network "\"org.car2x.veins.modules.application.ExtTraCIScenarioManagerLaunchd.IntersectionExampleScenario\""
attr processid 21964
attr repetition 42
attr replication #42
attr resultdir results
attr runnumber 42
attr seedset 42
param **.coreDebug false
param **.debug false
param *.**.nic.mac1609_4.bitrate 18Mbps
param *.**.nic.mac1609_4.txPower 20mW
param *.**.nic.mac1609_4.useServiceChannel false
param *.**.nic.phy80211p.analogueModels "xmldoc(\"config.xml\")"
param *.**.nic.phy80211p.decider "xmldoc(\"config.xml\")"
param *.**.nic.phy80211p.sensitivity -89dBm
param *.**.nic.phy80211p.thermalNoise -110dBm
param *.**.nic.phy80211p.usePropagationDelay true
param *.**.nic.phy80211p.useThermalNoise true
param *.annotations.draw false
param *.connectionManager.alpha 2.0
param *.connectionManager.carrierFrequency "5.890e9 Hz"
param *.connectionManager.pMax 20mW
param *.connectionManager.sat -89dBm
param *.connectionManager.sendDirect true
param *.manager.autoShutdown true
param *.manager.host "\"localhost\""
param *.manager.launchConfig "xmldoc(\"paramics.launchd.xml\")"
param *.manager.margin 25
param *.manager.moduleDisplayString "\"\""
param *.manager.moduleName "\"node\""
param *.manager.moduleType "\"org.car2x.veins.nodes.Car\""
param *.manager.port 9999
param *.manager.updateInterval 250ms
param *.node[*0].veinsmobility.accidentCount 0
param *.node[*0].veinsmobility.accidentDuration 30s
param *.node[*0].veinsmobility.accidentStart 75s
param *.node[*].appl.LiderSelectZoneRadio 55.0
param *.node[*].appl.ShareDataZoneRadio 110.0
param *.node[*].appl.TiempoSemaforo 30.0
param *.node[*].appl.beaconInterval 1s
param *.node[*].appl.beaconPriority 3
param *.node[*].appl.dataOnSch false
param *.node[*].appl.dataPriority 2
param *.node[*].appl.debug false
param *.node[*].appl.headerLength "256 bit"
param *.node[*].appl.maxOffset 0.005s
param *.node[*].appl.sendBeacons false
param *.node[*].appl.sendData true
param *.node[*].applType "\"Dummy\""
param *.node[*].mobilityType "\"TraCIMobility\""
param *.node[*].mobilityType.debug true
param *.node[*].veinsmobility.x 0
param *.node[*].veinsmobility.y 0
param *.node[*].veinsmobility.z 1.895
param *.node[*].veinsmobilityType "\"org.car2x.veins.modules.mobility.traci.TraCIMobility\""
param *.node[*].veinsmobilityType.debug true
param *.playgroundSizeX 8500m
param *.playgroundSizeY 8500m
param *.playgroundSizeZ 50m
param *.world.use2D false
param *.world.useTorus false

vector 42427  IntersectionExampleScenario.manager  vehiclesinsim  ETV
attr type  int
vector 42428  IntersectionExampleScenario.manager  realtime  ETV
attr type  int
attr unit  s
vector 42431  IntersectionExampleScenario.node[0].veinsmobility  posx  ETV
vector 42432  IntersectionExampleScenario.node[0].veinsmobility  posy  ETV
vector 42433  IntersectionExampleScenario.node[0].veinsmobility  speed  ETV
vector 42434  IntersectionExampleScenario.node[0].veinsmobility  acceleration  ETV
vector 42435  IntersectionExampleScenario.node[0].veinsmobility  co2emission  ETV
vector 42438  IntersectionExampleScenario.node[1].veinsmobility  posx  ETV
vector 42439  IntersectionExampleScenario.node[1].veinsmobility  posy  ETV
vector 42440  IntersectionExampleScenario.node[1].veinsmobility  speed  ETV
vector 42441  IntersectionExampleScenario.node[1].veinsmobility  acceleration  ETV
vector 42442  IntersectionExampleScenario.node[1].veinsmobility  co2emission  ETV
vector 42445  IntersectionExampleScenario.node[2].veinsmobility  posx  ETV
vector 42446  IntersectionExampleScenario.node[2].veinsmobility  posy  ETV
vector 42447  IntersectionExampleScenario.node[2].veinsmobility  speed  ETV
vector 42448  IntersectionExampleScenario.node[2].veinsmobility  acceleration  ETV
vector 42449  IntersectionExampleScenario.node[2].veinsmobility  co2emission  ETV
vector 42452  IntersectionExampleScenario.node[3].veinsmobility  posx  ETV
vector 42453  IntersectionExampleScenario.node[3].veinsmobility  posy  ETV
vector 42459  IntersectionExampleScenario.node[4].veinsmobility  posx  ETV
vector 42460  IntersectionExampleScenario.node[4].veinsmobility  posy  ETV
vector 42454  IntersectionExampleScenario.node[3].veinsmobility  speed  ETV
vector 42455  IntersectionExampleScenario.node[3].veinsmobility  acceleration  ETV
vector 42456  IntersectionExampleScenario.node[3].veinsmobility  co2emission  ETV
vector 42461  IntersectionExampleScenario.node[4].veinsmobility  speed  ETV
vector 42462  IntersectionExampleScenario.node[4].veinsmobility  acceleration  ETV
vector 42463  IntersectionExampleScenario.node[4].veinsmobility  co2emission  ETV
vector 42466  IntersectionExampleScenario.node[5].veinsmobility  posx  ETV
vector 42467  IntersectionExampleScenario.node[5].veinsmobility  posy  ETV
vector 42468  IntersectionExampleScenario.node[5].veinsmobility  speed  ETV
vector 42469  IntersectionExampleScenario.node[5].veinsmobility  acceleration  ETV
vector 42470  IntersectionExampleScenario.node[5].veinsmobility  co2emission  ETV
vector 42473  IntersectionExampleScenario.node[6].veinsmobility  posx  ETV
vector 42474  IntersectionExampleScenario.node[6].veinsmobility  posy  ETV
vector 42475  IntersectionExampleScenario.node[6].veinsmobility  speed  ETV
vector 42476  IntersectionExampleScenario.node[6].veinsmobility  acceleration  ETV
vector 42477  IntersectionExampleScenario.node[6].veinsmobility  co2emission  ETV
vector 42480  IntersectionExampleScenario.node[7].veinsmobility  posx  ETV
vector 42481  IntersectionExampleScenario.node[7].veinsmobility  posy  ETV
vector 42482  IntersectionExampleScenario.node[7].veinsmobility  speed  ETV
vector 42487  IntersectionExampleScenario.node[8].veinsmobility  posx  ETV
vector 42488  IntersectionExampleScenario.node[8].veinsmobility  posy  ETV
vector 42483  IntersectionExampleScenario.node[7].veinsmobility  acceleration  ETV
vector 42484  IntersectionExampleScenario.node[7].veinsmobility  co2emission  ETV
vector 42489  IntersectionExampleScenario.node[8].veinsmobility  speed  ETV
vector 42490  IntersectionExampleScenario.node[8].veinsmobility  acceleration  ETV
vector 42491  IntersectionExampleScenario.node[8].veinsmobility  co2emission  ETV
vector 42494  IntersectionExampleScenario.node[9].veinsmobility  posx  ETV
vector 42495  IntersectionExampleScenario.node[9].veinsmobility  posy  ETV
vector 42496  IntersectionExampleScenario.node[9].veinsmobility  speed  ETV
vector 42497  IntersectionExampleScenario.node[9].veinsmobility  acceleration  ETV
vector 42498  IntersectionExampleScenario.node[9].veinsmobility  co2emission  ETV
vector 42501  IntersectionExampleScenario.node[10].veinsmobility  posx  ETV
vector 42502  IntersectionExampleScenario.node[10].veinsmobility  posy  ETV
vector 42503  IntersectionExampleScenario.node[10].veinsmobility  speed  ETV
vector 42504  IntersectionExampleScenario.node[10].veinsmobility  acceleration  ETV
vector 42505  IntersectionExampleScenario.node[10].veinsmobility  co2emission  ETV
vector 42508  IntersectionExampleScenario.node[11].veinsmobility  posx  ETV
vector 42509  IntersectionExampleScenario.node[11].veinsmobility  posy  ETV
vector 42510  IntersectionExampleScenario.node[11].veinsmobility  speed  ETV
vector 42511  IntersectionExampleScenario.node[11].veinsmobility  acceleration  ETV
vector 42512  IntersectionExampleScenario.node[11].veinsmobility  co2emission  ETV
vector 42515  IntersectionExampleScenario.node[12].veinsmobility  posx  ETV
vector 42516  IntersectionExampleScenario.node[12].veinsmobility  posy  ETV
vector 42517  IntersectionExampleScenario.node[12].veinsmobility  speed  ETV
vector 42518  IntersectionExampleScenario.node[12].veinsmobility  acceleration  ETV
vector 42519  IntersectionExampleScenario.node[12].veinsmobility  co2emission  ETV
vector 42522  IntersectionExampleScenario.node[13].veinsmobility  posx  ETV
vector 42523  IntersectionExampleScenario.node[13].veinsmobility  posy  ETV
vector 42524  IntersectionExampleScenario.node[13].veinsmobility  speed  ETV
vector 42525  IntersectionExampleScenario.node[13].veinsmobility  acceleration  ETV
vector 42526  IntersectionExampleScenario.node[13].veinsmobility  co2emission  ETV
vector 42529  IntersectionExampleScenario.node[14].veinsmobility  posx  ETV
vector 42530  IntersectionExampleScenario.node[14].veinsmobility  posy  ETV
vector 42531  IntersectionExampleScenario.node[14].veinsmobility  speed  ETV
vector 42532  IntersectionExampleScenario.node[14].veinsmobility  acceleration  ETV
vector 42533  IntersectionExampleScenario.node[14].veinsmobility  co2emission  ETV
vector 42536  IntersectionExampleScenario.node[15].veinsmobility  posx  ETV
vector 42537  IntersectionExampleScenario.node[15].veinsmobility  posy  ETV
vector 42538  IntersectionExampleScenario.node[15].veinsmobility  speed  ETV
vector 42539  IntersectionExampleScenario.node[15].veinsmobility  acceleration  ETV
vector 42540  IntersectionExampleScenario.node[15].veinsmobility  co2emission  ETV
vector 42543  IntersectionExampleScenario.node[16].veinsmobility  posx  ETV
vector 42544  IntersectionExampleScenario.node[16].veinsmobility  posy  ETV
vector 42545  IntersectionExampleScenario.node[16].veinsmobility  speed  ETV
vector 42546  IntersectionExampleScenario.node[16].veinsmobility  acceleration  ETV
vector 42547  IntersectionExampleScenario.node[16].veinsmobility  co2emission  ETV
42442	9703 5295 153 3097 16 59 173 0.973 12.099024792222 558.79069094499 3157.294698067
42441	14998 5037 153 3097 16 59 173 -7.8777389526367 4 40.038900375366 507.63096320897
42440	20035 5214 148 3097 15.75 59 174 0 16.27499961853 2184.4825298786 31478.340064468
42439	25249 5677 143 3097 15.5 59 175 184.17810058594 483.36395263672 70760.833526611 30409553.501033
42438	30926 5627 143 3097 15.5 59 175 486.85000610352 734.86784362793 93285.412857056 50684871.605687
42435	36553 6275 29 3151 6 59.5 215 0.973 11.450879080643 573.71495178836 2823.6754091648
42434	42828 5813 29 3151 6 59.5 215 -9.2727584838867 4 36.643835067749 497.39910828892
42433	48641 6073 26 3151 5.75 59.5 216 0 15.375 2205.2649021149 30558.015137007
42432	54714 6988 23 3151 5.5 59.5 217 238.44940185547 785.82187652588 111882.41455841 61896102.591694
42431	61702 7002 23 3151 5.5 59.5 217 483.14999389648 483.14999389648 104843.54867554 50655159.902671
vector 42550  IntersectionExampleScenario.node[17].veinsmobility  posx  ETV
vector 42551  IntersectionExampleScenario.node[17].veinsmobility  posy  ETV
vector 42552  IntersectionExampleScenario.node[17].veinsmobility  speed  ETV
42449	68936 5484 172 3208 16.75 60 174 0.973 11.54047740176 546.68444936738 2840.953607551
42448	74420 4994 172 3208 16.75 60 174 -4.5 2.5000019073486 38.341367721558 386.84382566155
42447	79414 5542 165 3208 16.5 60 175 2.9563555717468 15.5 2307.9853868484 32483.713164203
42446	84956 5706 158 3208 16.25 60 176 161.1796875 733.09951782227 77113.127471924 38483429.924661
42445	90662 5736 158 3208 16.25 60 176 486.85000610352 486.85000610352 85685.601074219 41716035.405967
vector 42553  IntersectionExampleScenario.node[17].veinsmobility  acceleration  ETV
vector 42554  IntersectionExampleScenario.node[17].veinsmobility  co2emission  ETV
vector 42557  IntersectionExampleScenario.node[18].veinsmobility  posx  ETV
vector 42558  IntersectionExampleScenario.node[18].veinsmobility  posy  ETV
vector 42559  IntersectionExampleScenario.node[18].veinsmobility  speed  ETV
vector 42560  IntersectionExampleScenario.node[18].veinsmobility  acceleration  ETV
vector 42561  IntersectionExampleScenario.node[18].veinsmobility  co2emission  ETV
vector 42564  IntersectionExampleScenario.node[19].veinsmobility  posx  ETV
vector 42565  IntersectionExampleScenario.node[19].veinsmobility  posy  ETV
vector 42566  IntersectionExampleScenario.node[19].veinsmobility  speed  ETV
vector 42571  IntersectionExampleScenario.node[20].veinsmobility  posx  ETV
vector 42572  IntersectionExampleScenario.node[20].veinsmobility  posy  ETV
vector 42567  IntersectionExampleScenario.node[19].veinsmobility  acceleration  ETV
vector 42568  IntersectionExampleScenario.node[19].veinsmobility  co2emission  ETV
vector 42573  IntersectionExampleScenario.node[20].veinsmobility  speed  ETV
vector 42574  IntersectionExampleScenario.node[20].veinsmobility  acceleration  ETV
vector 42575  IntersectionExampleScenario.node[20].veinsmobility  co2emission  ETV
42456	97770 5025 325 3490 22 62.25 162 0.973 11.648172402475 523.03888459961 2867.6390834618
42455	102795 4917 325 3490 22 62.25 162 -3.3599166870117 2.5 40.038900375366 255.62551499679
42454	107712 5100 314 3490 21.75 62.25 163 5.6500000953674 15.721758842468 2248.2522449493 32128.053254287
42453	112812 5347 305 3490 21.5 62.25 164 175.12023925781 732.33898925781 72515.481689453 36311184.201998
42452	118159 5361 305 3490 21.5 62.25 164 486.85000610352 486.85000610352 79843.401000977 38871760.264651
vector 42578  IntersectionExampleScenario.node[21].veinsmobility  posx  ETV
vector 42579  IntersectionExampleScenario.node[21].veinsmobility  posy  ETV
vector 42580  IntersectionExampleScenario.node[21].veinsmobility  speed  ETV
vector 42581  IntersectionExampleScenario.node[21].veinsmobility  acceleration  ETV
vector 42582  IntersectionExampleScenario.node[21].veinsmobility  co2emission  ETV
vector 42585  IntersectionExampleScenario.node[22].veinsmobility  posx  ETV
vector 42586  IntersectionExampleScenario.node[22].veinsmobility  posy  ETV
vector 42587  IntersectionExampleScenario.node[22].veinsmobility  speed  ETV
vector 42588  IntersectionExampleScenario.node[22].veinsmobility  acceleration  ETV
vector 42589  IntersectionExampleScenario.node[22].veinsmobility  co2emission  ETV
vector 42592  IntersectionExampleScenario.node[23].veinsmobility  posx  ETV
vector 42593  IntersectionExampleScenario.node[23].veinsmobility  posy  ETV
vector 42594  IntersectionExampleScenario.node[23].veinsmobility  speed  ETV
vector 42595  IntersectionExampleScenario.node[23].veinsmobility  acceleration  ETV
vector 42596  IntersectionExampleScenario.node[23].veinsmobility  co2emission  ETV
vector 42599  IntersectionExampleScenario.node[24].veinsmobility  posx  ETV
vector 42600  IntersectionExampleScenario.node[24].veinsmobility  posy  ETV
vector 42601  IntersectionExampleScenario.node[24].veinsmobility  speed  ETV
vector 42606  IntersectionExampleScenario.node[25].veinsmobility  posx  ETV
vector 42607  IntersectionExampleScenario.node[25].veinsmobility  posy  ETV
vector 42602  IntersectionExampleScenario.node[24].veinsmobility  acceleration  ETV
vector 42603  IntersectionExampleScenario.node[24].veinsmobility  co2emission  ETV
vector 42608  IntersectionExampleScenario.node[25].veinsmobility  speed  ETV
vector 42609  IntersectionExampleScenario.node[25].veinsmobility  acceleration  ETV
vector 42610  IntersectionExampleScenario.node[25].veinsmobility  co2emission  ETV
vector 42613  IntersectionExampleScenario.node[26].veinsmobility  posx  ETV
vector 42614  IntersectionExampleScenario.node[26].veinsmobility  posy  ETV
vector 42615  IntersectionExampleScenario.node[26].veinsmobility  speed  ETV
vector 42616  IntersectionExampleScenario.node[26].veinsmobility  acceleration  ETV
vector 42617  IntersectionExampleScenario.node[26].veinsmobility  co2emission  ETV
vector 42620  IntersectionExampleScenario.node[27].veinsmobility  posx  ETV
vector 42621  IntersectionExampleScenario.node[27].veinsmobility  posy  ETV
vector 42622  IntersectionExampleScenario.node[27].veinsmobility  speed  ETV
vector 42627  IntersectionExampleScenario.node[28].veinsmobility  posx  ETV
vector 42628  IntersectionExampleScenario.node[28].veinsmobility  posy  ETV
vector 42623  IntersectionExampleScenario.node[27].veinsmobility  acceleration  ETV
vector 42624  IntersectionExampleScenario.node[27].veinsmobility  co2emission  ETV
vector 42629  IntersectionExampleScenario.node[28].veinsmobility  speed  ETV
vector 42630  IntersectionExampleScenario.node[28].veinsmobility  acceleration  ETV
vector 42631  IntersectionExampleScenario.node[28].veinsmobility  co2emission  ETV
vector 42634  IntersectionExampleScenario.node[29].veinsmobility  posx  ETV
vector 42635  IntersectionExampleScenario.node[29].veinsmobility  posy  ETV
vector 42636  IntersectionExampleScenario.node[29].veinsmobility  speed  ETV
vector 42637  IntersectionExampleScenario.node[29].veinsmobility  acceleration  ETV
vector 42638  IntersectionExampleScenario.node[29].veinsmobility  co2emission  ETV
42470	127129 6122 516 5439 26.25 77.75 207 0.973 12.099024792222 603.2417150105 3307.5590106367
42469	133251 5775 516 5439 26.25 77.75 207 -8.5904636383057 4 40.548154830933 522.91713702962
42468	139026 5882 503 5439 26 77.75 208 0 16.27499961853 2174.0454263687 31401.266765596
42467	144908 6792 490 5439 25.75 77.75 209 486.85000610352 732.40849304199 109624.51438904 58486660.161286
42466	151700 6855 490 5439 25.75 77.75 209 486.63604736328 785.82187652588 115916.35201263 66211514.486402
42463	158555 6539 336 5476 22.25 78 224 0.973 11.90022389248 606.65340992329 3127.1580986542
42462	165094 5981 336 5476 22.25 78 224 -7.2641463279724 4 39.699392318726 488.74823969018
42461	171075 6278 325 5476 22 78 225 0 16 2217.2995821238 32035.833704362
42460	177353 7407 314 5476 21.75 78 226 483.14999389648 483.14999389648 109191.89862061 52756065.152091
42459	184760 7377 314 5476 21.75 78 226 184.17810058594 734.53973388672 103004.99465942 51078048.611135
42484	192137 5723 864 5687 32.25 79.5 190 0.973 11.54047740176 537.00789671385 2754.7834569435
42483	197860 5954 864 5687 32.25 79.5 190 -2.4415321350098 2.5 37.15309715271 301.72506653351
42482	203814 6129 847 5687 32 79.5 191 1.5790543556213 15.5 2211.6243504286 29526.83941288
42481	209943 6326 830 5687 31.75 79.5 192 486.85000610352 486.85000610352 93475.201171875 45508402.261055
42480	216269 6294 830 5687 31.75 79.5 192 237.73205566406 785.82187652588 100073.43675995 56346658.80415
42477	222563 6380 650 5984 28.75 81.75 213 0.973 10.756497587458 536.78166156154 2399.7433843079
42476	228943 6568 650 5984 28.75 81.75 213 -3.8766856193542 2.5 34.267293930054 293.898625041
42475	235511 6902 635 5984 28.5 81.75 214 0 14.39999961853 2211.2244632561 28030.723001186
42474	242413 7073 620 5984 28.25 81.75 215 483.14999389648 483.14999389648 103877.24868774 50188292.069467
42473	249486 7032 620 5984 28.25 81.75 215 184.17810058594 732.60778808594 96894.558303833 48021824.493879
42491	256518 6136 902 6134 32.75 83 202 0.973 12.057799525311 595.85693870272 2937.3709457337
42490	262654 6562 902 6134 32.75 83 202 -4.4169807434082 2.5 42.272199630737 359.49309015221
42489	269216 6557 883 6134 32.5 83 203 2.4525506496429 16.218050003052 2237.4485909939 29163.906468736
42488	275773 6724 864 6134 32.25 83 204 483.14999389648 483.14999389648 98562.598754883 47620518.986843
42487	282497 6672 864 6134 32.25 83 204 177.97814941406 732.36312866211 90760.743057251 44747261.329267
42505	289169 5271 1660 6395 42.25 85.25 173 0.973 11.200708441096 496.80102453585 2509.9329853249
42504	294440 5348 1660 6395 42.25 85.25 173 -2.1778259277344 2.5 37.15309715271 205.33340324625
42503	299788 5526 1637 6395 42 85.25 174 5.6500000953674 15.128066062927 2221.4302396774 29522.885328601
42502	305314 5775 1614 6395 41.75 85.25 175 483.14999389648 483.14999389648 84551.248931885 40850935.40538
42501	311089 5749 1614 6395 41.75 85.25 175 184.17810058594 734.39094543457 78145.834671021 39155097.12805
vector 42641  IntersectionExampleScenario.node[30].veinsmobility  posx  ETV
vector 42642  IntersectionExampleScenario.node[30].veinsmobility  posy  ETV
vector 42643  IntersectionExampleScenario.node[30].veinsmobility  speed  ETV
vector 42648  IntersectionExampleScenario.node[31].veinsmobility  posx  ETV
vector 42649  IntersectionExampleScenario.node[31].veinsmobility  posy  ETV
vector 42644  IntersectionExampleScenario.node[30].veinsmobility  acceleration  ETV
vector 42645  IntersectionExampleScenario.node[30].veinsmobility  co2emission  ETV
42519	317393 4946 2209 6730 49.5 88.25 156 0.973 12.099024792222 517.37835945647 3003.4060516599
42518	322339 4666 2209 6730 49.5 88.25 156 -3.4799156188965 2.5 40.038900375366 302.93197667599
42517	327005 4852 2190 6730 49.25 88.25 157 5.6500000953674 16.27499961853 2177.531452179 31700.575766228
42516	331857 5202 2171 6730 49 88.25 158 486.85000610352 731.59959411621 84805.979980469 46406498.045001
42515	337059 5193 2171 6730 49 88.25 158 486.85000610352 785.82187652588 90491.108894348 53542308.505041
vector 42655  IntersectionExampleScenario.node[32].veinsmobility  posx  ETV
vector 42656  IntersectionExampleScenario.node[32].veinsmobility  posy  ETV
vector 42650  IntersectionExampleScenario.node[31].veinsmobility  speed  ETV
vector 42651  IntersectionExampleScenario.node[31].veinsmobility  acceleration  ETV
vector 42652  IntersectionExampleScenario.node[31].veinsmobility  co2emission  ETV
vector 42657  IntersectionExampleScenario.node[32].veinsmobility  speed  ETV
vector 42658  IntersectionExampleScenario.node[32].veinsmobility  acceleration  ETV
vector 42659  IntersectionExampleScenario.node[32].veinsmobility  co2emission  ETV
42540	342900 4521 2662 6959 54.75 90 142 0.973 12.099024792222 495.45632348889 3066.3424066722
42539	347421 4316 2662 6959 54.75 90 142 -4.4951057434082 2.5 41.057416915894 255.75711127144
42538	351737 4480 2637 6959 54.5 90 143 5.6500000953674 16.27499961853 2096.0211420059 31493.183581829
42537	356217 4752 2612 6959 54.25 90 144 486.85000610352 486.85000610352 70106.400878906 34131301.695791
42536	360969 4743 2612 6959 54.25 90 144 236.3251953125 755.08361053467 73043.151885986 40451460.317277
vector 42662  IntersectionExampleScenario.node[33].veinsmobility  posx  ETV
vector 42663  IntersectionExampleScenario.node[33].veinsmobility  posy  ETV
vector 42664  IntersectionExampleScenario.node[33].veinsmobility  speed  ETV
vector 42665  IntersectionExampleScenario.node[33].veinsmobility  acceleration  ETV
vector 42666  IntersectionExampleScenario.node[33].veinsmobility  co2emission  ETV
42526	366113 5606 2346 7553 51.25 95.25 177 0.973 11.00486315618 545.85990847338 2829.2538166384
42525	371719 5399 2346 7553 51.25 95.25 177 -4.5 2.5 34.437047958374 356.73485805744
42524	377118 5595 2325 7553 51 95.25 178 5.6500000953674 14.75 2281.8036623001 30219.693834344
42523	382713 5888 2304 7553 50.75 95.25 179 236.86163330078 486.85000610352 78199.54800415 35208713.945404
42522	388601 5890 2304 7553 50.75 95.25 179 483.11975097656 805.05782318115 104879.28218079 63797850.376032
42533	394491 5450 2497 7608 53 95.75 172 0.973 11.54047740176 509.64598881698 2425.0932058637
42532	399941 5377 2497 7608 53 95.75 172 -4.5 2.5 36.98334312439 227.8349238394
42531	405318 5477 2474 7608 52.75 95.75 173 5.6500000953674 15.5 2329.0993556976 32141.073680656
42530	410795 5743 2451 7608 52.5 95.75 174 486.85000610352 486.85000610352 84711.901062012 41241989.549081
42529	416538 5723 2451 7608 52.5 95.75 174 237.26916503906 814.67578887939 94536.067710876 56539137.010104
42512	422261 6342 1827 7824 44.25 97.75 215 0.973 12.099024792222 614.51765512031 3333.4253062684
42511	428603 5735 1827 7824 44.25 97.75 215 -7.4443788528442 4 40.887662887573 513.31727439733
42510	434338 6073 1807 7824 44 97.75 216 0 16.27499961853 2178.8039314747 31619.979755577
42509	440411 7145 1786 7824 43.75 97.75 217 184.17810058594 483.36395263672 90624.927032471 39791898.588015
42508	447556 7088 1786 7824 43.75 97.75 217 486.85000610352 733.3787689209 113542.12345886 60413553.622234
42498	454644 7108 1362 7932 38.75 98.75 241 0.973 11.200708441096 598.52370636936 2747.6568528937
42497	461752 6096 1362 7932 38.75 98.75 241 -36.064826965332 4 35.964826583862 1649.5354719975
42496	467848 6675 1341 7932 38.5 98.75 242 0 15.02499961853 2205.2020568848 30721.95931814
42495	474523 8009 1320 7932 38.25 98.75 243 237.70941162109 785.82187652588 124717.81557465 68277510.799113
42494	482532 8021 1320 7932 38.25 98.75 243 483.14999389648 483.14999389648 117405.44851685 56724441.734328
vector 42669  IntersectionExampleScenario.node[34].veinsmobility  posx  ETV
vector 42670  IntersectionExampleScenario.node[34].veinsmobility  posy  ETV
vector 42671  IntersectionExampleScenario.node[34].veinsmobility  speed  ETV
vector 42672  IntersectionExampleScenario.node[34].veinsmobility  acceleration  ETV
vector 42673  IntersectionExampleScenario.node[34].veinsmobility  co2emission  ETV
vector 42676  IntersectionExampleScenario.node[35].veinsmobility  posx  ETV
vector 42677  IntersectionExampleScenario.node[35].veinsmobility  posy  ETV
vector 42678  IntersectionExampleScenario.node[35].veinsmobility  speed  ETV
42568	491186 5261 3424 8370 61.75 103.25 167 0.973 11.326044437875 540.15935367855 3119.637270479
42567	496447 4897 3424 8370 61.75 103.25 167 -3.2590065002441 2.5 35.795072555542 331.65953613323
42566	501344 5248 3392 8370 61.5 103.25 168 5.6500000953674 15.200531005859 2179.4921112061 29416.915537955
42565	506592 5570 3359 8370 61.25 103.25 169 184.17810058594 483.15197753906 67255.220092773 28544960.111774
42564	512162 5581 3359 8370 61.25 103.25 169 486.85000610352 732.53651428223 90763.963119507 49706512.842488
vector 42679  IntersectionExampleScenario.node[35].veinsmobility  acceleration  ETV
vector 42680  IntersectionExampleScenario.node[35].veinsmobility  co2emission  ETV
vector 42683  IntersectionExampleScenario.node[36].veinsmobility  posx  ETV
vector 42684  IntersectionExampleScenario.node[36].veinsmobility  posy  ETV
vector 42690  IntersectionExampleScenario.node[37].veinsmobility  posx  ETV
vector 42691  IntersectionExampleScenario.node[37].veinsmobility  posy  ETV
vector 42685  IntersectionExampleScenario.node[36].veinsmobility  speed  ETV
vector 42686  IntersectionExampleScenario.node[36].veinsmobility  acceleration  ETV
vector 42687  IntersectionExampleScenario.node[36].veinsmobility  co2emission  ETV
vector 42692  IntersectionExampleScenario.node[37].veinsmobility  speed  ETV
vector 42693  IntersectionExampleScenario.node[37].veinsmobility  acceleration  ETV
vector 42694  IntersectionExampleScenario.node[37].veinsmobility  co2emission  ETV
42589	518714 4973 4138 8639 67.75 106.25 155 0.973 12.44402232946 526.31662610096 2876.3133723004
42588	523687 4783 4138 8639 67.75 106.25 155 -4.5 2.5 42.754949569702 251.70143348328
42587	528470 4919 4109 8639 67.5 106.25 156 5.6500000953674 16.75 2293.0741987228 34614.7337616
42586	533389 5181 4080 8639 67.25 106.25 157 164.33044433594 731.52424621582 68207.860015869 34029039.250554
42585	538570 5208 4080 8639 67.25 106.25 157 486.85000610352 486.85000610352 76435.450958252 37212599.76555
42596	543778 4937 4258 8702 68.75 107 154 0.94600815583079 12.26218747632 527.14356829131 3157.1970935794
42595	548715 4552 4258 8702 68.75 107 154 -3.4009628295898 2.5 41.566686630249 308.79114485506
42594	553267 4781 4227 8702 68.5 107 155 5.6500000953674 16.5 2182.2236566544 32366.971239504
42593	558048 5174 4196 8702 68.25 107 156 486.85000610352 785.82187652588 89355.981193542 52884314.199103
42592	563222 5172 4196 8702 68.25 107 156 237.2451171875 483.14999389648 67594.936920166 30169666.80581
vector 42697  IntersectionExampleScenario.node[38].veinsmobility  posx  ETV
vector 42698  IntersectionExampleScenario.node[38].veinsmobility  posy  ETV
vector 42699  IntersectionExampleScenario.node[38].veinsmobility  speed  ETV
vector 42700  IntersectionExampleScenario.node[38].veinsmobility  acceleration  ETV
vector 42701  IntersectionExampleScenario.node[38].veinsmobility  co2emission  ETV
42582	568795 5495 3822 8764 65 107.75 172 0.973 10.916047529558 485.21139952671 2355.3608222372
42581	574290 5099 3822 8764 65 107.75 172 -3.2176265716553 2.5 34.267293930054 231.20142679945
42580	579389 5432 3792 8764 64.75 107.75 173 5.6500000953674 14.625 2236.8608412743 29962.364948908
42579	584821 5748 3761 8764 64.5 107.75 174 172.9296875 483.25213623047 68562.69543457 29009242.559675
42578	590569 5766 3761 8764 64.5 107.75 174 486.85000610352 735.30323791504 93604.991790771 51371865.559248
vector 42704  IntersectionExampleScenario.node[39].veinsmobility  posx  ETV
vector 42705  IntersectionExampleScenario.node[39].veinsmobility  posy  ETV
vector 42706  IntersectionExampleScenario.node[39].veinsmobility  speed  ETV
vector 42707  IntersectionExampleScenario.node[39].veinsmobility  acceleration  ETV
vector 42708  IntersectionExampleScenario.node[39].veinsmobility  co2emission  ETV
42603	596736 5342 4555 9115 71.25 112 164 0.973 11.200708441096 463.2190192737 2215.8836626865
42602	602078 5054 4555 9115 71.25 112 164 -3.122745513916 2.5 35.455564498901 171.92536036956
42601	607132 5274 4524 9115 71 112 165 5.6500000953674 15.02499961853 2278.7250938416 31963.752382628
42600	612406 5504 4493 9115 70.75 112 166 236.66571044922 801.41563415527 87646.449188232 50927129.715502
42599	617910 5526 4493 9115 70.75 112 166 483.14999389648 483.14999389648 80202.898986816 38750030.155961
vector 42711  IntersectionExampleScenario.node[40].veinsmobility  posx  ETV
vector 42712  IntersectionExampleScenario.node[40].veinsmobility  posy  ETV
vector 42713  IntersectionExampleScenario.node[40].veinsmobility  speed  ETV
vector 42714  IntersectionExampleScenario.node[40].veinsmobility  acceleration  ETV
vector 42715  IntersectionExampleScenario.node[40].veinsmobility  co2emission  ETV
42631	623837 5174 5153 9371 75.75 115.5 160 0.973 11.648172402475 506.75602423781 2757.6051729246
42630	629011 4877 5153 9371 75.75 115.5 160 -3.6507358551025 2.5 38.341367721558 283.73221746045
42629	633888 5056 5118 9371 75.5 115.5 161 5.6500000953674 15.64999961853 2189.4922347069 31141.979885436
42628	638944 5382 5083 9371 75.25 115.5 162 184.17810058594 483.30804443359 64463.63861084 27399172.628478
42627	644326 5399 5083 9371 75.25 115.5 162 486.85000610352 734.33641052246 87143.98197937 47813975.578166
42554	649725 6713 3237 9456 60.25 116.75 227 0.973 11.810082123732 623.4616260971 3137.6443583442
42553	656438 6030 3237 9456 60.25 116.75 227 -7.6128120422363 4 40.887662887573 537.34523771366
42552	662468 6373 3208 9456 60 116.75 228 0 16.154155731201 2200.0830612183 32067.511918048
42551	668841 7552 3178 9456 59.75 116.75 229 486.85000610352 733.3787689209 119384.32350159 63257828.720725
42550	676393 7606 3178 9456 59.75 116.75 229 486.63604736328 791.18900299072 126335.91265869 71780556.31632
42547	683999 7128 3016 9524 58.25 117.75 239 0.973 11.200708441096 606.89931218918 2758.9106720121
42546	691127 6294 3016 9524 58.25 117.75 239 -44.966133117676 4 37.32285118103 2308.9161741154
42545	697421 6793 2989 9524 58 117.75 240 0 15.309178352356 2212.8080539703 31402.135833154
42544	704214 8026 2962 9524 57.75 117.75 241 483.14999389648 483.14999389648 116439.14852905 56257573.901123
42543	712240 7983 2962 9524 57.75 117.75 241 184.17810058594 734.28401184082 110180.57827759 54617104.285418
vector 42718  IntersectionExampleScenario.node[41].veinsmobility  posx  ETV
vector 42719  IntersectionExampleScenario.node[41].veinsmobility  posy  ETV
42575	720377 7115 3490 9575 62.25 118.5 226 0.973 11.36141391502 602.69197079431 2884.9047967318
42574	727492 7066 3490 9575 62.25 118.5 226 -4.5 2.5 39.359884262085 432.90738439006
42573	734558 7120 3457 9575 62 118.5 227 0 15.537075996399 2119.1712284423 29429.219928811
42572	741678 7575 3424 9575 61.75 118.5 228 237.59375 483.14999389648 102145.30856323 46786984.208073
42571	749253 7579 3424 9575 61.75 118.5 228 199.59295654297 483.14999389648 96265.929290771 42335998.501107
vector 42720  IntersectionExampleScenario.node[41].veinsmobility  speed  ETV
vector 42721  IntersectionExampleScenario.node[41].veinsmobility  acceleration  ETV
vector 42722  IntersectionExampleScenario.node[41].veinsmobility  co2emission  ETV
vector 42725  IntersectionExampleScenario.node[42].veinsmobility  posx  ETV
vector 42726  IntersectionExampleScenario.node[42].veinsmobility  posy  ETV
vector 42727  IntersectionExampleScenario.node[42].veinsmobility  speed  ETV
42617	757311 5929 4721 9711 72.5 120.25 192 0.973 11.36141391502 535.98471666475 2696.9828474072
42616	763240 6091 4721 9711 72.5 120.25 192 -2.1334800720215 2.5 36.98334312439 282.76711780758
42615	769331 6178 4688 9711 72.25 120.25 193 2.4502146244049 15.25 2185.9589936733 28395.766663638
42614	775509 6468 4654 9711 72 120.25 194 486.85000610352 733.67381286621 102848.28741455 55539131.497218
42613	781977 6474 4654 9711 72 120.25 194 486.85000610352 785.82187652588 109606.62622833 63757382.417246
vector 42728  IntersectionExampleScenario.node[42].veinsmobility  acceleration  ETV
vector 42729  IntersectionExampleScenario.node[42].veinsmobility  co2emission  ETV
42561	788620 7541 3328 9795 61 121.25 242 0.973 11.810082123732 621.64449316429 2949.8478573221
42560	796161 7770 3328 9795 61 121.25 242 -4.5 2.5000019073486 38.511121749878 441.1826040673
42559	803931 7738 3297 9795 60.75 121.25 243 0 15.875 2234.5800418463 29573.122303718
42558	811669 8125 3266 9795 60.5 121.25 244 238.30651855469 483.14999389648 109818.84460449 50472676.245074
42557	819794 8121 3266 9795 60.5 121.25 244 169.95465087891 483.28302001953 99250.365386963 42757466.778502
vector 42732  IntersectionExampleScenario.node[43].veinsmobility  posx  ETV
vector 42733  IntersectionExampleScenario.node[43].veinsmobility  posy  ETV
42638	828069 5675 5402 9853 77.5 122 179 0.973 11.093806525473 520.90091836382 2693.520237166
42637	833744 5583 5402 9853 77.5 122 179 -3.106876373291 2.5 34.77654838562 284.21677073063
42636	839327 5796 5365 9853 77.25 122 180 5.5686364173889 14.875 2208.1623482704 28571.85620378
42635	845123 6060 5328 9853 77 122 181 486.85000610352 486.85000610352 88119.851104736 42901150.048182
42634	851183 6029 5328 9853 77 122 181 238.40063476562 785.82187652588 94882.551422119 54052140.473657
vector 42734  IntersectionExampleScenario.node[43].veinsmobility  speed  ETV
vector 42735  IntersectionExampleScenario.node[43].veinsmobility  acceleration  ETV
vector 42736  IntersectionExampleScenario.node[43].veinsmobility  co2emission  ETV
42610	857459 6295 4621 9979 71.75 123.5 208 0.973 11.450879080643 560.13805282403 2820.9657836448
42609	863754 6545 4621 9979 71.75 123.5 208 -3.1247482299805 2.5 37.32285118103 314.50179560612
42608	870299 6702 4588 9979 71.5 123.5 209 1.355104804039 15.375 2211.2962143421 28424.472893999
42607	877001 7014 4555 9979 71.25 123.5 210 483.14999389648 733.45683288574 110024.79502869 58724346.071051
42606	884015 6987 4555 9979 71.25 123.5 210 184.17810058594 486.85000610352 85542.185424805 36714241.887093
42624	891002 6269 5083 10147 75.25 125.5 202 0.973 11.810082123732 579.07782820002 3043.0234433988
42623	897271 6451 5083 10147 75.25 125.5 202 -3.9757118225098 2.5 38.680875778198 372.42332217192
42622	903722 6466 5050 10147 75 125.5 203 3.2050337791443 15.875 2217.3582551479 28819.203257183
42621	910188 6841 5017 10147 74.75 125.5 204 238.13146972656 483.14999389648 90503.782287598 41145160.151063
42620	917029 6814 5017 10147 74.75 125.5 204 174.53436279297 483.14999389648 81657.129486084 34620936.947757
vector 42739  IntersectionExampleScenario.node[44].veinsmobility  posx  ETV
vector 42740  IntersectionExampleScenario.node[44].veinsmobility  posy  ETV
vector 42741  IntersectionExampleScenario.node[44].veinsmobility  speed  ETV
vector 42742  IntersectionExampleScenario.node[44].veinsmobility  acceleration  ETV
vector 42743  IntersectionExampleScenario.node[44].veinsmobility  co2emission  ETV
42645	924244 5198 6730 10360 88.25 128 160 0.973 11.200708441096 483.51619204984 2519.437337083
42644	929442 5252 6730 10360 88.25 128 160 -3.162956237793 2.5 37.15309715271 222.27132988311
42643	934694 5381 6701 10360 88 128 161 5.6500000953674 15.285373687744 2212.8123245239 31262.804120727
42642	940075 5474 6672 10360 87.75 128 162 235.37036132812 486.85000610352 70200.921905518 31409643.698849
42641	945549 5465 6672 10360 87.75 128 162 483.14999389648 785.82187652588 92587.754859924 54715055.180656
42652	951014 5204 6794 10477 88.75 129.5 164 0.973 11.648172402475 530.24375028443 3063.2456304916
42651	956218 5244 6794 10477 88.75 129.5 164 -3.1004314422607 2.5 38.001859664917 285.34634244286
42650	961462 5398 6761 10477 88.5 129.5 165 5.6500000953674 15.64999961853 2187.5428967476 30314.570737234
42649	966860 5614 6730 10477 88.25 129.5 166 236.02130126953 483.14999389648 71888.971374512 32078104.963484
42648	972474 5603 6730 10477 88.25 129.5 166 184.17810058594 483.14999389648 66093.96887207 28073815.933971
vector 42746  IntersectionExampleScenario.node[45].veinsmobility  posx  ETV
vector 42747  IntersectionExampleScenario.node[45].veinsmobility  posy  ETV
vector 42748  IntersectionExampleScenario.node[45].veinsmobility  speed  ETV
vector 42749  IntersectionExampleScenario.node[45].veinsmobility  acceleration  ETV
vector 42750  IntersectionExampleScenario.node[45].veinsmobility  co2emission  ETV
42659	978478 5635 6827 10633 89 131.5 171 0.973 11.253398228491 529.74862516542 2782.0838646185
42658	984113 5350 6827 10633 89 131.5 171 -4.0435333251953 2.5 35.795072555542 316.99792758708
42657	989463 5530 6794 10633 88.75 131.5 172 5.6500000953674 15.098834991455 2272.7422657013 31174.711757882
42656	994993 5852 6761 10633 88.5 131.5 173 486.85000610352 732.52604675293 92710.3490448 50653437.189058
42655	1000845 5857 6761 10633 88.5 131.5 173 486.85000610352 808.82032012939 100684.48160553 60765991.730366
vector 42753  IntersectionExampleScenario.node[46].veinsmobility  posx  ETV
vector 42754  IntersectionExampleScenario.node[46].veinsmobility  posy  ETV
vector 42755  IntersectionExampleScenario.node[46].veinsmobility  speed  ETV
vector 42756  IntersectionExampleScenario.node[46].veinsmobility  acceleration  ETV
vector 42757  IntersectionExampleScenario.node[46].veinsmobility  co2emission  ETV
vector 42760  IntersectionExampleScenario.node[47].veinsmobility  posx  ETV
vector 42761  IntersectionExampleScenario.node[47].veinsmobility  posy  ETV
vector 42762  IntersectionExampleScenario.node[47].veinsmobility  speed  ETV
vector 42763  IntersectionExampleScenario.node[47].veinsmobility  acceleration  ETV
vector 42764  IntersectionExampleScenario.node[47].veinsmobility  co2emission  ETV
42666	1007504 5535 7524 11113 95 137 169 0.973 11.648172402475 546.14045434282 3014.8038131488
42665	1013039 5168 7524 11113 95 137 169 -8.560094833374 4 38.850629806519 506.24965447499
42664	1018207 5490 7495 11113 94.75 137 170 0 15.64999961853 2203.214474678 31492.427332584
42663	1023697 5829 7466 11113 94.5 137 171 238.74694824219 785.82187652588 88984.87122345 50386929.826544
42662	1029526 5845 7466 11113 94.5 137 171 483.14999389648 483.14999389648 82618.648956299 39917199.738971
vector 42767  IntersectionExampleScenario.node[48].veinsmobility  posx  ETV
vector 42768  IntersectionExampleScenario.node[48].veinsmobility  posy  ETV
vector 42769  IntersectionExampleScenario.node[48].veinsmobility  speed  ETV
vector 42774  IntersectionExampleScenario.node[49].veinsmobility  posx  ETV
vector 42775  IntersectionExampleScenario.node[49].veinsmobility  posy  ETV
vector 42770  IntersectionExampleScenario.node[48].veinsmobility  acceleration  ETV
vector 42771  IntersectionExampleScenario.node[48].veinsmobility  co2emission  ETV
vector 42776  IntersectionExampleScenario.node[49].veinsmobility  speed  ETV
vector 42777  IntersectionExampleScenario.node[49].veinsmobility  acceleration  ETV
vector 42778  IntersectionExampleScenario.node[49].veinsmobility  co2emission  ETV
vector 42781  IntersectionExampleScenario.node[50].veinsmobility  posx  ETV
vector 42782  IntersectionExampleScenario.node[50].veinsmobility  posy  ETV
vector 42783  IntersectionExampleScenario.node[50].veinsmobility  speed  ETV
42680	1036405 5194 8392 11538 103.5 142 155 0.973 11.90022389248 500.52554855579 2781.3659964429
42679	1041599 4698 8392 11538 103.5 142 155 -3.2846527099609 2.5 39.869146347046 241.68198894314
42678	1046297 5079 8370 11538 103.25 142 156 5.6500000953674 16 2213.0224189758 32437.108865515
42677	1051376 5389 8347 11538 103 142 157 184.17810058594 486.85000610352 62504.023132324 26643239.540765
42676	1056765 5395 8347 11538 103 142 157 235.76922607422 486.85000610352 68152.313781738 30531874.819582
vector 42784  IntersectionExampleScenario.node[50].veinsmobility  acceleration  ETV
vector 42785  IntersectionExampleScenario.node[50].veinsmobility  co2emission  ETV
42687	1062329 5316 8482 11703 104.5 144 159 0.973 12.26218747632 550.80902770845 3152.869298476
42686	1067645 4779 8482 11703 104.5 144 159 -4.5 2.5 42.754949569702 321.60867628144
42685	1072424 5185 8457 11703 104.25 144 160 5.6500000953674 16.5 2270.2826786041 33991.584862637
42684	1077609 5527 8434 11703 104 144 161 162.00311279297 483.14999389648 62551.273742676 26334562.179649
42683	1083136 5546 8434 11703 104 144 161 486.85000610352 732.02432250977 85990.819915771 46804166.097153
vector 42788  IntersectionExampleScenario.node[51].veinsmobility  posx  ETV
vector 42789  IntersectionExampleScenario.node[51].veinsmobility  posy  ETV
vector 42790  IntersectionExampleScenario.node[51].veinsmobility  speed  ETV
vector 42791  IntersectionExampleScenario.node[51].veinsmobility  acceleration  ETV
vector 42792  IntersectionExampleScenario.node[51].veinsmobility  co2emission  ETV
42708	1089083 5066 8931 11911 109.75 147 150 0.96333723109819 12.099024792222 483.67957891873 2736.7556920032
42707	1094149 4734 8931 11911 109.75 147 150 -3.4488220214844 2.5 40.208654403687 215.41585690974
42706	1098883 4988 8910 11911 109.5 147 151 5.6500000953674 16.27499961853 2211.3263587952 33126.279331206
42705	1103871 5231 8889 11911 109.25 147 152 238.3134765625 785.82187652588 79462.497550964 45556961.624971
42704	1109102 5262 8889 11911 109.25 147 152 483.14999389648 483.14999389648 73438.799072266 35481955.32353
vector 42795  IntersectionExampleScenario.node[52].veinsmobility  posx  ETV
vector 42796  IntersectionExampleScenario.node[52].veinsmobility  posy  ETV
vector 42797  IntersectionExampleScenario.node[52].veinsmobility  speed  ETV
vector 42798  IntersectionExampleScenario.node[52].veinsmobility  acceleration  ETV
vector 42799  IntersectionExampleScenario.node[52].veinsmobility  co2emission  ETV
42715	1114765 5456 9209 12367 113.25 153.5 162 0.973 11.648172402475 510.45864071624 2751.2040038807
42714	1120221 4917 9209 12367 113.25 153.5 162 -3.38916015625 2.5 38.341367721558 274.39826904086
42713	1125138 5353 9190 12367 113 153.5 163 5.6500000953674 15.64999961853 2221.9130125046 31629.334836282
42712	1130491 5689 9171 12367 112.75 153.5 164 486.85000610352 795.46562957764 94499.180557251 56340105.312409
42711	1136180 5691 9171 12367 112.75 153.5 164 237.01239013672 483.14999389648 71061.122253418 31720614.519635
vector 42802  IntersectionExampleScenario.node[53].veinsmobility  posx  ETV
vector 42803  IntersectionExampleScenario.node[53].veinsmobility  posy  ETV
vector 42809  IntersectionExampleScenario.node[54].veinsmobility  posx  ETV
vector 42810  IntersectionExampleScenario.node[54].veinsmobility  posy  ETV
vector 42804  IntersectionExampleScenario.node[53].veinsmobility  speed  ETV
vector 42811  IntersectionExampleScenario.node[54].veinsmobility  speed  ETV
vector 42805  IntersectionExampleScenario.node[53].veinsmobility  acceleration  ETV
vector 42806  IntersectionExampleScenario.node[53].veinsmobility  co2emission  ETV
vector 42812  IntersectionExampleScenario.node[54].veinsmobility  acceleration  ETV
vector 42813  IntersectionExampleScenario.node[54].veinsmobility  co2emission  ETV
vector 42816  IntersectionExampleScenario.node[55].veinsmobility  posx  ETV
vector 42817  IntersectionExampleScenario.node[55].veinsmobility  posy  ETV
42673	1142827 7043 8087 12615 100.25 156.5 226 0.973 11.36141391502 584.10598256408 2800.8165627943
42672	1149870 6387 8087 12615 100.25 156.5 226 -8.4870233535767 4 37.15309715271 476.36027920365
42671	1156257 6735 8060 12615 100 156.5 227 0 15.25 2176.74477458 30094.703439055
42670	1162992 7818 8033 12615 99.75 156.5 228 236.84155273438 483.14999389648 101820.86029053 46532297.566096
42669	1170810 7864 8033 12615 99.75 156.5 228 184.17810058594 483.36395263672 95371.992614746 41904622.127465
42694	1178674 6613 8507 12615 104.75 156.5 208 0.973 11.450879080643 573.12720488771 2841.5732081692
42693	1185287 5886 8507 12615 104.75 156.5 208 -6.998438835144 4 37.492597579956 469.58309252326
42692	1191173 6430 8482 12615 104.5 156.5 209 0 15.375 2215.8640432358 31072.668143386
42691	1197603 7273 8457 12615 104.25 156.5 210 486.85000610352 486.85000610352 102238.50128174 49774814.973028
42690	1204876 7260 8457 12615 104.25 156.5 210 235.61877441406 785.82187652588 108212.70587921 59990599.694115
vector 42818  IntersectionExampleScenario.node[55].veinsmobility  speed  ETV
vector 42819  IntersectionExampleScenario.node[55].veinsmobility  acceleration  ETV
vector 42820  IntersectionExampleScenario.node[55].veinsmobility  co2emission  ETV
vector 42823  IntersectionExampleScenario.node[56].veinsmobility  posx  ETV
vector 42824  IntersectionExampleScenario.node[56].veinsmobility  posy  ETV
42701	1212537 6615 8764 12733 107.75 157.75 201 0.973 12.130404466849 601.18563936021 3058.0920519593
42700	1219152 6847 8764 12733 107.75 157.75 201 -4.5 2.5 42.17328453064 428.59684703035
42699	1225999 6969 8743 12733 107.5 157.75 202 0 16.318321228027 2260.2606416121 31982.844637468
42698	1232968 7028 8722 12733 107.25 157.75 203 236.39703369141 486.85000610352 90536.25567627 41424920.401951
42697	1239996 7020 8722 12733 107.25 157.75 203 482.90353393555 798.59687805176 114134.75080872 66294598.021992
vector 42830  IntersectionExampleScenario.node[57].veinsmobility  posx  ETV
vector 42831  IntersectionExampleScenario.node[57].veinsmobility  posy  ETV
vector 42825  IntersectionExampleScenario.node[56].veinsmobility  speed  ETV
vector 42837  IntersectionExampleScenario.node[58].veinsmobility  posx  ETV
vector 42838  IntersectionExampleScenario.node[58].veinsmobility  posy  ETV
vector 42826  IntersectionExampleScenario.node[56].veinsmobility  acceleration  ETV
vector 42827  IntersectionExampleScenario.node[56].veinsmobility  co2emission  ETV
vector 42832  IntersectionExampleScenario.node[57].veinsmobility  speed  ETV
vector 42844  IntersectionExampleScenario.node[59].veinsmobility  posx  ETV
vector 42845  IntersectionExampleScenario.node[59].veinsmobility  posy  ETV
vector 42833  IntersectionExampleScenario.node[57].veinsmobility  acceleration  ETV
vector 42834  IntersectionExampleScenario.node[57].veinsmobility  co2emission  ETV
vector 42839  IntersectionExampleScenario.node[58].veinsmobility  speed  ETV
vector 42840  IntersectionExampleScenario.node[58].veinsmobility  acceleration  ETV
vector 42841  IntersectionExampleScenario.node[58].veinsmobility  co2emission  ETV
vector 42846  IntersectionExampleScenario.node[59].veinsmobility  speed  ETV
vector 42847  IntersectionExampleScenario.node[59].veinsmobility  acceleration  ETV
vector 42848  IntersectionExampleScenario.node[59].veinsmobility  co2emission  ETV
42729	1248466 5255 9732 12969 120.5 159.75 158 0.96997852711604 12.44402232946 528.17278961302 3071.8426038073
42728	1253721 5151 9732 12969 120.5 159.75 158 -4.109619140625 2.5 42.585195541382 234.32584340123
42727	1258872 5301 9711 12969 120.25 159.75 159 5.6500000953674 16.75 2291.9371490479 34102.50940067
42726	1264173 5585 9690 12969 120 159.75 160 483.14999389648 483.14999389648 77303.999023438 37349426.656348
42725	1269758 5552 9690 12969 120 159.75 160 163.88433837891 731.18041992188 69680.803924561 34703623.206683
42722	1275310 5466 9613 13031 119 160.25 166 0.973 11.648172402475 551.98423390614 3317.8620557596
42721	1280776 5338 9613 13031 119 160.25 166 -3.5896949768066 2.5 38.511121749878 346.33270695006
42720	1286114 5504 9594 13031 118.75 160.25 167 5.6500000953674 15.856020927429 2188.4651250839 30160.402118345
42719	1291618 5851 9575 13031 118.5 160.25 168 235.31494140625 483.14999389648 72909.589385986 32596408.116867
42718	1297469 5838 9575 13031 118.5 160.25 168 184.17810058594 483.15676879883 66940.042205811 28419179.784877
42736	1303307 5217 9895 13087 122.5 160.75 154 0.973 11.648172402475 503.57059876027 2910.2331832078
42735	1308524 4944 9895 13087 122.5 160.75 154 -3.1687622070312 2.5 38.850629806519 235.25397521796
42734	1313468 5194 9874 13087 122.25 160.75 155 5.6500000953674 15.64999961853 2212.7829465866 32253.431501742
42733	1318662 5453 9853 13087 122 160.75 156 486.85000610352 486.85000610352 75948.600952148 36975576.837107
42732	1324115 5442 9853 13087 122 160.75 156 238.01489257812 785.82187652588 81532.088539124 46706091.07624
vector 42851  IntersectionExampleScenario.node[60].veinsmobility  posx  ETV
vector 42852  IntersectionExampleScenario.node[60].veinsmobility  posy  ETV
vector 42853  IntersectionExampleScenario.node[60].veinsmobility  speed  ETV
vector 42854  IntersectionExampleScenario.node[60].veinsmobility  acceleration  ETV
vector 42855  IntersectionExampleScenario.node[60].veinsmobility  co2emission  ETV
vector 42858  IntersectionExampleScenario.node[61].veinsmobility  posx  ETV
vector 42859  IntersectionExampleScenario.node[61].veinsmobility  posy  ETV
vector 42860  IntersectionExampleScenario.node[61].veinsmobility  speed  ETV
42764	1330190 5367 10838 14210 134 173 157 0.973 11.54047740176 464.515727801 2331.5343583805
42763	1335557 4856 10838 14210 134 173 157 -3.6199226379395 2.5 36.98334312439 185.99752778846
42762	1340413 5276 10815 14210 133.75 173 158 5.6500000953674 15.5 2220.1633729935 31769.099536895
42761	1345689 5564 10792 14210 133.5 173 159 483.14999389648 483.14999389648 76820.849029541 37115992.739745
42760	1351253 5526 10792 14210 133.5 173 159 184.17810058594 734.11010742188 71456.595001221 36341496.178864
vector 42861  IntersectionExampleScenario.node[61].veinsmobility  acceleration  ETV
vector 42862  IntersectionExampleScenario.node[61].veinsmobility  co2emission  ETV
vector 42865  IntersectionExampleScenario.node[62].veinsmobility  posx  ETV
vector 42866  IntersectionExampleScenario.node[62].veinsmobility  posy  ETV
vector 42867  IntersectionExampleScenario.node[62].veinsmobility  speed  ETV
vector 42868  IntersectionExampleScenario.node[62].veinsmobility  acceleration  ETV
vector 42869  IntersectionExampleScenario.node[62].veinsmobility  co2emission  ETV
42743	1357349 6527 10213 14531 126.25 176.5 202 0.973 11.450879080643 564.14864826173 2823.8008456787
42742	1363876 5984 10213 14531 126.25 176.5 202 -8.487024307251 4 37.15309715271 481.82413438468
42741	1369860 6385 10191 14531 126 176.5 203 0 15.375 2210.497877121 30840.213827553
42740	1376245 7114 10168 14531 125.75 176.5 204 184.17810058594 733.24285888672 92580.28527832 46233972.907804
42739	1383359 7140 10168 14531 125.75 176.5 204 486.85000610352 486.85000610352 99317.401245117 48352677.40237
42750	1390499 6032 10633 14554 131.5 176.75 182 0.973 11.450879080643 542.56466054424 2838.609817514
42749	1396531 5938 10633 14554 131.5 176.75 182 -9.4251794815063 4 36.474081039429 503.02099696695
42748	1402469 5978 10612 14554 131.25 176.75 183 0 15.375 2217.7371029854 30692.395345797
42747	1408447 6423 10591 14554 131 176.75 184 235.31634521484 785.82187652588 95199.472389221 53529293.926447
42746	1414870 6440 10591 14554 131 176.75 184 483.14999389648 483.14999389648 88899.598876953 42951840.6548
42757	1421310 5881 10771 14669 133.25 178 180 0.973 11.200708441096 545.86913434537 2777.6971590229
42756	1427191 6116 10771 14669 133.25 178 180 -2.6431465148926 2.5 39.869146347046 285.14500874821
42755	1433307 6197 10750 14669 133 178 181 2.6946659088135 15.682401657104 2219.8786203861 30690.570693389
42754	1439504 6313 10729 14669 132.75 178 182 184.17810058594 734.26011657715 81625.008834839 40714005.449774
42753	1445817 6369 10729 14669 132.75 178 182 486.85000610352 486.85000610352 88606.70111084 43138172.976625
42771	1452186 5287 11366 14822 140 179.75 160 0.973 12.099024792222 571.62053805721 3664.7623765642
42770	1457473 4900 11366 14822 140 179.75 160 -3.6782569885254 2.5 40.887662887573 386.03285161598
42769	1462373 5321 11345 14822 139.75 179.75 161 5.6500000953674 16.27499961853 2183.2156572342 31199.358496524
42768	1467694 5665 11323 14822 139.5 179.75 162 486.66342163086 785.82187652588 92704.1251297 54760285.81754
42767	1473359 5660 11323 14822 139.5 179.75 162 236.9404296875 483.14999389648 70398.470947266 31496290.175131
42778	1479019 5590 11411 14956 140.5 181.5 165 0.973 11.94985325204 539.21025949671 2938.6754264109
42777	1484609 5446 11411 14956 140.5 181.5 165 -4.5 2.5 39.359884262085 282.70590334534
42776	1490055 5592 11389 14956 140.25 181.5 166 5.6500000953674 16.068759918213 2307.9804115295 32901.829236524
42775	1495647 5815 11366 14956 140 181.5 167 238.27038574219 809.56562805176 89640.302314758 52790036.452898
42774	1501462 5844 11366 14956 140 181.5 167 483.14999389648 483.14999389648 80686.048980713 38983464.072563
vector 42872  IntersectionExampleScenario.node[63].veinsmobility  posx  ETV
vector 42873  IntersectionExampleScenario.node[63].veinsmobility  posy  ETV
vector 42874  IntersectionExampleScenario.node[63].veinsmobility  speed  ETV
vector 42875  IntersectionExampleScenario.node[63].veinsmobility  acceleration  ETV
vector 42876  IntersectionExampleScenario.node[63].veinsmobility  co2emission  ETV
vector 42879  IntersectionExampleScenario.node[64].veinsmobility  posx  ETV
vector 42880  IntersectionExampleScenario.node[64].veinsmobility  posy  ETV
42785	1507861 5918 11559 15212 142.25 186 176 0.973 11.230973202002 531.93083570231 2679.3131206522
42784	1513779 5763 11559 15212 142.25 186 176 -3.6990833282471 2.5 35.96559715271 287.34127391048
42783	1519542 5885 11538 15212 142 186 177 5.5649304389954 15.06741809845 2304.1721568108 31128.477893584
42782	1525427 6218 11516 15212 141.75 186 178 486.85000610352 816.93576812744 104208.07923889 63345022.540341
42781	1531645 6222 11516 15212 141.75 186 178 237.60217285156 483.14999389648 77498.916290283 34724106.245023
vector 42886  IntersectionExampleScenario.node[65].veinsmobility  posx  ETV
vector 42887  IntersectionExampleScenario.node[65].veinsmobility  posy  ETV
vector 42881  IntersectionExampleScenario.node[64].veinsmobility  speed  ETV
vector 42882  IntersectionExampleScenario.node[64].veinsmobility  acceleration  ETV
vector 42883  IntersectionExampleScenario.node[64].veinsmobility  co2emission  ETV
vector 42888  IntersectionExampleScenario.node[65].veinsmobility  speed  ETV
vector 42889  IntersectionExampleScenario.node[65].veinsmobility  acceleration  ETV
vector 42890  IntersectionExampleScenario.node[65].veinsmobility  co2emission  ETV
vector 42893  IntersectionExampleScenario.node[66].veinsmobility  posx  ETV
vector 42894  IntersectionExampleScenario.node[66].veinsmobility  posy  ETV
vector 42895  IntersectionExampleScenario.node[66].veinsmobility  speed  ETV
vector 42896  IntersectionExampleScenario.node[66].veinsmobility  acceleration  ETV
vector 42897  IntersectionExampleScenario.node[66].veinsmobility  co2emission  ETV
42799	1538916 5101 12272 15429 152.25 189.5 150 0.973 12.353032912318 522.92831318485 3066.6250482196
42798	1544017 4820 12272 15429 152.25 189.5 150 -3.4535942077637 2.5 42.924703598022 266.79147686236
42797	1548837 4981 12253 15429 152 189.5 151 5.6500000953674 16.681694030762 2215.7020606995 33768.198785381
42796	1553818 5307 12234 15429 151.75 189.5 152 483.13946533203 785.82187652588 87032.252418518 51558316.99303
42795	1559125 5315 12234 15429 151.75 189.5 152 483.14999389648 734.86224365234 81398.787445068 44505665.240814
vector 42900  IntersectionExampleScenario.node[67].veinsmobility  posx  ETV
vector 42901  IntersectionExampleScenario.node[67].veinsmobility  posy  ETV
vector 42902  IntersectionExampleScenario.node[67].veinsmobility  speed  ETV
vector 42903  IntersectionExampleScenario.node[67].veinsmobility  acceleration  ETV
vector 42904  IntersectionExampleScenario.node[67].veinsmobility  co2emission  ETV
vector 42907  IntersectionExampleScenario.node[68].veinsmobility  posx  ETV
vector 42908  IntersectionExampleScenario.node[68].veinsmobility  posy  ETV
42813	1564995 5386 12546 15822 155.75 195.5 160 0.973 11.810082123732 512.97230283001 2871.6482678768
42812	1570381 5171 12546 15822 155.75 195.5 160 -3.0542678833008 2.5 39.020376205444 282.05076236263
42811	1575552 5311 12523 15822 155.5 195.5 161 5.6500000953674 15.875 2183.4867882729 31115.981602832
42810	1580863 5645 12500 15822 155.25 195.5 162 237.05902099609 483.14999389648 70181.304046631 31321978.080356
42809	1586508 5641 12500 15822 155.25 195.5 162 184.17810058594 483.14999389648 64489.131134033 27412295.95802
42792	1592149 6450 11843 15822 146 195.5 199 0.973 11.450879080643 561.44233528983 2830.3715687894
42791	1598599 6089 11843 15822 146 195.5 199 -7.7619590759277 4 37.15309715271 476.47684808977
42790	1604688 6319 11826 15822 145.75 195.5 200 0 15.375 2210.766459465 30861.175456045
42789	1611007 7035 11809 15822 145.5 195.5 201 486.85000610352 486.85000610352 97856.851226807 47641608.617041
42788	1618042 7023 11809 15822 145.5 195.5 201 236.75714111328 785.82187652588 103800.794487 57822800.897078
vector 42909  IntersectionExampleScenario.node[68].veinsmobility  speed  ETV
vector 42910  IntersectionExampleScenario.node[68].veinsmobility  acceleration  ETV
vector 42911  IntersectionExampleScenario.node[68].veinsmobility  co2emission  ETV
42848	1625312 5286 12876 16014 159 198.25 158 0.97223939240464 11.810082123732 496.86095387498 2819.0631224372
42847	1630598 5167 12876 16014 159 198.25 158 -4.4966049194336 2.5 38.680875778198 270.85767389244
42846	1635765 5229 12845 16014 158.75 198.25 159 5.6500000953674 15.875 2147.7244448662 30400.489162011
42845	1640994 5595 12814 16014 158.5 198.25 160 238.03485107422 483.14999389648 69238.059082031 30868744.066832
42844	1646589 5578 12814 16014 158.5 198.25 160 192.13433837891 483.14999389648 64146.628173828 27341018.364681
42806	1652167 5737 12546 16047 155.75 198.75 173 0.973 11.200708441096 509.58102998032 2635.629704613
42805	1657904 5719 12546 16047 155.75 198.75 173 -2.7733154296875 2.5 35.285810470581 253.90423456678
42804	1663623 5944 12523 16047 155.5 198.75 174 5.6500000953674 15.02499961853 2217.9664325714 29397.841445332
42803	1669567 6127 12500 16047 155.25 198.75 175 486.85000610352 486.85000610352 85198.751068115 41479012.477524
42802	1675694 6084 12500 16047 155.25 198.75 175 236.24609375 785.82187652588 91184.595695496 51825501.388824
42820	1681778 5893 12664 16122 157 200 173 0.973 11.200708441096 531.03831043342 2544.6691188772
42819	1687671 5764 12664 16122 157 200 173 -4.5 2.5 38.173269271851 309.92377992146
42818	1693435 5916 12640 16122 156.75 200 174 5.6500000953674 15.26034450531 2293.8126039505 31646.556242057
42817	1699351 6124 12615 16122 156.5 200 175 486.85000610352 486.85000610352 85198.751068115 41479012.477524
42816	1705475 6103 12615 16122 156.5 200 175 238.70666503906 807.09531402588 93364.94442749 54411487.470327
vector 42914  IntersectionExampleScenario.node[69].veinsmobility  posx  ETV
vector 42915  IntersectionExampleScenario.node[69].veinsmobility  posy  ETV
42827	1711732 5785 12785 16167 158.25 200.75 171 0.973 11.450879080643 537.07730982982 2936.1738751023
42826	1717517 5614 12785 16167 158.25 200.75 171 -4.5 2.5 36.98334312439 316.13178043051
42825	1723131 5741 12758 16167 158 200.75 172 5.5490398406982 15.375 2268.7223529816 31223.964029862
42824	1728872 6053 12733 16167 157.75 200.75 173 483.14999389648 732.24955749512 92111.043701172 50038636.178996
42823	1734925 6046 12733 16167 157.75 200.75 173 168.58435058594 486.85000610352 66810.61151123 28057613.908828
vector 42916  IntersectionExampleScenario.node[69].veinsmobility  speed  ETV
vector 42921  IntersectionExampleScenario.node[70].veinsmobility  posx  ETV
vector 42922  IntersectionExampleScenario.node[70].veinsmobility  posy  ETV
vector 42917  IntersectionExampleScenario.node[69].veinsmobility  acceleration  ETV
vector 42918  IntersectionExampleScenario.node[69].veinsmobility  co2emission  ETV
vector 42923  IntersectionExampleScenario.node[70].veinsmobility  speed  ETV
vector 42924  IntersectionExampleScenario.node[70].veinsmobility  acceleration  ETV
vector 42925  IntersectionExampleScenario.node[70].veinsmobility  co2emission  ETV
42834	1741619 6116 12814 16353 158.5 203.25 180 0.973 11.36141391502 552.80398866118 2749.5365988277
42833	1747735 5594 12814 16353 158.5 203.25 180 -4.5 2.5 38.341367721558 298.87963413415
42832	1753329 6025 12785 16353 158.25 203.25 181 5.6500000953674 15.25 2317.9287338257 31576.452170461
42831	1759354 6368 12758 16353 158 203.25 182 235.69476318359 483.14999389648 79661.21862793 35850740.187347
42830	1765722 6352 12758 16353 158 203.25 182 151.97033691406 483.29583740234 68583.976409912 28445046.565712
vector 42928  IntersectionExampleScenario.node[71].veinsmobility  posx  ETV
vector 42929  IntersectionExampleScenario.node[71].veinsmobility  posy  ETV
vector 42930  IntersectionExampleScenario.node[71].veinsmobility  speed  ETV
42855	1772306 5234 13735 16526 167.5 205.5 153 0.973 11.648172402475 475.65371902369 2510.2621128721
42854	1777540 5035 13735 16526 167.5 205.5 153 -3.2936019897461 2.5 39.020376205444 197.45797135588
42853	1782575 5163 13712 16526 167.25 205.5 154 5.6500000953674 15.64999961853 2223.1588878632 32764.288650205
42852	1787738 5424 13689 16526 167 205.5 155 486.85000610352 486.85000610352 75461.750946045 36738553.908664
42851	1793162 5407 13689 16526 167 205.5 155 235.30889892578 785.82187652588 80752.601570129 46209570.797599
vector 42931  IntersectionExampleScenario.node[71].veinsmobility  acceleration  ETV
vector 42932  IntersectionExampleScenario.node[71].veinsmobility  co2emission  ETV
vector 42935  IntersectionExampleScenario.node[72].veinsmobility  posx  ETV
vector 42936  IntersectionExampleScenario.node[72].veinsmobility  posy  ETV
vector 42942  IntersectionExampleScenario.node[73].veinsmobility  posx  ETV
vector 42943  IntersectionExampleScenario.node[73].veinsmobility  posy  ETV
vector 42937  IntersectionExampleScenario.node[72].veinsmobility  speed  ETV
vector 42938  IntersectionExampleScenario.node[72].veinsmobility  acceleration  ETV
vector 42939  IntersectionExampleScenario.node[72].veinsmobility  co2emission  ETV
vector 42944  IntersectionExampleScenario.node[73].veinsmobility  speed  ETV
vector 42945  IntersectionExampleScenario.node[73].veinsmobility  acceleration  ETV
vector 42946  IntersectionExampleScenario.node[73].veinsmobility  co2emission  ETV
vector 42949  IntersectionExampleScenario.node[74].veinsmobility  posx  ETV
vector 42950  IntersectionExampleScenario.node[74].veinsmobility  posy  ETV
vector 42951  IntersectionExampleScenario.node[74].veinsmobility  speed  ETV
vector 42952  IntersectionExampleScenario.node[74].veinsmobility  acceleration  ETV
vector 42953  IntersectionExampleScenario.node[74].veinsmobility  co2emission  ETV
42862	1799941 5442 14233 17194 173.25 212.5 158 0.973 11.200708441096 458.21083736787 2208.253032665
42861	1805383 4932 14233 17194 173.25 212.5 158 -3.2715606689453 2.5 36.304327011108 174.96065113266
42860	1810315 5345 14210 17194 173 212.5 159 5.6500000953674 15.02499961853 2215.7818956375 31407.490144012
42859	1815660 5600 14187 17194 172.75 212.5 160 483.14999389648 483.14999389648 77303.999023438 37349426.656348
42858	1821260 5566 14187 17194 172.75 212.5 160 184.17810058594 733.12464904785 71877.370986938 36529762.900266
vector 42956  IntersectionExampleScenario.node[75].veinsmobility  posx  ETV
vector 42957  IntersectionExampleScenario.node[75].veinsmobility  posy  ETV
vector 42958  IntersectionExampleScenario.node[75].veinsmobility  speed  ETV
vector 42959  IntersectionExampleScenario.node[75].veinsmobility  acceleration  ETV
vector 42960  IntersectionExampleScenario.node[75].veinsmobility  co2emission  ETV
vector 42963  IntersectionExampleScenario.node[76].veinsmobility  posx  ETV
vector 42964  IntersectionExampleScenario.node[76].veinsmobility  posy  ETV
vector 42965  IntersectionExampleScenario.node[76].veinsmobility  speed  ETV
vector 42966  IntersectionExampleScenario.node[76].veinsmobility  acceleration  ETV
vector 42967  IntersectionExampleScenario.node[76].veinsmobility  co2emission  ETV
42841	1827628 7132 12845 17473 158.75 215.25 227 0.973 11.648172402475 595.53396353784 2940.6827650903
42840	1834760 6437 12845 17473 158.75 215.25 227 -7.092942237854 4 38.341367721558 476.74128165784
42839	1841197 6820 12814 17473 158.5 215.25 228 0 15.64999961853 2177.7517211437 30631.668078274
42838	1848017 7990 12785 17473 158.25 215.25 229 184.17810058594 483.36395263672 96011.334625244 42254765.801925
42837	1856007 7947 12785 17473 158.25 215.25 229 486.85000610352 733.04777526855 119670.3992157 63583209.118326
vector 42970  IntersectionExampleScenario.node[77].veinsmobility  posx  ETV
vector 42971  IntersectionExampleScenario.node[77].veinsmobility  posy  ETV
vector 42977  IntersectionExampleScenario.node[78].veinsmobility  posx  ETV
vector 42978  IntersectionExampleScenario.node[78].veinsmobility  posy  ETV
vector 42972  IntersectionExampleScenario.node[77].veinsmobility  speed  ETV
vector 42973  IntersectionExampleScenario.node[77].veinsmobility  acceleration  ETV
vector 42974  IntersectionExampleScenario.node[77].veinsmobility  co2emission  ETV
vector 42979  IntersectionExampleScenario.node[78].veinsmobility  speed  ETV
vector 42980  IntersectionExampleScenario.node[78].veinsmobility  acceleration  ETV
vector 42981  IntersectionExampleScenario.node[78].veinsmobility  co2emission  ETV
vector 42984  IntersectionExampleScenario.node[79].veinsmobility  posx  ETV
vector 42985  IntersectionExampleScenario.node[79].veinsmobility  posy  ETV
vector 42991  IntersectionExampleScenario.node[80].veinsmobility  posx  ETV
vector 42992  IntersectionExampleScenario.node[80].veinsmobility  posy  ETV
vector 42986  IntersectionExampleScenario.node[79].veinsmobility  speed  ETV
vector 42987  IntersectionExampleScenario.node[79].veinsmobility  acceleration  ETV
vector 42988  IntersectionExampleScenario.node[79].veinsmobility  co2emission  ETV
vector 42993  IntersectionExampleScenario.node[80].veinsmobility  speed  ETV
vector 42994  IntersectionExampleScenario.node[80].veinsmobility  acceleration  ETV
vector 42995  IntersectionExampleScenario.node[80].veinsmobility  co2emission  ETV
vector 42998  IntersectionExampleScenario.node[81].veinsmobility  posx  ETV
vector 42999  IntersectionExampleScenario.node[81].veinsmobility  posy  ETV
vector 43000  IntersectionExampleScenario.node[81].veinsmobility  speed  ETV
42876	1865790 5636 15199 18666 185.75 226.75 165 0.973 11.00486315618 469.00860356098 2245.5279270841
42875	1871426 5055 15199 18666 185.75 226.75 165 -3.1030349731445 2.5 34.606801986694 200.18434255786
42874	1876481 5534 15186 18666 185.5 226.75 166 5.6500000953674 14.75 2210.9825124741 30132.151043239
42873	1882015 5821 15173 18666 185.25 226.75 167 184.17810058594 486.85000610352 66578.74911499 28381992.635724
42872	1887836 5827 15173 18666 185.25 226.75 167 235.71142578125 486.85000610352 72299.326049805 32324201.753987
vector 43001  IntersectionExampleScenario.node[81].veinsmobility  acceleration  ETV
vector 43002  IntersectionExampleScenario.node[81].veinsmobility  co2emission  ETV
42890	1893832 5608 15260 18774 186.75 227.75 165 0.973 11.810082123732 523.89748025747 2735.93690049
42889	1899440 5272 15260 18774 186.75 227.75 165 -4.5 2.5 38.850629806519 296.71102018553
42888	1904712 5478 15244 18774 186.5 227.75 166 5.6500000953674 15.875 2268.7881975174 32413.136514481
42887	1910190 5818 15227 18774 186.25 227.75 167 162.00311279297 483.14999389648 64854.05682373 27280806.365918
42886	1916008 5833 15227 18774 186.25 227.75 167 486.85000610352 732.3155670166 89371.781845093 48754027.764952
42904	1921841 5372 15584 19187 192 231.75 160 0.973 11.810082123732 517.05546186368 2915.2201214017
42903	1927213 5115 15584 19187 192 231.75 160 -3.2771186828613 2.5 39.869146347046 274.26522362468
42902	1932328 5311 15567 19187 191.75 231.75 161 5.6500000953674 15.888024330139 2224.1383590698 32211.637175851
42901	1937639 5659 15550 19187 191.5 231.75 162 176.00006103516 483.14999389648 63922.026428223 27074107.991553
42900	1943298 5668 15550 19187 191.5 231.75 162 486.85000610352 734.99481201172 86988.440216064 47640434.704772
42883	1948966 6209 15244 19412 186.5 234 191 0.973 11.90022389248 574.54440992329 3095.9160416542
42882	1955175 5780 15244 19412 186.5 234 191 -7.2641291618347 4 39.699392318726 488.74806203163
42881	1960955 6085 15227 19412 186.25 234 192 0 16 2217.2994669676 32035.832177997
42880	1967040 6753 15212 19412 186 234 193 486.85000610352 486.85000610352 93962.051177979 45745425.189498
42879	1973793 6742 15212 19412 186 234 193 235.46020507812 785.82187652588 99767.802955627 55694471.442313
42869	1980535 7488 14370 19437 174.75 234.25 239 0.973 11.810082123732 623.53627837867 3037.1340802397
42868	1988023 7019 14370 19437 174.75 234.25 239 -20.607032775879 4 38.680875778198 846.96778931321
42867	1995042 7061 14347 19437 174.5 234.25 240 0 15.875 2266.633685112 32410.537415682
42866	2002103 8366 14324 19437 174.25 234.25 241 235.25335693359 483.14999389648 108199.09786987 49653278.023534
42865	2010469 8402 14324 19437 174.25 234.25 241 163.88433837891 483.36395263672 100001.01837158 43899671.713128
vector 43005  IntersectionExampleScenario.node[82].veinsmobility  posx  ETV
vector 43006  IntersectionExampleScenario.node[82].veinsmobility  posy  ETV
vector 43012  IntersectionExampleScenario.node[83].veinsmobility  posx  ETV
vector 43013  IntersectionExampleScenario.node[83].veinsmobility  posy  ETV
42897	2019179 6086 15429 19537 189.5 235.25 184 0.973 12.26218747632 577.09706947502 3208.3516463423
42896	2025265 5966 15429 19537 189.5 235.25 184 -4.5 2.5 41.227170944214 456.54303677206
42895	2031231 6145 15412 19537 189.25 235.25 185 0 16.5 2232.8998926077 32080.16635849
42894	2037376 6503 15395 19537 189 235.25 186 486.85000610352 732.30348205566 98342.366363525 52937605.980629
42893	2043879 6498 15395 19537 189 235.25 186 486.70910644531 798.59687805176 105677.514328 62048673.213419
vector 43007  IntersectionExampleScenario.node[82].veinsmobility  speed  ETV
vector 43014  IntersectionExampleScenario.node[83].veinsmobility  speed  ETV
vector 43008  IntersectionExampleScenario.node[82].veinsmobility  acceleration  ETV
vector 43009  IntersectionExampleScenario.node[82].veinsmobility  co2emission  ETV
vector 43015  IntersectionExampleScenario.node[83].veinsmobility  acceleration  ETV
vector 43016  IntersectionExampleScenario.node[83].veinsmobility  co2emission  ETV
vector 43019  IntersectionExampleScenario.node[84].veinsmobility  posx  ETV
vector 43020  IntersectionExampleScenario.node[84].veinsmobility  posy  ETV
vector 43021  IntersectionExampleScenario.node[84].veinsmobility  speed  ETV
vector 43022  IntersectionExampleScenario.node[84].veinsmobility  acceleration  ETV
vector 43023  IntersectionExampleScenario.node[84].veinsmobility  co2emission  ETV
42925	2051272 5067 16239 19917 201.75 238.75 149 0.973 12.099024792222 494.50137579278 2881.420311133
42924	2056339 4877 16239 19917 201.75 238.75 149 -3.5612831115723 2.5 41.057416915894 222.67640885816
42923	2061216 4994 16220 19917 201.5 238.75 150 5.6500000953674 16.27499961853 2212.6253004074 33440.045086805
42922	2066210 5287 16201 19917 201.25 238.75 151 483.14999389648 483.14999389648 72955.649078369 35248521.406928
42921	2071497 5259 16201 19917 201.25 238.75 151 184.17810058594 732.02288818359 67518.789459229 34179392.708309
vector 43026  IntersectionExampleScenario.node[85].veinsmobility  posx  ETV
vector 43027  IntersectionExampleScenario.node[85].veinsmobility  posy  ETV
vector 43028  IntersectionExampleScenario.node[85].veinsmobility  speed  ETV
42939	2076988 5367 16616 20528 206.5 246 159 0.973 11.810082123732 508.49538687659 2854.0891032743
42938	2082355 5078 16616 20528 206.5 246 159 -3.5987892150879 2.5 38.511121749878 289.97413352837
42937	2087433 5271 16591 20528 206.25 246 160 5.6500000953674 15.875 2187.4261054993 31251.807394893
42936	2092704 5614 16568 20528 206 246 161 236.08911132812 483.14999389648 69584.892822266 31005020.324714
42935	2098318 5612 16568 20528 206 246 161 184.17810058594 483.33880615234 63994.011108398 27176069.18173
vector 43029  IntersectionExampleScenario.node[85].veinsmobility  acceleration  ETV
vector 43030  IntersectionExampleScenario.node[85].veinsmobility  co2emission  ETV
vector 43033  IntersectionExampleScenario.node[86].veinsmobility  posx  ETV
vector 43034  IntersectionExampleScenario.node[86].veinsmobility  posy  ETV
vector 43035  IntersectionExampleScenario.node[86].veinsmobility  speed  ETV
vector 43036  IntersectionExampleScenario.node[86].veinsmobility  acceleration  ETV
vector 43037  IntersectionExampleScenario.node[86].veinsmobility  co2emission  ETV
vector 43040  IntersectionExampleScenario.node[87].veinsmobility  posx  ETV
vector 43041  IntersectionExampleScenario.node[87].veinsmobility  posy  ETV
vector 43042  IntersectionExampleScenario.node[87].veinsmobility  speed  ETV
vector 43047  IntersectionExampleScenario.node[88].veinsmobility  posx  ETV
vector 43048  IntersectionExampleScenario.node[88].veinsmobility  posy  ETV
vector 43043  IntersectionExampleScenario.node[87].veinsmobility  acceleration  ETV
vector 43044  IntersectionExampleScenario.node[87].veinsmobility  co2emission  ETV
vector 43049  IntersectionExampleScenario.node[88].veinsmobility  speed  ETV
vector 43050  IntersectionExampleScenario.node[88].veinsmobility  acceleration  ETV
vector 43051  IntersectionExampleScenario.node[88].veinsmobility  co2emission  ETV
42967	2105302 5074 17419 20990 214.75 251.5 148 0.973 12.099024792222 490.9170096863 2770.7218517746
42966	2110376 4512 17419 20990 214.75 251.5 148 -3.2282333374023 2.5 41.566686630249 213.62512747117
42965	2114888 4943 17392 20990 214.5 251.5 149 5.6500000953674 16.27499961853 2212.5592670441 33673.958949228
42964	2119831 5251 17365 20990 214.25 251.5 150 483.14999389648 483.14999389648 72472.499084473 35015087.490326
42963	2125082 5220 17365 20990 214.25 251.5 150 184.17810058594 731.91429138184 67015.667144775 33906379.471287
42960	2130302 5426 17290 21116 213.5 253 159 0.973 11.450879080643 484.51171242076 2515.2230590262
42959	2135728 5226 17290 21116 213.5 253 159 -3.6983833312988 2.5 37.32285118103 231.88477433776
42958	2140954 5318 17265 21116 213.25 253 160 5.6500000953674 15.375 2207.6299629211 31313.934089683
42957	2146272 5616 17240 21116 213 253 161 236.8857421875 486.85000610352 69843.790985107 31268866.791783
42956	2151888 5625 17240 21116 213 253 161 483.14999389648 785.82187652588 92070.373191833 54443999.891382
vector 43054  IntersectionExampleScenario.node[89].veinsmobility  posx  ETV
vector 43055  IntersectionExampleScenario.node[89].veinsmobility  posy  ETV
vector 43056  IntersectionExampleScenario.node[89].veinsmobility  speed  ETV
42911	2157745 7346 15860 21286 196 255 237 0.973 11.810082123732 620.60711134918 3164.4296723289
42910	2165091 7021 15860 21286 196 255 237 -7.371325969696 4 39.699392318726 502.82719036529
42909	2172112 7021 15841 21286 195.75 255 238 0 15.875 2221.8851927519 31900.514616951
42908	2179133 8338 15822 21286 195.5 255 239 173.88909912109 483.36395263672 100022.58114624 44058399.501881
42907	2187471 8295 15822 21286 195.5 255 239 486.85000610352 733.87629699707 124420.01228333 65822246.332691
vector 43061  IntersectionExampleScenario.node[90].veinsmobility  posx  ETV
vector 43062  IntersectionExampleScenario.node[90].veinsmobility  posy  ETV
vector 43057  IntersectionExampleScenario.node[89].veinsmobility  acceleration  ETV
vector 43058  IntersectionExampleScenario.node[89].veinsmobility  co2emission  ETV
vector 43063  IntersectionExampleScenario.node[90].veinsmobility  speed  ETV
vector 43068  IntersectionExampleScenario.node[91].veinsmobility  posx  ETV
vector 43069  IntersectionExampleScenario.node[91].veinsmobility  posy  ETV
vector 43064  IntersectionExampleScenario.node[90].veinsmobility  acceleration  ETV
vector 43065  IntersectionExampleScenario.node[90].veinsmobility  co2emission  ETV
42953	2196490 6001 17125 21359 211.75 255.75 177 0.973 10.756497587458 501.77755600455 2261.7848935238
42952	2202491 5993 17125 21359 211.75 255.75 177 -3.6320924758911 2.5 33.079023361206 303.68918269277
42951	2208484 6211 17102 21359 211.5 255.75 178 3.6162211894989 14.39999961853 2217.5042917728 28983.042720951
42950	2214695 6240 17078 21359 211.25 255.75 179 235.40765380859 785.82187652588 92586.385467529 52351240.676634
42949	2220935 6267 17078 21359 211.25 255.75 179 483.14999389648 483.14999389648 86483.848907471 41784671.071789
vector 43070  IntersectionExampleScenario.node[91].veinsmobility  speed  ETV
vector 43071  IntersectionExampleScenario.node[91].veinsmobility  acceleration  ETV
vector 43072  IntersectionExampleScenario.node[91].veinsmobility  co2emission  ETV
vector 43075  IntersectionExampleScenario.node[92].veinsmobility  posx  ETV
vector 43076  IntersectionExampleScenario.node[92].veinsmobility  posy  ETV
vector 43082  IntersectionExampleScenario.node[93].veinsmobility  posx  ETV
vector 43083  IntersectionExampleScenario.node[93].veinsmobility  posy  ETV
vector 43077  IntersectionExampleScenario.node[92].veinsmobility  speed  ETV
vector 43078  IntersectionExampleScenario.node[92].veinsmobility  acceleration  ETV
vector 43079  IntersectionExampleScenario.node[92].veinsmobility  co2emission  ETV
vector 43084  IntersectionExampleScenario.node[93].veinsmobility  speed  ETV
42918	2228082 7402 16201 21547 201.25 257.5 226 0.97223939240464 11.810082123732 591.42398417117 3020.4801093274
42917	2235484 7741 16201 21547 201.25 257.5 226 -3.7446303367615 2.5 38.680875778198 366.66078538136
42916	2243225 7673 16184 21547 201 257.5 227 0 15.875 2178.483557811 29792.275666076
42915	2250898 7937 16167 21547 200.75 257.5 228 184.17810058594 483.14999389648 94928.100128174 41459508.544213
42914	2258835 7975 16167 21547 200.75 257.5 228 486.85000610352 731.76162719727 119053.3102417 63191153.446831
vector 43085  IntersectionExampleScenario.node[93].veinsmobility  acceleration  ETV
vector 43086  IntersectionExampleScenario.node[93].veinsmobility  co2emission  ETV
42932	2266979 6963 16547 21797 205.75 259.75 217 0.973 11.810082123732 598.30647061434 3082.8053195696
42931	2273942 7144 16547 21797 205.75 259.75 217 -3.9011535644531 2.5000000596046 40.717908859253 378.97431394392
42930	2281086 7284 16526 21797 205.5 259.75 218 0 15.875 2188.8786225878 29259.317472886
42929	2288370 7629 16505 21797 205.25 259.75 219 184.17810058594 483.27578735352 89999.770202637 38826074.703897
42928	2295999 7654 16505 21797 205.25 259.75 219 486.85000610352 734.13629150391 114591.10412598 60976346.024849
42946	2303653 7257 16641 22083 206.75 262.5 224 0.973 11.810082123732 595.86670098239 3038.440979701
42945	2310910 7472 16641 22083 206.75 262.5 224 -4.5 2.5000001043081 38.511121749878 486.50204718608
42944	2318382 7520 16616 22083 206.5 262.5 225 0 15.875 2281.1369240768 30084.750364165
42943	2325902 7865 16591 22083 206.25 262.5 226 162.00311279297 483.14999389648 90967.923675537 38839493.572552
42942	2333767 7906 16591 22083 206.25 262.5 226 486.85000610352 734.43522644043 118267.26643372 62946270.489563
42988	2341673 5932 17960 22320 220 265 181 0.973 11.200708441096 538.34707118069 2851.1753400471
42987	2347605 5753 17960 22320 220 265 181 -3.8288383483887 2.5 35.625318527222 316.5654733931
42986	2353358 6085 17933 22320 219.75 265 182 5.6500000953674 15.02499961853 2210.3938326836 28468.382767254
42985	2359443 6382 17908 22320 219.5 265 183 184.17810058594 486.85000610352 73373.256103516 31256345.157976
42984	2365825 6376 17908 22320 219.5 265 183 235.89984130859 486.85000610352 80248.418334961 36243054.684278
43002	2372201 5283 18693 22458 227 266.5 159 0.973 11.648172402475 497.68023666778 2806.5698550697
[...]
vector 46897  IntersectionExampleScenario.node[638].veinsmobility  posx  ETV
vector 46898  IntersectionExampleScenario.node[638].veinsmobility  posy  ETV
vector 46899  IntersectionExampleScenario.node[638].veinsmobility  speed  ETV
vector 46900  IntersectionExampleScenario.node[638].veinsmobility  acceleration  ETV
vector 46901  IntersectionExampleScenario.node[638].veinsmobility  co2emission  ETV
46768	20143001 5871 158719 163074 1731.5 1772.75 166 0.973 11.648172402475 501.71744408838 2739.7473747783
46767	20148872 5697 158719 163074 1731.5 1772.75 166 -3.1882724761963 2.5 38.171613693237 252.3012370662
46766	20154569 5874 158690 163074 1731.25 1772.75 167 5.6500000953674 15.64999961853 2253.1429591179 31712.376005094
46765	20160443 6207 158661 163074 1731 1772.75 168 486.85000610352 732.15533447266 89931.271774292 49073735.431931
46764	20166650 6205 158661 163074 1731 1772.75 168 486.67895507812 803.92778778076 97313.036216736 58394238.902981
46733	20172855 7532 157349 163338 1718.5 1774.75 226 0.973 11.90022389248 608.96372426492 3131.4089396761
46732	20180387 6879 157349 163338 1718.5 1774.75 226 -6.9388580322266 4 39.869146347046 486.92859174969
46731	20187266 7255 157322 163338 1718.25 1774.75 227 0 16 2204.3578848839 31907.458465355
46730	20194521 8424 157295 163338 1718 1774.75 228 238.82672119141 785.82187652588 117441.04955292 64550249.583123
46729	20202945 8436 157295 163338 1718 1774.75 228 483.14999389648 483.14999389648 110158.1986084 53222932.985295
46775	20211381 6083 159095 163764 1734.75 1778 174 0.973 11.54047740176 517.39661957997 2689.800668818
46774	20217464 6144 159095 163764 1734.75 1778 174 -2.1334800720215 2.5 36.98334312439 256.13738345105
46773	20223608 6304 159066 163764 1734.5 1778 175 5.3249440193176 15.5 2215.8807430267 29738.706040034
46772	20229912 6494 159037 163764 1734.25 1778 176 236.84313964844 785.82187652588 91903.272193909 52205628.482066
46771	20236406 6512 159037 163764 1734.25 1778 176 483.14999389648 483.14999389648 85034.398925781 41084369.321982
vector 46904  IntersectionExampleScenario.node[639].veinsmobility  posx  ETV
vector 46905  IntersectionExampleScenario.node[639].veinsmobility  posy  ETV
46782	20243074 5672 159644 163854 1739.5 1778.75 158 0.973 11.810082123732 513.43619907667 2875.6901887968
46781	20248746 5283 159644 163854 1739.5 1778.75 158 -3.2695980072021 2.5 39.529638290405 284.07426481974
46780	20254029 5555 159616 163854 1739.25 1778.75 159 5.6500000953674 15.875 2188.4404091835 31584.254385782
46779	20259584 5892 159587 163854 1739 1778.75 160 184.17810058594 483.14999389648 63625.503479004 27033162.848805
46778	20265476 5914 159587 163854 1739 1778.75 160 486.85000610352 734.3169708252 86012.820007324 47160665.690723
vector 46906  IntersectionExampleScenario.node[639].veinsmobility  speed  ETV
vector 46907  IntersectionExampleScenario.node[639].veinsmobility  acceleration  ETV
vector 46908  IntersectionExampleScenario.node[639].veinsmobility  co2emission  ETV
vector 46911  IntersectionExampleScenario.node[640].veinsmobility  posx  ETV
vector 46912  IntersectionExampleScenario.node[640].veinsmobility  posy  ETV
vector 46913  IntersectionExampleScenario.node[640].veinsmobility  speed  ETV
vector 46918  IntersectionExampleScenario.node[641].veinsmobility  posx  ETV
vector 46919  IntersectionExampleScenario.node[641].veinsmobility  posy  ETV
vector 46914  IntersectionExampleScenario.node[640].veinsmobility  acceleration  ETV
vector 46915  IntersectionExampleScenario.node[640].veinsmobility  co2emission  ETV
vector 46925  IntersectionExampleScenario.node[642].veinsmobility  posx  ETV
vector 46926  IntersectionExampleScenario.node[642].veinsmobility  posy  ETV
vector 46920  IntersectionExampleScenario.node[641].veinsmobility  speed  ETV
vector 46932  IntersectionExampleScenario.node[643].veinsmobility  posx  ETV
vector 46933  IntersectionExampleScenario.node[643].veinsmobility  posy  ETV
vector 46921  IntersectionExampleScenario.node[641].veinsmobility  acceleration  ETV
vector 46922  IntersectionExampleScenario.node[641].veinsmobility  co2emission  ETV
vector 46927  IntersectionExampleScenario.node[642].veinsmobility  speed  ETV
vector 46928  IntersectionExampleScenario.node[642].veinsmobility  acceleration  ETV
vector 46929  IntersectionExampleScenario.node[642].veinsmobility  co2emission  ETV
vector 46934  IntersectionExampleScenario.node[643].veinsmobility  speed  ETV
vector 46935  IntersectionExampleScenario.node[643].veinsmobility  acceleration  ETV
vector 46936  IntersectionExampleScenario.node[643].veinsmobility  co2emission  ETV
vector 46939  IntersectionExampleScenario.node[644].veinsmobility  posx  ETV
vector 46940  IntersectionExampleScenario.node[644].veinsmobility  posy  ETV
vector 46941  IntersectionExampleScenario.node[644].veinsmobility  speed  ETV
vector 46942  IntersectionExampleScenario.node[644].veinsmobility  acceleration  ETV
vector 46943  IntersectionExampleScenario.node[644].veinsmobility  co2emission  ETV
vector 46946  IntersectionExampleScenario.node[645].veinsmobility  posx  ETV
vector 46947  IntersectionExampleScenario.node[645].veinsmobility  posy  ETV
vector 46948  IntersectionExampleScenario.node[645].veinsmobility  speed  ETV
vector 46949  IntersectionExampleScenario.node[645].veinsmobility  acceleration  ETV
vector 46950  IntersectionExampleScenario.node[645].veinsmobility  co2emission  ETV
46810	20274076 5805 160417 164895 1747.75 1787.5 160 0.973 11.200708441096 456.11731217093 2194.9940300787
46809	20279881 5297 160417 164895 1747.75 1787.5 160 -3.3932037353516 2.5 35.625318527222 173.48998468565
46808	20285178 5737 160392 164895 1747.5 1787.5 161 5.6500000953674 15.02499961853 2224.3122186661 31231.818810776
46807	20290915 5965 160367 164895 1747.25 1787.5 162 184.17810058594 735.33645629883 72998.976715088 37217910.571407
46806	20296880 5995 160367 164895 1747.25 1787.5 162 486.85000610352 486.85000610352 78869.70098877 38397714.407765
vector 46953  IntersectionExampleScenario.node[646].veinsmobility  posx  ETV
vector 46954  IntersectionExampleScenario.node[646].veinsmobility  posy  ETV
vector 46955  IntersectionExampleScenario.node[646].veinsmobility  speed  ETV
vector 46956  IntersectionExampleScenario.node[646].veinsmobility  acceleration  ETV
vector 46957  IntersectionExampleScenario.node[646].veinsmobility  co2emission  ETV
46789	20303281 6650 160055 165560 1743.75 1793.25 199 0.93916708502068 12.889197352455 622.19820287188 3657.0599073223
46788	20309931 6463 160055 165560 1743.75 1793.25 199 -7.297438621521 4 44.452566146851 528.65115040498
46787	20316394 6499 160032 165560 1743.5 1793.25 200 0 17.358699798584 2175.5982115269 32810.521389372
46786	20322893 7371 160009 165560 1743.25 1793.25 201 486.85000610352 732.13282775879 105359.7096405 56159865.278587
46785	20330264 7427 160009 165560 1743.25 1793.25 201 486.63604736328 785.82187652588 111541.87505341 63774076.619552
46796	20337691 6706 160276 165705 1746.25 1794.5 194 0.973 11.450879080643 555.11759017968 2826.4051538067
46795	20344397 6516 160276 165705 1746.25 1794.5 194 -8.4932947158813 4 36.98334312439 483.13428632251
46794	20350913 6603 160253 165705 1746 1794.5 195 0 15.375 2207.9859242439 30755.980008413
46793	20357516 7252 160230 165705 1745.75 1794.5 196 483.14999389648 483.14999389648 94697.398803711 45753047.654026
46792	20364768 7219 160230 165705 1745.75 1794.5 196 184.17810058594 732.67367553711 88778.559829712 44424127.981038
46803	20371987 6702 160367 165763 1747.25 1795 192 0.973 11.200708441096 606.267215901 3026.071903136
46802	20378689 6529 160367 165763 1747.25 1795 192 -4.5 2.5 42.754949569702 475.94752928798
46801	20385218 6747 160344 165763 1747 1795 193 0 16.382635116577 2295.778380394 33759.57237315
46800	20391965 7161 160321 165763 1746.75 1795 194 483.14999389648 733.5281829834 101646.40565491 54250313.533017
46799	20399126 7119 160321 165763 1746.75 1795 194 162.00311279297 487.07736206055 77954.709564209 33575638.855684
46817	20406245 6437 160516 165821 1748.75 1795.5 188 0.973 11.54047740176 535.18071980589 2760.3715678505
46816	20412682 6568 160516 165821 1748.75 1795.5 188 -2.4701499938965 2.5 37.15309715271 302.19918148525
46815	20419250 6833 160489 165821 1748.5 1795.5 189 1.7208102941513 15.5 2211.7382231951 29597.762166579
46814	20426083 7031 160464 165821 1748.25 1795.5 190 486.85000610352 486.85000610352 92501.501159668 45034356.404169
46813	20433114 7006 160464 165821 1748.25 1795.5 190 237.73150634766 785.82187652588 99039.206718445 55811135.035403
46824	20440120 6815 160543 166024 1749 1797.25 194 0.973 11.648172402475 572.26322682649 2966.0708163236
46823	20446935 6714 160543 166024 1749 1797.25 194 -4.5 2.5000019073486 38.850629806519 411.64145254136
46822	20453649 7031 160516 166024 1748.75 1797.25 195 0 15.64999961853 2343.311752893 32949.219048061
46821	20460680 7252 160489 166024 1748.5 1797.25 196 483.14999389648 483.14999389648 94697.398803711 45753047.654026
46820	20467932 7223 160489 166024 1748.5 1797.25 196 153.85467529297 734.7289276123 85809.609786987 42429781.774746
46831	20475155 6374 161016 166242 1753.75 1799.25 183 0.973 11.90022389248 567.09873067581 3110.136852714
46830	20481529 6405 161016 166242 1753.75 1799.25 183 -4.5 2.5000019073486 40.038900375366 350.23817226317
46829	20487934 6512 160991 166242 1753.5 1799.25 184 4.1585826873779 16 2270.9706101418 31109.301121288
46828	20494446 6836 160966 166242 1753.25 1799.25 185 483.14999389648 733.44909667969 97590.286178589 52484303.266979
46827	20501282 6834 160966 166242 1753.25 1799.25 185 168.5244140625 487.05899047852 73475.812896729 31217595.012306
46845	20508116 5720 161548 166267 1759.25 1799.5 162 0.973 11.648172402475 534.40667098207 3256.6613592651
46844	20513836 5506 161548 166267 1759.25 1799.5 162 -3.3129692077637 2.5 37.662351608276 301.76964223659
46843	20519342 5732 161523 166267 1759 1799.5 163 5.6500000953674 15.64999961853 2212.0339708328 30926.88032561
46842	20525074 6062 161498 166267 1758.75 1799.5 164 235.91174316406 486.85000610352 71283.644439697 31968529.026716
46841	20531136 6054 161498 166267 1758.75 1799.5 164 483.14999389648 785.82187652588 93755.215950012 55384557.407642
vector 46960  IntersectionExampleScenario.node[647].veinsmobility  posx  ETV
vector 46961  IntersectionExampleScenario.node[647].veinsmobility  posy  ETV
vector 46962  IntersectionExampleScenario.node[647].veinsmobility  speed  ETV
46838	20537425 6569 161067 166317 1754.25 1800 184 0.973 11.54047740176 556.31091053418 2867.3404547407
46837	20543994 6380 161067 166317 1754.25 1800 184 -4.5 2.5 38.511121749878 364.95396349029
46836	20550374 6611 161042 166317 1754 1800 185 4.3543343544006 15.5 2290.6127762794 30763.587459394
46835	20556985 6881 161016 166317 1753.75 1800 186 483.14999389648 483.14999389648 89865.898864746 43418708.488004
46834	20563866 6849 161016 166317 1753.75 1800 186 152.60748291016 719.59854125977 78864.574615479 38105710.476189
46852	20570715 5313 161905 166317 1763.25 1800 148 0.973 11.990504229548 477.43194617724 2622.1640861846
46851	20576028 5055 161905 166317 1763.25 1800 148 -3.7553825378418 2.5 43.23331451416 212.93982454608
46850	20581083 5259 161882 166317 1763 1800 149 4.724081993103 16.125 2075.5120029449 29938.087974631
46849	20586342 5549 161861 166317 1762.75 1800 150 486.85000610352 486.85000610352 73027.500915527 35553439.266449
46848	20591891 5503 161861 166317 1762.75 1800 150 278.33062744141 792.02188110352 82553.202484131 49001653.16223
46859	20597394 5251 161928 166317 1763.5 1800 147 0.973 11.450879080643 452.96786017509 2462.0749263644
46858	20602645 5228 161928 166317 1763.5 1800 147 -4.5 2.5 37.32285118103 229.43668784487
46857	20607873 5191 161905 166317 1763.25 1800 148 5.6500000953674 15.375 1999.0524168015 27832.666874175
46856	20613064 5503 161882 166317 1763 1800 149 270.93310546875 486.85000610352 66137.432525635 30002099.582878
46855	20618567 5496 161882 166317 1763 1800 149 483.14999389648 767.69375610352 84816.920372009 49750563.299492
46866	20624063 4703 162072 166317 1765 1800 141 0.973 11.648172402475 429.3282654276 2429.5334049351
46865	20628766 4338 162072 166317 1765 1800 141 -7.03919506073 4 33.89999961853 465.58645047111
46864	20633104 4554 162045 166317 1764.75 1800 142 0 15.64999961853 1331.5747878551 17876.58189317
46863	20637658 5285 162020 166317 1764.5 1800 143 483.14999389648 785.82187652588 83875.286399841 50706673.414518
46862	20642943 5290 162020 166317 1764.5 1800 143 483.14999389648 516.08657836914 69320.06552124 33607651.598133
46873	20648233 4740 162101 166317 1765.25 1800 140 0.973 9.2787231060895 365.37691556793 1525.9219588772
46872	20652973 4462 162101 166317 1765.25 1800 140 -4.5 2.5 10.89999961853 464.63968139742
46871	20657435 4736 162072 166317 1765 1800 141 0 14.646919250488 1239.5367658734 14916.632612076
46870	20662171 5235 162045 166317 1764.75 1800 142 184.17810058594 483.26889038086 51961.431488037 20540792.226078
46869	20667406 5252 162045 166317 1764.75 1800 142 486.85000610352 499.51007080078 69191.730834961 33715217.470721
46880	20672658 4688 162130 166317 1765.5 1800 139 0.973 9.7611322532852 371.69007891253 1634.7911118234
46879	20677346 4890 162130 166317 1765.5 1800 139 -4.5 2.5 13.39999961853 391.12741567939
46878	20682236 5103 162101 166317 1765.25 1800 140 0 15.880473136902 1291.7647974007 15919.184662927
46877	20687339 5190 162072 166317 1765 1800 141 159.76721191406 479.7981262207 49190.443359375 18806078.786135
46876	20692529 5214 162072 166317 1765 1800 141 484.98141479492 486.85000610352 68642.456329346 33416932.35247
46887	20697743 4647 162252 166317 1766.5 1800 135 0.973 10.690932962438 320.92810514869 1337.4583644698
46886	20702390 4665 162252 166317 1766.5 1800 135 -4.5 2.5000009536743 1.7545719146729 319.09513999532
46885	20707055 5012 162219 166317 1766.25 1800 136 0 14.307373046875 1273.6396238822 16076.341788089
46884	20712067 5044 162188 166317 1766 1800 137 490.01620483398 806.11563110352 83803.728813171 52813674.695227
46883	20717111 5067 162188 166317 1766 1800 137 483.14999389648 486.07809448242 66199.864105225 31988497.863553
46894	20722178 4448 162285 166317 1766.75 1800 134 0.973 11.00486315618 407.88918875332 2339.860741472
46893	20726626 4308 162285 166317 1766.75 1800 134 -8.6451683044434 4 35.909261703491 469.49908197261
46892	20730934 4340 162252 166317 1766.5 1800 135 0 14.75 1221.5091805458 15575.98869544
46891	20735274 5014 162219 166317 1766.25 1800 136 213.88439941406 516.24063110352 53616.88293457 22324181.796696
46890	20740288 5032 162219 166317 1766.25 1800 136 486.85000610352 486.85000610352 66211.600830078 32235118.268247
46901	20745320 3814 162942 166317 1771.75 1800 114 0.973 11.648172402475 319.62833300642 1637.6371633811
46900	20749134 4097 162942 166317 1771.75 1800 114 -4.5 2.5 6.5099868774414 280.86204471611
46899	20753231 4229 162909 166317 1771.5 1800 115 2.0440502166748 16.00682258606 1166.5095067024 15095.876467829
46898	20757460 4281 162876 166317 1771.25 1800 116 173.09033203125 462.59704589844 40200.016601562 15015390.314361
46897	20761741 4292 162876 166317 1771.25 1800 116 486.85000610352 486.85000610352 56474.600708008 27494659.699387
46908	20766033 2941 163916 166317 1779.25 1800 84 0.973 11.648172402475 264.53016075703 1457.0829740674
46907	20768974 2792 163916 166317 1779.25 1800 84 -3.5169630050659 2.5 -9.0568780899048 250.40133419927
46906	20771766 3127 163885 166317 1779 1800 85 3.3857805728912 15.64999961853 1143.1673681736 16377.636697012
46905	20774893 3181 163854 166317 1778.75 1800 86 483.14999389648 483.14999389648 41550.899475098 20075316.827787
46904	20778074 3159 163854 166317 1778.75 1800 86 184.17810058594 469.12957763672 27897.622467041 9778098.2377468
46915	20781233 2656 164166 166317 1781.5 1800 75 0.973 10.326992680438 246.85258624735 1321.4333300091
46914	20783889 2879 164166 166317 1781.5 1800 75 -4.5 2.5 26.660856246948 154.86484888655
46913	20786768 2802 164138 166317 1781.25 1800 76 4.9281735420227 15.543887138367 900.1441988945 12031.6762886
46912	20789570 2847 164109 166317 1781 1800 77 483.14999389648 483.14999389648 37202.549530029 17974411.578367
46911	20792417 2838 164109 166317 1781 1800 77 167.29217529297 388.11450195312 19792.78302002 5462916.8825281
46922	20795255 2641 164226 166317 1782 1800 73 0.973 10.924136691913 256.4065796413 1434.1980178759
46921	20797896 2696 164226 166317 1782 1800 73 -4.5 2.5 31.308973312378 140.0834306628
46920	20800592 2724 164195 166317 1781.75 1800 74 5.6500000953674 16.333452224731 893.51767206192 12157.507070127
46919	20803316 2774 164166 166317 1781.5 1800 75 483.14999389648 483.14999389648 36236.249542236 17507543.745163
46918	20806090 2761 164166 166317 1781.5 1800 75 151.99139404297 371.0573425293 18005.41192627 4670122.4111699
46929	20808851 2551 164259 166317 1782.25 1800 72 0.973 11.650272965477 264.00006586075 1535.8900013178
46928	20811402 2503 164259 166317 1782.25 1800 72 -4.5 2.5000009536743 29.848802566528 218.92956186686
46927	20813905 2681 164226 166317 1782 1800 73 1.7779223918915 16.265979766846 936.70641946793 13664.689654608
46926	20816586 2737 164195 166317 1781.75 1800 74 483.14999389648 483.14999389648 35753.09954834 17274109.828561
46925	20819323 2729 164195 166317 1781.75 1800 74 189.96173095703 420.72222900391 21072.76348877 6416758.6672986
46936	20822052 2527 164292 166317 1782.5 1800 71 0.973 11.648172402475 238.9955234999 1399.7523546875
46935	20824579 2580 164292 166317 1782.5 1800 71 -4.5 2.5 16.769155502319 175.54519866957
46934	20827159 2649 164259 166317 1782.25 1800 72 5.6500000953674 15.64999961853 995.33286762238 14267.51074014
46933	20829808 2699 164226 166317 1782 1800 73 483.14999389648 483.14999389648 35269.949554443 17040675.911959
46932	20832507 2685 164226 166317 1782 1800 73 201.41052246094 446.93264770508 23129.519714355 7768298.937496
46943	20835192 2352 164453 166317 1783.75 1800 66 0.973 11.648172402475 258.46060627429 1660.4920213433
46942	20837544 2308 164453 166317 1783.75 1800 66 -1.595287322998 2.5 37.607881546021 121.6794611242
46941	20839852 2463 164422 166317 1783.5 1800 67 5.6500000953674 16.045658111572 955.10458278656 14077.129145251
46940	20842315 2510 164390 166317 1783.25 1800 68 552.05307006836 785.82187652588 46173.790245056 31715675.120315
46939	20844825 2516 164390 166317 1783.25 1800 68 483.14999389648 483.14999389648 32854.199584961 15873506.328948
46950	20847341 1959 164782 166317 1786.5 1800 55 0.973 10.443462067114 217.16577083384 1306.1706102148
46949	20849300 1994 164782 166317 1786.5 1800 55 -3.5110969543457 2.5 38.747171401978 110.83180691886
46948	20851294 2069 164753 166317 1786.25 1800 56 5.6500000953674 15.530785560608 713.80372810364 9679.0785797971
46947	20853363 2101 164724 166317 1786 1800 57 626.55079650879 800.04531860352 41391.821922302 30223169.886961
46946	20855464 2107 164724 166317 1786 1800 57 483.14999389648 483.14999389648 27539.5496521 13305733.246324
46957	20857571 1761 164980 166317 1788.25 1800 48 0.973 11.648172402475 198.04295892094 1319.3579608108
46956	20859332 1715 164980 166317 1788.25 1800 48 -0.41465759277344 2.5 38.341527938843 100.39300187512
46955	20861047 1798 164951 166317 1788 1800 49 5.6500000953674 15.64999961853 669.82473182678 9553.3783239969
46954	20862845 1847 164922 166317 1787.75 1800 50 599.48599243164 762.16954040527 34504.103683472 23941585.153899
46953	20864692 1849 164922 166317 1787.75 1800 50 483.14999389648 483.14999389648 24157.499694824 11671695.830109
46962	20866541 35 166317 166317 1800 1800 1 5.6500000953674 5.6500000953674 5.6500000953674 31.922501077652
46961	20866576 73 166291 166317 1799.75 1800 2 483.14999389648 483.14999389648 966.29998779297 466867.83320435
46960	20866649 73 166291 166317 1799.75 1800 2 184.17810058594 184.17810058594 368.35620117188 67843.145470887
42427	20866722 636 0 166316 0 1800 31 0 26 516 9252
42428	20867358 650 0 166316 0 1800 31 0 205 3087 420079
