file 22351552 1591493493                                        
version 2
run nodebug-7-20200606-21:28:14-21964
attr configname nodebug
attr datetime 20200606-21:28:14
attr experiment nodebug
attr inifile omnetpp.ini
attr iterationvars ""
attr iterationvars2 $repetition=7
attr measurement ""
attr network "\"org.car2x.veins.modules.application.ExtTraCIScenarioManagerLaunchd.IntersectionExampleScenario\""
attr processid 21964
attr repetition 7
attr replication #7
attr resultdir results
attr runnumber 7
attr seedset 7
param **.coreDebug false
param **.debug false
param *.**.nic.mac1609_4.bitrate 18Mbps
param *.**.nic.mac1609_4.txPower 20mW
param *.**.nic.mac1609_4.useServiceChannel false
param *.**.nic.phy80211p.analogueModels "xmldoc(\"config.xml\")"
param *.**.nic.phy80211p.decider "xmldoc(\"config.xml\")"
param *.**.nic.phy80211p.sensitivity -89dBm
param *.**.nic.phy80211p.thermalNoise -110dBm
param *.**.nic.phy80211p.usePropagationDelay true
param *.**.nic.phy80211p.useThermalNoise true
param *.annotations.draw false
param *.connectionManager.alpha 2.0
param *.connectionManager.carrierFrequency "5.890e9 Hz"
param *.connectionManager.pMax 20mW
param *.connectionManager.sat -89dBm
param *.connectionManager.sendDirect true
param *.manager.autoShutdown true
param *.manager.host "\"localhost\""
param *.manager.launchConfig "xmldoc(\"paramics.launchd.xml\")"
param *.manager.margin 25
param *.manager.moduleDisplayString "\"\""
param *.manager.moduleName "\"node\""
param *.manager.moduleType "\"org.car2x.veins.nodes.Car\""
param *.manager.port 9999
param *.manager.updateInterval 250ms
param *.node[*0].veinsmobility.accidentCount 0
param *.node[*0].veinsmobility.accidentDuration 30s
param *.node[*0].veinsmobility.accidentStart 75s
param *.node[*].appl.LiderSelectZoneRadio 55.0
param *.node[*].appl.ShareDataZoneRadio 110.0
param *.node[*].appl.TiempoSemaforo 30.0
param *.node[*].appl.beaconInterval 1s
param *.node[*].appl.beaconPriority 3
param *.node[*].appl.dataOnSch false
param *.node[*].appl.dataPriority 2
param *.node[*].appl.debug false
param *.node[*].appl.headerLength "256 bit"
param *.node[*].appl.maxOffset 0.005s
param *.node[*].appl.sendBeacons false
param *.node[*].appl.sendData true
param *.node[*].applType "\"Dummy\""
param *.node[*].mobilityType "\"TraCIMobility\""
param *.node[*].mobilityType.debug true
param *.node[*].veinsmobility.x 0
param *.node[*].veinsmobility.y 0
param *.node[*].veinsmobility.z 1.895
param *.node[*].veinsmobilityType "\"org.car2x.veins.modules.mobility.traci.TraCIMobility\""
param *.node[*].veinsmobilityType.debug true
param *.playgroundSizeX 8500m
param *.playgroundSizeY 8500m
param *.playgroundSizeZ 50m
param *.world.use2D false
param *.world.useTorus false

vector 14  IntersectionExampleScenario.manager  vehiclesinsim  ETV
attr type  int
vector 15  IntersectionExampleScenario.manager  realtime  ETV
attr type  int
attr unit  s
vector 18  IntersectionExampleScenario.node[0].veinsmobility  posx  ETV
vector 19  IntersectionExampleScenario.node[0].veinsmobility  posy  ETV
vector 20  IntersectionExampleScenario.node[0].veinsmobility  speed  ETV
vector 21  IntersectionExampleScenario.node[0].veinsmobility  acceleration  ETV
vector 22  IntersectionExampleScenario.node[0].veinsmobility  co2emission  ETV
vector 25  IntersectionExampleScenario.node[1].veinsmobility  posx  ETV
vector 26  IntersectionExampleScenario.node[1].veinsmobility  posy  ETV
vector 32  IntersectionExampleScenario.node[2].veinsmobility  posx  ETV
vector 33  IntersectionExampleScenario.node[2].veinsmobility  posy  ETV
vector 27  IntersectionExampleScenario.node[1].veinsmobility  speed  ETV
vector 28  IntersectionExampleScenario.node[1].veinsmobility  acceleration  ETV
vector 29  IntersectionExampleScenario.node[1].veinsmobility  co2emission  ETV
vector 34  IntersectionExampleScenario.node[2].veinsmobility  speed  ETV
vector 39  IntersectionExampleScenario.node[3].veinsmobility  posx  ETV
vector 40  IntersectionExampleScenario.node[3].veinsmobility  posy  ETV
vector 46  IntersectionExampleScenario.node[4].veinsmobility  posx  ETV
vector 47  IntersectionExampleScenario.node[4].veinsmobility  posy  ETV
vector 35  IntersectionExampleScenario.node[2].veinsmobility  acceleration  ETV
vector 36  IntersectionExampleScenario.node[2].veinsmobility  co2emission  ETV
vector 41  IntersectionExampleScenario.node[3].veinsmobility  speed  ETV
vector 48  IntersectionExampleScenario.node[4].veinsmobility  speed  ETV
vector 42  IntersectionExampleScenario.node[3].veinsmobility  acceleration  ETV
vector 43  IntersectionExampleScenario.node[3].veinsmobility  co2emission  ETV
vector 49  IntersectionExampleScenario.node[4].veinsmobility  acceleration  ETV
vector 50  IntersectionExampleScenario.node[4].veinsmobility  co2emission  ETV
vector 53  IntersectionExampleScenario.node[5].veinsmobility  posx  ETV
vector 54  IntersectionExampleScenario.node[5].veinsmobility  posy  ETV
vector 55  IntersectionExampleScenario.node[5].veinsmobility  speed  ETV
vector 56  IntersectionExampleScenario.node[5].veinsmobility  acceleration  ETV
vector 57  IntersectionExampleScenario.node[5].veinsmobility  co2emission  ETV
vector 60  IntersectionExampleScenario.node[6].veinsmobility  posx  ETV
vector 61  IntersectionExampleScenario.node[6].veinsmobility  posy  ETV
vector 62  IntersectionExampleScenario.node[6].veinsmobility  speed  ETV
vector 63  IntersectionExampleScenario.node[6].veinsmobility  acceleration  ETV
vector 64  IntersectionExampleScenario.node[6].veinsmobility  co2emission  ETV
vector 67  IntersectionExampleScenario.node[7].veinsmobility  posx  ETV
vector 68  IntersectionExampleScenario.node[7].veinsmobility  posy  ETV
vector 69  IntersectionExampleScenario.node[7].veinsmobility  speed  ETV
vector 70  IntersectionExampleScenario.node[7].veinsmobility  acceleration  ETV
vector 71  IntersectionExampleScenario.node[7].veinsmobility  co2emission  ETV
vector 74  IntersectionExampleScenario.node[8].veinsmobility  posx  ETV
vector 75  IntersectionExampleScenario.node[8].veinsmobility  posy  ETV
vector 76  IntersectionExampleScenario.node[8].veinsmobility  speed  ETV
vector 81  IntersectionExampleScenario.node[9].veinsmobility  posx  ETV
vector 82  IntersectionExampleScenario.node[9].veinsmobility  posy  ETV
vector 77  IntersectionExampleScenario.node[8].veinsmobility  acceleration  ETV
vector 78  IntersectionExampleScenario.node[8].veinsmobility  co2emission  ETV
vector 83  IntersectionExampleScenario.node[9].veinsmobility  speed  ETV
vector 84  IntersectionExampleScenario.node[9].veinsmobility  acceleration  ETV
vector 85  IntersectionExampleScenario.node[9].veinsmobility  co2emission  ETV
vector 88  IntersectionExampleScenario.node[10].veinsmobility  posx  ETV
vector 89  IntersectionExampleScenario.node[10].veinsmobility  posy  ETV
vector 90  IntersectionExampleScenario.node[10].veinsmobility  speed  ETV
vector 91  IntersectionExampleScenario.node[10].veinsmobility  acceleration  ETV
vector 92  IntersectionExampleScenario.node[10].veinsmobility  co2emission  ETV
vector 95  IntersectionExampleScenario.node[11].veinsmobility  posx  ETV
vector 96  IntersectionExampleScenario.node[11].veinsmobility  posy  ETV
vector 97  IntersectionExampleScenario.node[11].veinsmobility  speed  ETV
vector 98  IntersectionExampleScenario.node[11].veinsmobility  acceleration  ETV
vector 99  IntersectionExampleScenario.node[11].veinsmobility  co2emission  ETV
vector 102  IntersectionExampleScenario.node[12].veinsmobility  posx  ETV
vector 103  IntersectionExampleScenario.node[12].veinsmobility  posy  ETV
vector 104  IntersectionExampleScenario.node[12].veinsmobility  speed  ETV
vector 105  IntersectionExampleScenario.node[12].veinsmobility  acceleration  ETV
vector 106  IntersectionExampleScenario.node[12].veinsmobility  co2emission  ETV
vector 109  IntersectionExampleScenario.node[13].veinsmobility  posx  ETV
vector 110  IntersectionExampleScenario.node[13].veinsmobility  posy  ETV
vector 116  IntersectionExampleScenario.node[14].veinsmobility  posx  ETV
vector 117  IntersectionExampleScenario.node[14].veinsmobility  posy  ETV
vector 111  IntersectionExampleScenario.node[13].veinsmobility  speed  ETV
vector 118  IntersectionExampleScenario.node[14].veinsmobility  speed  ETV
vector 112  IntersectionExampleScenario.node[13].veinsmobility  acceleration  ETV
vector 113  IntersectionExampleScenario.node[13].veinsmobility  co2emission  ETV
vector 119  IntersectionExampleScenario.node[14].veinsmobility  acceleration  ETV
vector 120  IntersectionExampleScenario.node[14].veinsmobility  co2emission  ETV
vector 123  IntersectionExampleScenario.node[15].veinsmobility  posx  ETV
vector 124  IntersectionExampleScenario.node[15].veinsmobility  posy  ETV
vector 125  IntersectionExampleScenario.node[15].veinsmobility  speed  ETV
vector 126  IntersectionExampleScenario.node[15].veinsmobility  acceleration  ETV
vector 127  IntersectionExampleScenario.node[15].veinsmobility  co2emission  ETV
vector 130  IntersectionExampleScenario.node[16].veinsmobility  posx  ETV
vector 131  IntersectionExampleScenario.node[16].veinsmobility  posy  ETV
vector 132  IntersectionExampleScenario.node[16].veinsmobility  speed  ETV
vector 133  IntersectionExampleScenario.node[16].veinsmobility  acceleration  ETV
vector 134  IntersectionExampleScenario.node[16].veinsmobility  co2emission  ETV
vector 137  IntersectionExampleScenario.node[17].veinsmobility  posx  ETV
vector 138  IntersectionExampleScenario.node[17].veinsmobility  posy  ETV
vector 139  IntersectionExampleScenario.node[17].veinsmobility  speed  ETV
vector 144  IntersectionExampleScenario.node[18].veinsmobility  posx  ETV
vector 145  IntersectionExampleScenario.node[18].veinsmobility  posy  ETV
vector 140  IntersectionExampleScenario.node[17].veinsmobility  acceleration  ETV
vector 141  IntersectionExampleScenario.node[17].veinsmobility  co2emission  ETV
vector 146  IntersectionExampleScenario.node[18].veinsmobility  speed  ETV
vector 147  IntersectionExampleScenario.node[18].veinsmobility  acceleration  ETV
vector 148  IntersectionExampleScenario.node[18].veinsmobility  co2emission  ETV
vector 151  IntersectionExampleScenario.node[19].veinsmobility  posx  ETV
vector 152  IntersectionExampleScenario.node[19].veinsmobility  posy  ETV
vector 153  IntersectionExampleScenario.node[19].veinsmobility  speed  ETV
vector 154  IntersectionExampleScenario.node[19].veinsmobility  acceleration  ETV
vector 155  IntersectionExampleScenario.node[19].veinsmobility  co2emission  ETV
vector 158  IntersectionExampleScenario.node[20].veinsmobility  posx  ETV
vector 159  IntersectionExampleScenario.node[20].veinsmobility  posy  ETV
vector 160  IntersectionExampleScenario.node[20].veinsmobility  speed  ETV
vector 161  IntersectionExampleScenario.node[20].veinsmobility  acceleration  ETV
vector 162  IntersectionExampleScenario.node[20].veinsmobility  co2emission  ETV
vector 165  IntersectionExampleScenario.node[21].veinsmobility  posx  ETV
vector 166  IntersectionExampleScenario.node[21].veinsmobility  posy  ETV
vector 167  IntersectionExampleScenario.node[21].veinsmobility  speed  ETV
vector 168  IntersectionExampleScenario.node[21].veinsmobility  acceleration  ETV
vector 169  IntersectionExampleScenario.node[21].veinsmobility  co2emission  ETV
vector 172  IntersectionExampleScenario.node[22].veinsmobility  posx  ETV
vector 173  IntersectionExampleScenario.node[22].veinsmobility  posy  ETV
vector 174  IntersectionExampleScenario.node[22].veinsmobility  speed  ETV
vector 175  IntersectionExampleScenario.node[22].veinsmobility  acceleration  ETV
vector 176  IntersectionExampleScenario.node[22].veinsmobility  co2emission  ETV
22	11807 4609 12 3666 1.75 42.5 164 0.973 11.200708441096 489.18991891622 2474.8953455387
21	16416 4047 12 3666 1.75 42.5 164 -3.4318885803223 2.5 35.795072555542 256.41105506424
20	20463 4511 9 3666 1.5 42.5 165 5.6500000953674 15.02499961853 2178.6360168457 29893.862464205
19	24974 4831 6 3666 1.25 42.5 166 486.85000610352 731.96028137207 89258.956268311 48942401.419579
18	29805 4824 6 3666 1.25 42.5 166 486.85000610352 785.82187652588 95010.405128479 56156656.093751
vector 179  IntersectionExampleScenario.node[23].veinsmobility  posx  ETV
vector 180  IntersectionExampleScenario.node[23].veinsmobility  posy  ETV
vector 181  IntersectionExampleScenario.node[23].veinsmobility  speed  ETV
vector 182  IntersectionExampleScenario.node[23].veinsmobility  acceleration  ETV
vector 183  IntersectionExampleScenario.node[23].veinsmobility  co2emission  ETV
36	35020 4581 109 4392 9 48.5 159 0.973 11.450879080643 484.44724015116 2505.8905222211
35	39601 4019 109 4392 9 48.5 159 -3.4813346862793 2.5 37.32285118103 228.62201856403
34	43620 4461 102 4392 8.75 48.5 160 5.6500000953674 15.375 2206.753443718 31288.618338187
33	48081 4760 95 4392 8.5 48.5 161 237.06439208984 486.85000610352 69856.410461426 31278109.228474
32	52841 4766 95 4392 8.5 48.5 161 483.14999389648 785.82187652588 92074.922691345 54448666.658347
43	57607 4766 131 4635 9.5 50.75 166 0.973 11.00486315618 496.71127323606 2454.0619687806
42	62373 4478 131 4635 9.5 50.75 166 -4.5 2.5 37.662351608276 226.79568817738
41	66851 4692 120 4635 9.25 50.75 167 5.6500000953674 15.299739837646 2303.1429510117 32648.503555905
40	71543 4979 109 4635 9 50.75 168 236.81927490234 486.85000610352 73293.71005249 32962248.302544
39	76522 4969 109 4635 9 50.75 168 483.11959838867 809.56562805176 97661.176437378 58946370.206325
57	81491 4796 212 4877 11.25 53 168 0.973 11.00486315618 496.99288752897 2514.747143314
56	86287 4598 212 4877 11.25 53 168 -3.0036163330078 2.5 37.492597579956 204.96415481938
55	90885 4752 199 4877 11 53 169 5.6500000953674 15.377833366394 2332.5297002792 33062.277166726
54	95637 5046 186 4877 10.75 53 170 236.70324707031 486.85000610352 74234.028137207 33409757.150202
53	100683 5044 186 4877 10.75 53 170 483.14999389648 816.92969512939 99271.94808197 60265256.632956
vector 186  IntersectionExampleScenario.node[24].veinsmobility  posx  ETV
vector 187  IntersectionExampleScenario.node[24].veinsmobility  posy  ETV
vector 188  IntersectionExampleScenario.node[24].veinsmobility  speed  ETV
vector 189  IntersectionExampleScenario.node[24].veinsmobility  acceleration  ETV
vector 190  IntersectionExampleScenario.node[24].veinsmobility  co2emission  ETV
78	106118 4505 606 5166 17.25 55.75 155 0.973 11.648172402475 469.58057745547 2455.5999638002
77	110623 4169 606 5166 17.25 55.75 155 -3.1871032714844 2.5 38.001859664917 189.58778304208
76	114792 4415 587 5166 17 55.75 156 5.6500000953674 15.64999961853 2219.4500255585 32203.742220035
75	119207 4691 568 5166 16.75 55.75 157 483.14999389648 483.14999389648 75854.549041748 36649124.906541
74	123898 4664 568 5166 16.75 55.75 157 184.17810058594 733.83720397949 70507.44039917 35831871.179075
vector 193  IntersectionExampleScenario.node[25].veinsmobility  posx  ETV
vector 194  IntersectionExampleScenario.node[25].veinsmobility  posy  ETV
vector 195  IntersectionExampleScenario.node[25].veinsmobility  speed  ETV
vector 196  IntersectionExampleScenario.node[25].veinsmobility  acceleration  ETV
vector 197  IntersectionExampleScenario.node[25].veinsmobility  co2emission  ETV
29	128953 5333 102 5456 8.75 58.5 200 0.973 12.099024792222 598.28848811923 3311.4653068189
28	134286 4745 102 5456 8.75 58.5 200 -8.3624143600464 4 41.396924972534 520.81345711319
27	139031 5148 95 5456 8.5 58.5 201 0 16.27499961853 2206.8934006691 32605.299078148
26	144179 5961 90 5456 8.25 58.5 202 184.17810058594 731.91882324219 91507.019805908 45449093.160437
25	150140 5998 90 5456 8.25 58.5 202 486.85000610352 486.85000610352 98343.70123291 47878631.545484
64	156138 5136 255 5483 12 58.75 188 0.973 12.099024792222 578.78865660475 3193.8601559084
63	161274 4588 255 5483 12 58.75 188 -9.4888134002686 4 40.887662887573 530.06788007151
62	165862 4950 240 5483 11.75 58.75 189 0 16.27499961853 2180.4144985676 31701.827442564
61	170812 5653 225 5483 11.5 58.75 190 486.63604736328 785.82187652588 106394.45667267 61433656.403177
60	176465 5586 225 5483 11.5 58.75 190 236.62127685547 483.14999389648 83902.826721191 38014418.353929
vector 200  IntersectionExampleScenario.node[26].veinsmobility  posx  ETV
vector 201  IntersectionExampleScenario.node[26].veinsmobility  posy  ETV
vector 202  IntersectionExampleScenario.node[26].veinsmobility  speed  ETV
vector 203  IntersectionExampleScenario.node[26].veinsmobility  acceleration  ETV
vector 204  IntersectionExampleScenario.node[26].veinsmobility  co2emission  ETV
50	182442 5791 131 5685 9.5 60.5 205 0.96333723109819 12.099024792222 599.18127731196 3123.9468203596
49	188233 5574 131 5685 9.5 60.5 205 -4.5 2.5 40.208654403687 476.22477487214
48	193807 5830 120 5685 9.25 60.5 206 0 16.27499961853 2284.7269888856 32616.983871769
47	199637 6134 109 5685 9 60.5 207 161.1796875 483.14999389648 83624.546112061 36047814.525359
46	205771 6149 109 5685 9 60.5 207 486.85000610352 734.88958740234 108850.54476929 58253173.291799
71	211920 5265 364 5714 13.75 60.75 189 0.973 11.200708441096 539.96883749984 2663.2911290635
70	217185 5239 364 5714 13.75 60.75 189 -4.2991485595703 2.5000009536743 36.134572982788 356.47671887941
69	222424 5538 347 5714 13.5 60.75 190 0.97399735450745 15.02499961853 2285.5635832548 30998.857776652
68	227962 5677 330 5714 13.25 60.75 191 238.07757568359 805.05782318115 100831.10158539 57909271.717385
67	233639 5698 330 5714 13.25 60.75 191 483.14999389648 483.14999389648 92281.648834229 44585878.071015
vector 207  IntersectionExampleScenario.node[27].veinsmobility  posx  ETV
vector 208  IntersectionExampleScenario.node[27].veinsmobility  posy  ETV
vector 214  IntersectionExampleScenario.node[28].veinsmobility  posx  ETV
vector 215  IntersectionExampleScenario.node[28].veinsmobility  posy  ETV
vector 209  IntersectionExampleScenario.node[27].veinsmobility  speed  ETV
vector 210  IntersectionExampleScenario.node[27].veinsmobility  acceleration  ETV
vector 211  IntersectionExampleScenario.node[27].veinsmobility  co2emission  ETV
vector 216  IntersectionExampleScenario.node[28].veinsmobility  speed  ETV
vector 217  IntersectionExampleScenario.node[28].veinsmobility  acceleration  ETV
vector 218  IntersectionExampleScenario.node[28].veinsmobility  co2emission  ETV
85	240119 4920 648 5950 17.75 62.75 181 0.96333723109819 12.099024792222 544.3265271932 3105.2648722333
84	245039 4869 648 5950 17.75 62.75 181 -2.2071113586426 2.5 40.208654403687 297.68351456614
83	249908 5112 627 5950 17.5 62.75 182 3.7258405685425 16.27499961853 2183.806166172 29347.053811499
82	255020 5450 606 5950 17.25 62.75 183 184.17810058594 483.26174926758 73594.321075439 31351918.428755
81	260470 5468 606 5950 17.25 62.75 183 486.85000610352 732.67956542969 97030.091094971 52397188.506874
vector 221  IntersectionExampleScenario.node[29].veinsmobility  posx  ETV
vector 222  IntersectionExampleScenario.node[29].veinsmobility  posy  ETV
vector 223  IntersectionExampleScenario.node[29].veinsmobility  speed  ETV
vector 224  IntersectionExampleScenario.node[29].veinsmobility  acceleration  ETV
vector 225  IntersectionExampleScenario.node[29].veinsmobility  co2emission  ETV
99	266329 4768 1056 6176 22.25 64.75 171 0.973 11.36141391502 543.27228279802 3157.9600410708
98	271097 4641 1056 6176 22.25 64.75 171 -3.1737995147705 2.5 36.134572982788 336.57511329146
97	275738 4831 1031 6176 22 64.75 172 5.6500000953674 15.25 2189.2075428963 29142.502299109
96	280569 5177 1006 6176 21.75 64.75 173 486.77236938477 785.82187652588 98864.44052887 58281245.233875
95	285746 5180 1006 6176 21.75 64.75 173 235.14434814453 483.14999389648 74994.013366699 33499953.054223
vector 228  IntersectionExampleScenario.node[30].veinsmobility  posx  ETV
vector 229  IntersectionExampleScenario.node[30].veinsmobility  posy  ETV
vector 230  IntersectionExampleScenario.node[30].veinsmobility  speed  ETV
vector 231  IntersectionExampleScenario.node[30].veinsmobility  acceleration  ETV
vector 232  IntersectionExampleScenario.node[30].veinsmobility  co2emission  ETV
134	291317 4612 1951 6604 30.25 69.25 157 0.973 12.099024792222 523.08414824582 3082.8775063728
133	295929 4401 1951 6604 30.25 69.25 157 -4.0740127563477 2.5 40.038900375366 303.12193554204
132	300330 4572 1918 6604 30 69.25 158 5.6500000953674 16.27499961853 2189.8401842117 31844.472106186
131	304902 4917 1885 6604 29.75 69.25 159 486.83554077148 785.82187652588 90989.201591492 53791167.217111
130	309819 4921 1885 6604 29.75 69.25 159 235.30639648438 483.14999389648 68736.128051758 30633333.31217
vector 235  IntersectionExampleScenario.node[31].veinsmobility  posx  ETV
vector 236  IntersectionExampleScenario.node[31].veinsmobility  posy  ETV
vector 237  IntersectionExampleScenario.node[31].veinsmobility  speed  ETV
vector 238  IntersectionExampleScenario.node[31].veinsmobility  acceleration  ETV
vector 239  IntersectionExampleScenario.node[31].veinsmobility  co2emission  ETV
148	315131 5055 2161 6990 31.75 74 170 0.973 11.200708441096 502.3494688354 2561.5641905377
147	320186 4820 2161 6990 31.75 74 170 -3.3869857788086 2.5 35.795072555542 253.42665304637
146	325006 4990 2124 6990 31.5 74 171 5.6500000953674 15.02499961853 2261.0349607468 31047.117832257
145	329996 5318 2087 6990 31.25 74 172 486.78219604492 806.11563110352 99783.285400391 59991435.817968
144	335314 5320 2087 6990 31.25 74 172 237.52954101562 483.14999389648 74620.425262451 33340476.466842
vector 242  IntersectionExampleScenario.node[32].veinsmobility  posx  ETV
vector 243  IntersectionExampleScenario.node[32].veinsmobility  posy  ETV
vector 244  IntersectionExampleScenario.node[32].veinsmobility  speed  ETV
vector 245  IntersectionExampleScenario.node[32].veinsmobility  acceleration  ETV
vector 246  IntersectionExampleScenario.node[32].veinsmobility  co2emission  ETV
92	341025 6280 799 7378 19.5 78.5 237 0.973 11.200708441096 591.96913714543 2715.1488314797
91	347305 5520 799 7378 19.5 78.5 237 -7.8195018768311 4 35.795072555542 488.9566897222
90	352825 5963 776 7378 19.25 78.5 238 0 15.02499961853 2245.839142561 30765.877519958
89	358788 7155 753 7378 19 78.5 239 483.14999389648 732.46864318848 124172.7565918 65645189.409382
88	365943 7137 753 7378 19 78.5 239 167.29217529297 486.85000610352 99184.335357666 43554972.255963
113	373080 5881 1473 7378 26.25 78.5 210 0.973 11.450879080643 570.78203746452 2808.1037134928
112	378961 5311 1473 7378 26.25 78.5 210 -8.4870567321777 4 37.15309715271 478.32449572734
111	384272 5676 1444 7378 26 78.5 211 0 15.375 2198.746417284 30558.207844133
110	389948 6566 1415 7378 25.75 78.5 212 237.33026123047 486.85000610352 94685.758514404 43365324.160359
109	396514 6560 1415 7378 25.75 78.5 212 483.14999389648 785.82187652588 117560.78813934 67188474.439589
141	403074 5582 2087 7515 31.25 80 196 0.973 11.200708441096 536.98528458599 2635.2683987125
140	408656 5702 2087 7515 31.25 80 196 -3.7912969589233 2.500000089407 35.964826583862 341.47190192465
139	414358 5949 2052 7515 31 80 197 0 15.02499961853 2214.9125634804 29448.80484594
138	420307 6137 2017 7515 30.75 80 198 486.85000610352 486.85000610352 96396.301208496 46930539.831713
137	426444 6109 2017 7515 30.75 80 198 236.62677001953 785.82187652588 102742.93569183 57583330.717997
106	432553 6498 1310 7536 24.75 80.25 223 0.973 11.200708441096 590.32442173138 2720.0039177777
105	439051 6241 1310 7536 24.75 80.25 223 -4.5 2.5000009536743 37.662351608276 416.22786071521
104	445292 6735 1283 7536 24.5 80.25 224 0 15.096762657166 2207.1405535527 30035.936524613
103	452027 6970 1256 7536 24.25 80.25 225 235.60601806641 483.14999389648 100351.01147461 45821834.675439
102	458997 6962 1256 7536 24.25 80.25 225 178.80108642578 483.45120239258 93068.172698975 40535595.402843
vector 249  IntersectionExampleScenario.node[33].veinsmobility  posx  ETV
vector 250  IntersectionExampleScenario.node[33].veinsmobility  posy  ETV
vector 251  IntersectionExampleScenario.node[33].veinsmobility  speed  ETV
vector 252  IntersectionExampleScenario.node[33].veinsmobility  acceleration  ETV
vector 253  IntersectionExampleScenario.node[33].veinsmobility  co2emission  ETV
120	466350 6408 1473 7695 26.25 82 224 0.973 11.648172402475 607.52601465502 2976.5116707398
119	472758 6412 1473 7695 26.25 82 224 -4.5 2.5 39.869146347046 400.20372331086
118	479170 6673 1444 7695 26 82 225 0 15.663527488708 2266.606899783 30391.150467009
117	485843 7001 1415 7695 25.75 82 226 239.00848388672 483.14999389648 101318.90447998 46423244.240688
116	492844 6987 1415 7695 25.75 82 226 161.19586181641 483.14999389648 91340.880645752 39163608.508248
162	499831 5085 3021 7718 38 82.25 178 0.973 11.200708441096 562.80881536715 3002.1422790798
161	504916 4936 3021 7718 38 82.25 178 -3.109338760376 2.5000019073486 39.020376205444 339.4447951489
160	509852 5226 2986 7718 37.75 82.25 179 5.3711938858032 15.46003818512 2192.8601970673 29041.141098572
159	515078 5575 2951 7718 37.5 82.25 180 486.85000610352 735.20204162598 95890.869094849 52064783.663857
158	520653 5569 2951 7718 37.5 82.25 180 486.85000610352 785.82187652588 102621.82798004 60269076.984206
vector 256  IntersectionExampleScenario.node[34].veinsmobility  posx  ETV
vector 257  IntersectionExampleScenario.node[34].veinsmobility  posy  ETV
vector 258  IntersectionExampleScenario.node[34].veinsmobility  speed  ETV
vector 259  IntersectionExampleScenario.node[34].veinsmobility  acceleration  ETV
vector 260  IntersectionExampleScenario.node[34].veinsmobility  co2emission  ETV
176	526613 4951 3555 7802 41.75 83.25 167 0.97223939240464 11.648172402475 541.69933075337 3010.7428969012
175	531564 4749 3555 7802 41.75 83.25 167 -4.5 2.5 38.680875778198 323.51008867079
174	536313 4988 3518 7802 41.5 83.25 168 5.6500000953674 15.64999961853 2249.6716589928 31320.245964031
173	541301 5240 3481 7802 41.25 83.25 169 486.85000610352 486.85000610352 82277.651031494 40056874.906866
172	546541 5222 3481 7802 41.25 83.25 169 236.65948486328 793.78281402588 89140.932846069 51335037.673815
127	551763 6200 1854 7886 29.5 84.25 220 0.973 11.648172402475 598.8855749179 2978.8351106746
126	557963 6643 1854 7886 29.5 84.25 220 -4.5 2.5 40.038900375366 348.42370181311
125	564606 6540 1823 7886 29.25 84.25 221 1.6100276708603 15.932386398315 2281.9598187208 30085.88997229
124	571146 6873 1792 7886 29 84.25 222 235.38629150391 483.14999389648 99189.286773682 45352071.463337
123	578019 6845 1792 7886 29 84.25 222 161.43853759766 483.14999389648 88846.951873779 37739405.025219
155	584864 5555 2783 8001 36.25 85.75 199 0.973 12.099024792222 564.50212318863 3097.413162624
154	590419 5711 2783 8001 36.25 85.75 199 -2.9649505615234 2.5 41.736440658569 292.92546418
153	596130 5853 2748 8001 36 85.75 200 3.5434536933899 16.27499961853 2185.6230661869 28504.564269204
152	601983 6218 2713 8001 35.75 85.75 201 236.81848144531 483.14999389648 89317.748382568 40659860.21876
151	608201 6202 2713 8001 35.75 85.75 201 184.17810058594 483.25448608398 80992.451721191 34399079.080244
vector 263  IntersectionExampleScenario.node[35].veinsmobility  posx  ETV
vector 264  IntersectionExampleScenario.node[35].veinsmobility  posy  ETV
vector 265  IntersectionExampleScenario.node[35].veinsmobility  speed  ETV
vector 266  IntersectionExampleScenario.node[35].veinsmobility  acceleration  ETV
vector 267  IntersectionExampleScenario.node[35].veinsmobility  co2emission  ETV
197	614794 4482 5429 8596 58.25 95 148 0.973 12.099024792222 490.9170096863 2770.7218517746
196	619276 3918 5429 8596 58.25 95 148 -3.2282485961914 2.5 41.566686630249 213.62521536372
195	623194 4344 5402 8596 58 95 149 5.6500000953674 16.27499961853 2212.5592012405 33673.957260573
194	627538 4649 5375 8596 57.75 95 150 486.85000610352 486.85000610352 73027.500915527 35553439.266449
193	632187 4639 5375 8596 57.75 95 150 238.08557128906 785.82187652588 78484.321311951 45030974.153834
vector 270  IntersectionExampleScenario.node[36].veinsmobility  posx  ETV
vector 271  IntersectionExampleScenario.node[36].veinsmobility  posy  ETV
vector 272  IntersectionExampleScenario.node[36].veinsmobility  speed  ETV
169	637052 6332 3270 8785 39.75 97.75 233 0.973 12.099024792222 633.75227576094 3308.9559079635
168	643384 5531 3270 8785 39.75 97.75 233 -39.541427612305 4 41.057416915894 1935.7929210431
167	648915 5908 3233 8785 39.5 97.75 234 0 16.27499961853 2221.6622753143 33294.079313302
166	654823 7256 3196 8785 39.25 97.75 235 184.17810058594 734.86402893066 107333.93605042 53100890.699569
165	662079 7287 3196 8785 39.25 97.75 235 486.85000610352 486.85000610352 114409.75143433 55700388.184103
vector 273  IntersectionExampleScenario.node[36].veinsmobility  acceleration  ETV
vector 274  IntersectionExampleScenario.node[36].veinsmobility  co2emission  ETV
190	669531 5101 5031 8804 54.5 98 175 0.973 11.90022389248 554.315328761 3043.3028263429
189	674632 4865 5031 8804 54.5 98 175 -7.6570835113525 4 39.190130233765 495.56182730084
188	679497 4995 5004 8804 54.25 98 176 0 16 2197.8007998466 31451.226789541
187	684492 5476 4977 8804 54 98 177 483.14999389648 785.82187652588 99874.131202698 58206803.550394
186	689968 5484 4977 8804 54 98 177 483.14999389648 732.10368347168 93738.313354492 50625304.3686
vector 277  IntersectionExampleScenario.node[37].veinsmobility  posx  ETV
vector 278  IntersectionExampleScenario.node[37].veinsmobility  posy  ETV
vector 279  IntersectionExampleScenario.node[37].veinsmobility  speed  ETV
vector 280  IntersectionExampleScenario.node[37].veinsmobility  acceleration  ETV
vector 281  IntersectionExampleScenario.node[37].veinsmobility  co2emission  ETV
183	695843 6008 4225 8989 47 100.25 214 0.97223939240464 11.648172402475 574.86006040287 2909.0434824025
182	701851 6385 4225 8989 47 100.25 214 -3.8634693622589 2.5 38.680875778198 329.23500992109
181	708236 6526 4196 8989 46.75 100.25 215 0 15.64999961853 2218.9983200952 29762.61851816
180	714762 6671 4166 8989 46.5 100.25 216 184.17810058594 734.08106994629 97276.299362183 47968362.339002
179	721433 6698 4166 8989 46.5 100.25 216 486.85000610352 486.85000610352 105159.60131836 51196952.543686
204	728131 4990 5568 9137 59.5 102.25 172 0.973 11.648172402475 545.75227467095 3079.4332166315
203	733121 4787 5568 9137 59.5 102.25 172 -3.8922882080078 2.5 38.341367721558 326.22336443945
202	737908 5088 5539 9137 59.25 102.25 173 5.6500000953674 15.64999961853 2200.3338255882 29708.617025885
201	742996 5374 5510 9137 59 102.25 174 184.17810058594 487.03674316406 69612.531066895 29635001.786187
200	748370 5393 5510 9137 59 102.25 174 238.3359375 486.85000610352 76404.781585693 34528978.618688
vector 284  IntersectionExampleScenario.node[38].veinsmobility  posx  ETV
vector 285  IntersectionExampleScenario.node[38].veinsmobility  posy  ETV
vector 286  IntersectionExampleScenario.node[38].veinsmobility  speed  ETV
vector 287  IntersectionExampleScenario.node[38].veinsmobility  acceleration  ETV
vector 288  IntersectionExampleScenario.node[38].veinsmobility  co2emission  ETV
vector 291  IntersectionExampleScenario.node[39].veinsmobility  posx  ETV
vector 292  IntersectionExampleScenario.node[39].veinsmobility  posy  ETV
vector 293  IntersectionExampleScenario.node[39].veinsmobility  speed  ETV
vector 294  IntersectionExampleScenario.node[39].veinsmobility  acceleration  ETV
vector 295  IntersectionExampleScenario.node[39].veinsmobility  co2emission  ETV
218	754545 5163 5921 9409 62.5 106.25 176 0.973 10.916047529558 510.35222029624 2616.4024120511
217	759708 5099 5921 9409 62.5 106.25 176 -4.1613922119141 2.5 34.437047958374 286.96051801954
216	764807 5209 5891 9409 62.25 106.25 177 5.6500000953674 14.625 2239.1163606644 29364.837491732
215	770016 5516 5860 9409 62 106.25 178 171.40313720703 483.32315063477 70056.449890137 29585145.146365
214	775532 5532 5860 9409 62 106.25 178 486.85000610352 734.27485656738 95445.638793945 52193560.469179
vector 298  IntersectionExampleScenario.node[40].veinsmobility  posx  ETV
vector 299  IntersectionExampleScenario.node[40].veinsmobility  posy  ETV
vector 300  IntersectionExampleScenario.node[40].veinsmobility  speed  ETV
vector 301  IntersectionExampleScenario.node[40].veinsmobility  acceleration  ETV
vector 302  IntersectionExampleScenario.node[40].veinsmobility  co2emission  ETV
vector 305  IntersectionExampleScenario.node[41].veinsmobility  posx  ETV
vector 306  IntersectionExampleScenario.node[41].veinsmobility  posy  ETV
vector 307  IntersectionExampleScenario.node[41].veinsmobility  speed  ETV
vector 308  IntersectionExampleScenario.node[41].veinsmobility  acceleration  ETV
vector 309  IntersectionExampleScenario.node[41].veinsmobility  co2emission  ETV
vector 312  IntersectionExampleScenario.node[42].veinsmobility  posx  ETV
vector 313  IntersectionExampleScenario.node[42].veinsmobility  posy  ETV
vector 314  IntersectionExampleScenario.node[42].veinsmobility  speed  ETV
vector 315  IntersectionExampleScenario.node[42].veinsmobility  acceleration  ETV
vector 316  IntersectionExampleScenario.node[42].veinsmobility  co2emission  ETV
vector 319  IntersectionExampleScenario.node[43].veinsmobility  posx  ETV
vector 320  IntersectionExampleScenario.node[43].veinsmobility  posy  ETV
vector 326  IntersectionExampleScenario.node[44].veinsmobility  posx  ETV
vector 327  IntersectionExampleScenario.node[44].veinsmobility  posy  ETV
vector 321  IntersectionExampleScenario.node[43].veinsmobility  speed  ETV
211	782613 6132 5891 10076 62.25 117.25 221 0.973 11.810082123732 591.83499121819 3044.4353595273
210	788745 5674 5891 10076 62.25 117.25 221 -7.7785291671753 4 38.511121749878 481.7984547422
209	794419 5861 5860 10076 62 117.25 222 0 15.875 2181.7087526321 30752.463020945
208	800280 6910 5830 10076 61.75 117.25 223 235.74822998047 483.14999389648 99514.25479126 45458447.169394
207	807190 6962 5830 10076 61.75 117.25 223 184.17810058594 483.36395263672 93192.050140381 40927279.971879
239	814152 5353 6822 10076 72 117.25 182 0.973 11.648172402475 555.24627313783 2943.5978302191
238	819505 4932 6822 10076 72 117.25 182 -7.7750473022461 4 38.511121749878 480.0267975717
237	824437 5277 6801 10076 71.75 117.25 183 0 15.64999961853 2214.2518191338 31459.954721098
236	829714 5779 6780 10076 71.5 117.25 184 486.85000610352 486.85000610352 89580.401123047 43612218.833511
235	835493 5764 6780 10076 71.5 117.25 184 236.02325439453 785.82187652588 95283.268989563 53500721.911412
vector 322  IntersectionExampleScenario.node[43].veinsmobility  acceleration  ETV
vector 323  IntersectionExampleScenario.node[43].veinsmobility  co2emission  ETV
vector 328  IntersectionExampleScenario.node[44].veinsmobility  speed  ETV
vector 329  IntersectionExampleScenario.node[44].veinsmobility  acceleration  ETV
vector 330  IntersectionExampleScenario.node[44].veinsmobility  co2emission  ETV
vector 333  IntersectionExampleScenario.node[45].veinsmobility  posx  ETV
vector 334  IntersectionExampleScenario.node[45].veinsmobility  posy  ETV
vector 335  IntersectionExampleScenario.node[45].veinsmobility  speed  ETV
vector 336  IntersectionExampleScenario.node[45].veinsmobility  acceleration  ETV
vector 337  IntersectionExampleScenario.node[45].veinsmobility  co2emission  ETV
vector 340  IntersectionExampleScenario.node[46].veinsmobility  posx  ETV
vector 341  IntersectionExampleScenario.node[46].veinsmobility  posy  ETV
vector 342  IntersectionExampleScenario.node[46].veinsmobility  speed  ETV
vector 343  IntersectionExampleScenario.node[46].veinsmobility  acceleration  ETV
vector 344  IntersectionExampleScenario.node[46].veinsmobility  co2emission  ETV
225	842445 6795 6040 10328 63.5 120 227 0.973 11.36141391502 592.88057077839 2801.0277170949
224	849240 6592 6040 10328 63.5 120 227 -4.5 2.5 37.15309715271 411.22392800419
223	855832 6906 6010 10328 63.25 120 228 0 15.25 2268.3525325982 30933.871285675
222	862738 7192 5979 10328 63 120 229 237.16400146484 483.14999389648 102329.24130249 46784756.532088
221	869930 7165 5979 10328 63 120 229 162.90466308594 483.33056640625 93549.61227417 40558081.189865
232	877095 6532 6380 10556 66.75 122.5 224 0.973 11.450879080643 592.07849694159 2846.3982422675
231	883627 6506 6380 10556 66.75 122.5 224 -3.8247590065002 2.5 38.001859664917 358.29137295285
230	890133 6759 6355 10556 66.5 122.5 225 0 15.375 2301.8507264778 30785.44314614
229	896892 7116 6330 10556 66.25 122.5 226 483.14999389648 735.00120544434 117768.02272034 62482308.753576
228	904008 7095 6330 10556 66.25 122.5 226 162.29296875 486.85000610352 91728.339782715 39539206.942888
246	911103 5379 7309 10661 77.75 123.75 185 0.96333723109819 12.099024792222 556.89728854187 3004.1552513434
245	916482 5344 7309 10661 77.75 123.75 185 -2.7801971435547 2.5 40.208654403687 302.31738904233
244	921826 5638 7286 10661 77.5 123.75 186 3.5576629638672 16.27499961853 2210.8018023968 29589.72803579
243	927464 5923 7263 10661 77.25 123.75 187 483.14999389648 733.75595092773 98562.474761963 52958623.358348
242	933387 5899 7263 10661 77.25 123.75 187 184.17810058594 486.88040161133 75393.432220459 32187387.704947
253	939286 5364 7603 10829 81 125.75 180 0.973 11.54047740176 523.08478676156 2722.6796771815
252	944650 5303 7603 10829 81 125.75 180 -4.5 2.5000019073486 37.15309715271 300.255624822
251	949953 5515 7580 10829 80.75 125.75 181 5.5685648918152 15.5 2262.4230184555 30293.863470395
250	955468 5786 7557 10829 80.5 125.75 182 483.14999389648 483.14999389648 87933.29888916 42484972.821595
249	961254 5743 7557 10829 80.5 125.75 182 172.9296875 733.5149230957 80470.240036011 40051714.549652
vector 347  IntersectionExampleScenario.node[47].veinsmobility  posx  ETV
vector 348  IntersectionExampleScenario.node[47].veinsmobility  posy  ETV
vector 349  IntersectionExampleScenario.node[47].veinsmobility  speed  ETV
vector 350  IntersectionExampleScenario.node[47].veinsmobility  acceleration  ETV
vector 351  IntersectionExampleScenario.node[47].veinsmobility  co2emission  ETV
vector 354  IntersectionExampleScenario.node[48].veinsmobility  posx  ETV
vector 355  IntersectionExampleScenario.node[48].veinsmobility  posy  ETV
vector 356  IntersectionExampleScenario.node[48].veinsmobility  speed  ETV
vector 357  IntersectionExampleScenario.node[48].veinsmobility  acceleration  ETV
vector 358  IntersectionExampleScenario.node[48].veinsmobility  co2emission  ETV
267	967779 4863 8528 11353 94 132.25 154 0.973 11.648172402475 470.76336111104 2462.8829942015
266	972642 4437 8528 11353 94 132.25 154 -3.1964302062988 2.5 38.341367721558 191.50694040174
265	977079 4768 8511 11353 93.75 132.25 155 5.6500000953674 15.64999961853 2217.1332235336 32350.133803948
264	981847 5031 8494 11353 93.5 132.25 156 483.14999389648 483.14999389648 75371.399047852 36415690.989939
263	986878 5000 8494 11353 93.5 132.25 156 184.17810058594 733.26556396484 69982.629058838 35533807.588377
260	991878 6121 7781 11707 83 136.5 215 0.94600815583079 12.26218747632 619.86978136542 3465.7726918365
259	997999 5633 7781 11707 83 136.5 215 -6.8994741439819 4 41.566686630249 509.88739284092
258	1003632 5827 7760 11707 82.75 136.5 216 0 16.5 2173.645326376 31801.204520563
257	1009459 6941 7739 11707 82.5 136.5 217 486.63604736328 785.82187652588 119813.34230804 68092911.97923
256	1016400 6882 7739 11707 82.5 136.5 217 238.05474853516 483.14999389648 97122.187011719 44449845.523214
274	1023282 5117 8804 11833 98 138.25 162 0.973 11.093806525473 465.26158331748 2256.8673166219
273	1028399 4620 8804 11833 98 138.25 162 -2.8067283630371 2.5 34.77654838562 183.31482279703
272	1033019 5071 8785 11833 97.75 138.25 163 5.6500000953674 14.875 2214.1804199219 30543.092653995
271	1038090 5292 8766 11833 97.5 138.25 164 184.17810058594 732.92666625977 73731.923995972 37469474.979917
270	1043382 5327 8766 11833 97.5 138.25 164 486.85000610352 486.85000610352 79843.401000977 38871760.264651
vector 361  IntersectionExampleScenario.node[49].veinsmobility  posx  ETV
vector 362  IntersectionExampleScenario.node[49].veinsmobility  posy  ETV
vector 368  IntersectionExampleScenario.node[50].veinsmobility  posx  ETV
vector 369  IntersectionExampleScenario.node[50].veinsmobility  posy  ETV
vector 363  IntersectionExampleScenario.node[49].veinsmobility  speed  ETV
vector 370  IntersectionExampleScenario.node[50].veinsmobility  speed  ETV
vector 364  IntersectionExampleScenario.node[49].veinsmobility  acceleration  ETV
vector 365  IntersectionExampleScenario.node[49].veinsmobility  co2emission  ETV
vector 371  IntersectionExampleScenario.node[50].veinsmobility  acceleration  ETV
vector 372  IntersectionExampleScenario.node[50].veinsmobility  co2emission  ETV
vector 375  IntersectionExampleScenario.node[51].veinsmobility  posx  ETV
vector 376  IntersectionExampleScenario.node[51].veinsmobility  posy  ETV
vector 377  IntersectionExampleScenario.node[51].veinsmobility  speed  ETV
vector 378  IntersectionExampleScenario.node[51].veinsmobility  acceleration  ETV
vector 379  IntersectionExampleScenario.node[51].veinsmobility  co2emission  ETV
288	1049882 4749 9298 12091 104.75 141.75 149 0.973 11.093806525473 498.04186264594 2398.0300444567
287	1054631 4765 9298 12091 104.75 141.75 149 -3.3731231689453 2.5 42.585195541382 188.03543256532
286	1059396 4682 9281 12091 104.5 141.75 150 5.6500000953674 16.34344291687 2217.4961881638 33614.25876517
285	1064078 4913 9264 12091 104.25 141.75 151 184.17810058594 733.14086914062 67315.688674927 34018731.761731
284	1068991 4937 9264 12091 104.25 141.75 151 486.85000610352 486.85000610352 73514.350921631 35790462.194892
295	1073928 5034 9353 12300 105.5 144.5 157 0.973 11.990504229548 510.48894005924 2646.6306426065
294	1078962 4596 9353 12300 105.5 144.5 157 -4.5 2.5 41.227170944214 228.77738727993
293	1083558 4919 9334 12300 105.25 144.5 158 5.6500000953674 16.125 2308.8222637177 34565.928379503
292	1088477 5174 9315 12300 105 144.5 159 161.1796875 732.52365112305 69254.992980957 34684511.595798
291	1093651 5201 9315 12300 105 144.5 159 486.85000610352 486.85000610352 77409.150970459 37686645.622436
vector 382  IntersectionExampleScenario.node[52].veinsmobility  posx  ETV
vector 383  IntersectionExampleScenario.node[52].veinsmobility  posy  ETV
vector 384  IntersectionExampleScenario.node[52].veinsmobility  speed  ETV
vector 389  IntersectionExampleScenario.node[53].veinsmobility  posx  ETV
vector 390  IntersectionExampleScenario.node[53].veinsmobility  posy  ETV
vector 385  IntersectionExampleScenario.node[52].veinsmobility  acceleration  ETV
vector 386  IntersectionExampleScenario.node[52].veinsmobility  co2emission  ETV
vector 391  IntersectionExampleScenario.node[53].veinsmobility  speed  ETV
vector 392  IntersectionExampleScenario.node[53].veinsmobility  acceleration  ETV
vector 393  IntersectionExampleScenario.node[53].veinsmobility  co2emission  ETV
vector 396  IntersectionExampleScenario.node[54].veinsmobility  posx  ETV
vector 397  IntersectionExampleScenario.node[54].veinsmobility  posy  ETV
vector 398  IntersectionExampleScenario.node[54].veinsmobility  speed  ETV
vector 399  IntersectionExampleScenario.node[54].veinsmobility  acceleration  ETV
vector 400  IntersectionExampleScenario.node[54].veinsmobility  co2emission  ETV
302	1100025 4963 9843 12926 113.75 152 154 0.973 11.648172402475 472.37063277033 2468.6221642102
301	1104988 4490 9843 12926 113.75 152 154 -3.3639106750488 2.5 38.511121749878 193.7515100159
300	1109478 4868 9828 12926 113.5 152 155 5.6500000953674 15.64999961853 2221.4249238968 32483.241731561
299	1114346 5104 9813 12926 113.25 152 156 235.65411376953 785.82187652588 81264.277168274 46487544.880767
298	1119450 5136 9813 12926 113.25 152 156 483.14999389648 483.14999389648 75371.399047852 36415690.989939
309	1124586 4871 9952 13026 115.5 153 151 0.973 11.990504229548 484.33818998292 2631.1623933734
308	1129457 4196 9952 13026 115.5 153 151 -3.3196411132812 2.5 40.208654403687 208.27056208474
307	1133653 4774 9935 13026 115.25 153 152 5.6500000953674 16.125 2225.0939950943 33308.861912589
306	1138427 5012 9918 13026 115 153 153 184.17810058594 735.06851196289 68637.078414917 34884501.487027
305	1143439 5042 9918 13026 115 153 153 486.85000610352 486.85000610352 74488.050933838 36264508.051778
vector 403  IntersectionExampleScenario.node[55].veinsmobility  posx  ETV
vector 404  IntersectionExampleScenario.node[55].veinsmobility  posy  ETV
vector 410  IntersectionExampleScenario.node[56].veinsmobility  posx  ETV
vector 411  IntersectionExampleScenario.node[56].veinsmobility  posy  ETV
vector 405  IntersectionExampleScenario.node[55].veinsmobility  speed  ETV
vector 406  IntersectionExampleScenario.node[55].veinsmobility  acceleration  ETV
vector 407  IntersectionExampleScenario.node[55].veinsmobility  co2emission  ETV
vector 412  IntersectionExampleScenario.node[56].veinsmobility  speed  ETV
vector 413  IntersectionExampleScenario.node[56].veinsmobility  acceleration  ETV
vector 414  IntersectionExampleScenario.node[56].veinsmobility  co2emission  ETV
316	1149263 5097 10023 13378 116.5 156.25 160 0.97223939240464 11.810082123732 514.72529074966 2894.3942348819
315	1154360 4761 10023 13378 116.5 156.25 160 -4.4909782409668 2.5 38.680875778198 305.06525697993
314	1159121 4976 10005 13378 116.25 156.25 161 5.6500000953674 15.875 2176.0280885696 30875.477470733
313	1164097 5341 9986 13378 116 156.25 162 238.74182128906 483.14999389648 70254.153747559 31372382.561962
312	1169438 5317 9986 13378 116 156.25 162 184.17810058594 483.14999389648 64440.490997314 27372400.393742
vector 417  IntersectionExampleScenario.node[57].veinsmobility  posx  ETV
vector 418  IntersectionExampleScenario.node[57].veinsmobility  posy  ETV
281	1174905 6730 8884 13405 99 156.5 231 0.973 11.36141391502 588.14131621452 2801.112854941
280	1181635 6066 8884 13405 99 156.5 231 -9.8370990753174 4 36.813589096069 521.77434010808
279	1187701 6384 8863 13405 98.75 156.5 232 0 15.25 2171.7788026333 29997.179774604
278	1194085 7547 8842 13405 98.5 156.5 233 486.85000610352 732.10182189941 121746.41195679 64673914.842468
277	1201632 7604 8842 13405 98.5 156.5 233 486.63604736328 785.82187652588 128304.87473297 72681242.162471
vector 419  IntersectionExampleScenario.node[57].veinsmobility  speed  ETV
vector 420  IntersectionExampleScenario.node[57].veinsmobility  acceleration  ETV
vector 421  IntersectionExampleScenario.node[57].veinsmobility  co2emission  ETV
vector 424  IntersectionExampleScenario.node[58].veinsmobility  posx  ETV
vector 425  IntersectionExampleScenario.node[58].veinsmobility  posy  ETV
vector 426  IntersectionExampleScenario.node[58].veinsmobility  speed  ETV
vector 427  IntersectionExampleScenario.node[58].veinsmobility  acceleration  ETV
vector 428  IntersectionExampleScenario.node[58].veinsmobility  co2emission  ETV
vector 431  IntersectionExampleScenario.node[59].veinsmobility  posx  ETV
vector 432  IntersectionExampleScenario.node[59].veinsmobility  posy  ETV
vector 433  IntersectionExampleScenario.node[59].veinsmobility  speed  ETV
vector 434  IntersectionExampleScenario.node[59].veinsmobility  acceleration  ETV
vector 435  IntersectionExampleScenario.node[59].veinsmobility  co2emission  ETV
vector 438  IntersectionExampleScenario.node[60].veinsmobility  posx  ETV
vector 439  IntersectionExampleScenario.node[60].veinsmobility  posy  ETV
vector 440  IntersectionExampleScenario.node[60].veinsmobility  speed  ETV
vector 441  IntersectionExampleScenario.node[60].veinsmobility  acceleration  ETV
vector 442  IntersectionExampleScenario.node[60].veinsmobility  co2emission  ETV
vector 445  IntersectionExampleScenario.node[61].veinsmobility  posx  ETV
vector 446  IntersectionExampleScenario.node[61].veinsmobility  posy  ETV
vector 447  IntersectionExampleScenario.node[61].veinsmobility  speed  ETV
vector 448  IntersectionExampleScenario.node[61].veinsmobility  acceleration  ETV
vector 449  IntersectionExampleScenario.node[61].veinsmobility  co2emission  ETV
vector 452  IntersectionExampleScenario.node[62].veinsmobility  posx  ETV
vector 453  IntersectionExampleScenario.node[62].veinsmobility  posy  ETV
vector 454  IntersectionExampleScenario.node[62].veinsmobility  speed  ETV
vector 455  IntersectionExampleScenario.node[62].veinsmobility  acceleration  ETV
vector 456  IntersectionExampleScenario.node[62].veinsmobility  co2emission  ETV
vector 459  IntersectionExampleScenario.node[63].veinsmobility  posx  ETV
vector 460  IntersectionExampleScenario.node[63].veinsmobility  posy  ETV
vector 461  IntersectionExampleScenario.node[63].veinsmobility  speed  ETV
vector 462  IntersectionExampleScenario.node[63].veinsmobility  acceleration  ETV
vector 463  IntersectionExampleScenario.node[63].veinsmobility  co2emission  ETV
358	1211823 5346 11227 15096 130.75 172.5 168 0.973 10.916047529558 483.88414960107 2351.4292781728
357	1217169 4817 11227 15096 130.75 172.5 168 -3.2858943939209 2.5 34.437047958374 246.25478756975
356	1221986 5270 11206 15096 130.5 172.5 169 5.6500000953674 14.625 2192.2882561684 29479.875295654
355	1227256 5601 11185 15096 130.25 172.5 170 486.85000610352 735.58743286133 91651.304351807 50418382.497232
354	1232857 5600 11185 15096 130.25 172.5 170 486.85000610352 785.82187652588 97195.984893799 57380188.304591
vector 466  IntersectionExampleScenario.node[64].veinsmobility  posx  ETV
vector 467  IntersectionExampleScenario.node[64].veinsmobility  posy  ETV
vector 468  IntersectionExampleScenario.node[64].veinsmobility  speed  ETV
vector 469  IntersectionExampleScenario.node[64].veinsmobility  acceleration  ETV
vector 470  IntersectionExampleScenario.node[64].veinsmobility  co2emission  ETV
vector 473  IntersectionExampleScenario.node[65].veinsmobility  posx  ETV
vector 474  IntersectionExampleScenario.node[65].veinsmobility  posy  ETV
vector 475  IntersectionExampleScenario.node[65].veinsmobility  speed  ETV
330	1239074 6789 10118 15436 117.75 175.5 232 0.973 11.90022389248 629.42332886926 3199.25870119
329	1245863 5923 10118 15436 117.75 175.5 232 -42.544605255127 4 41.057416915894 2160.8224584516
328	1251786 6356 10097 15436 117.5 175.5 233 0 16 2223.7342739105 33333.885029033
327	1258142 7711 10076 15436 117.25 175.5 234 239.11395263672 792.02188110352 120907.40940857 66617949.602754
326	1265853 7723 10076 15436 117.25 175.5 234 483.14999389648 483.14999389648 113057.09857178 54623536.484908
vector 480  IntersectionExampleScenario.node[66].veinsmobility  posx  ETV
vector 481  IntersectionExampleScenario.node[66].veinsmobility  posy  ETV
vector 476  IntersectionExampleScenario.node[65].veinsmobility  acceleration  ETV
vector 477  IntersectionExampleScenario.node[65].veinsmobility  co2emission  ETV
vector 482  IntersectionExampleScenario.node[66].veinsmobility  speed  ETV
vector 487  IntersectionExampleScenario.node[67].veinsmobility  posx  ETV
vector 488  IntersectionExampleScenario.node[67].veinsmobility  posy  ETV
vector 483  IntersectionExampleScenario.node[66].veinsmobility  acceleration  ETV
vector 484  IntersectionExampleScenario.node[66].veinsmobility  co2emission  ETV
vector 489  IntersectionExampleScenario.node[67].veinsmobility  speed  ETV
323	1274358 6978 10097 15568 117.5 176.5 237 0.973 11.36141391502 599.0139257625 2823.3062201538
322	1281336 6268 10097 15568 117.5 176.5 237 -8.6760787963867 4 36.98334312439 477.51993322977
321	1287604 6653 10076 15568 117.25 176.5 238 0 15.25 2246.8677976131 31070.164495947
320	1294257 7849 10057 15568 117 176.5 239 166.078125 483.36395263672 98976.343597412 43358487.272413
319	1302106 7819 10057 15568 117 176.5 239 486.85000610352 732.63011169434 124680.99981689 66114160.441457
vector 490  IntersectionExampleScenario.node[67].veinsmobility  acceleration  ETV
vector 491  IntersectionExampleScenario.node[67].veinsmobility  co2emission  ETV
337	1310090 7432 10206 15743 118.75 177.75 237 0.973 11.093806525473 600.31406149512 2666.4810974024
336	1317522 7284 10206 15743 118.75 177.75 237 -4.5 2.5 36.134572982788 427.09621661922
335	1324806 7481 10183 15743 118.5 177.75 238 0 14.914089202881 2331.5165422391 31736.783132828
334	1332287 7854 10160 15743 118.25 177.75 239 153.85467529297 732.02679443359 105791.00506592 51821845.001862
333	1340141 7889 10160 15743 118.25 177.75 239 486.85000610352 486.85000610352 116357.15145874 56648479.897875
344	1348030 7240 10302 15813 119.75 178.25 235 0.973 11.36141391502 591.64476214691 2792.3585269619
343	1355270 7278 10302 15813 119.75 178.25 235 -3.8560471534729 2.500000089407 35.964826583862 370.61856663331
342	1362548 7491 10277 15813 119.5 178.25 236 0 15.25 2268.4905216228 29958.70281427
341	1370039 7802 10252 15813 119.25 178.25 237 486.85000610352 807.02188873291 132952.14731598 76943224.352106
340	1377841 7818 10252 15813 119.25 178.25 237 236.94775390625 483.14999389648 106025.04702759 48518668.496115
351	1385659 6112 11087 16080 129 180.25 206 0.973 11.648172402475 576.70463716772 2990.0074361329
350	1391771 6290 11087 16080 129 180.25 206 -3.6200084686279 2.5 39.699392318726 359.37343844745
349	1398061 6484 11066 16080 128.75 180.25 207 0 15.64999961853 2191.0334007442 29064.872693171
348	1404545 6829 11045 16080 128.5 180.25 208 184.17810058594 483.14999389648 84972.527374268 36541240.692454
347	1411374 6862 11045 16080 128.5 180.25 208 486.85000610352 734.46405029297 109378.91912842 58534465.515439
365	1418236 5181 11909 16080 139.25 180.25 165 0.973 11.200708441096 513.9428531651 2876.7555332979
364	1423417 4930 11909 16080 139.25 180.25 165 -2.9430503845215 2.5 35.964826583862 260.5423222117
363	1428347 5257 11888 16080 139 180.25 166 5.6500000953674 15.02499961853 2222.4870939255 30452.657003168
362	1433604 5494 11867 16080 138.75 180.25 167 235.05456542969 785.82187652588 87021.563560486 49652769.756163
361	1439098 5511 11867 16080 138.75 180.25 167 483.14999389648 483.14999389648 80686.048980713 38983464.072563
vector 494  IntersectionExampleScenario.node[68].veinsmobility  posx  ETV
vector 495  IntersectionExampleScenario.node[68].veinsmobility  posy  ETV
vector 496  IntersectionExampleScenario.node[68].veinsmobility  speed  ETV
vector 497  IntersectionExampleScenario.node[68].veinsmobility  acceleration  ETV
vector 498  IntersectionExampleScenario.node[68].veinsmobility  co2emission  ETV
vector 501  IntersectionExampleScenario.node[69].veinsmobility  posx  ETV
vector 502  IntersectionExampleScenario.node[69].veinsmobility  posy  ETV
vector 508  IntersectionExampleScenario.node[70].veinsmobility  posx  ETV
vector 509  IntersectionExampleScenario.node[70].veinsmobility  posy  ETV
vector 515  IntersectionExampleScenario.node[71].veinsmobility  posx  ETV
vector 516  IntersectionExampleScenario.node[71].veinsmobility  posy  ETV
vector 503  IntersectionExampleScenario.node[69].veinsmobility  speed  ETV
vector 510  IntersectionExampleScenario.node[70].veinsmobility  speed  ETV
vector 517  IntersectionExampleScenario.node[71].veinsmobility  speed  ETV
vector 504  IntersectionExampleScenario.node[69].veinsmobility  acceleration  ETV
vector 505  IntersectionExampleScenario.node[69].veinsmobility  co2emission  ETV
vector 511  IntersectionExampleScenario.node[70].veinsmobility  acceleration  ETV
vector 512  IntersectionExampleScenario.node[70].veinsmobility  co2emission  ETV
vector 518  IntersectionExampleScenario.node[71].veinsmobility  acceleration  ETV
vector 519  IntersectionExampleScenario.node[71].veinsmobility  co2emission  ETV
379	1446173 5332 12091 16445 141.75 183.25 167 0.973 10.756497587458 462.84841574071 2194.016893709
378	1451505 5174 12091 16445 141.75 183.25 167 -3.1797561645508 2.5 34.606801986694 169.95817153011
377	1456679 5327 12072 16445 141.5 183.25 168 5.6500000953674 14.833078384399 2280.647652626 31405.177953302
376	1462006 5559 12053 16445 141.25 183.25 169 236.20837402344 801.41563415527 89204.639457703 51805065.19704
375	1467565 5578 12053 16445 141.25 183.25 169 483.14999389648 483.14999389648 81652.348968506 39450331.905767
vector 522  IntersectionExampleScenario.node[72].veinsmobility  posx  ETV
vector 523  IntersectionExampleScenario.node[72].veinsmobility  posy  ETV
vector 524  IntersectionExampleScenario.node[72].veinsmobility  speed  ETV
vector 525  IntersectionExampleScenario.node[72].veinsmobility  acceleration  ETV
vector 526  IntersectionExampleScenario.node[72].veinsmobility  co2emission  ETV
vector 529  IntersectionExampleScenario.node[73].veinsmobility  posx  ETV
vector 530  IntersectionExampleScenario.node[73].veinsmobility  posy  ETV
vector 531  IntersectionExampleScenario.node[73].veinsmobility  speed  ETV
vector 532  IntersectionExampleScenario.node[73].veinsmobility  acceleration  ETV
vector 533  IntersectionExampleScenario.node[73].veinsmobility  co2emission  ETV
vector 536  IntersectionExampleScenario.node[74].veinsmobility  posx  ETV
vector 537  IntersectionExampleScenario.node[74].veinsmobility  posy  ETV
vector 538  IntersectionExampleScenario.node[74].veinsmobility  speed  ETV
vector 539  IntersectionExampleScenario.node[74].veinsmobility  acceleration  ETV
vector 540  IntersectionExampleScenario.node[74].veinsmobility  co2emission  ETV
vector 543  IntersectionExampleScenario.node[75].veinsmobility  posx  ETV
vector 544  IntersectionExampleScenario.node[75].veinsmobility  posy  ETV
vector 545  IntersectionExampleScenario.node[75].veinsmobility  speed  ETV
vector 546  IntersectionExampleScenario.node[75].veinsmobility  acceleration  ETV
vector 547  IntersectionExampleScenario.node[75].veinsmobility  co2emission  ETV
vector 550  IntersectionExampleScenario.node[76].veinsmobility  posx  ETV
vector 551  IntersectionExampleScenario.node[76].veinsmobility  posy  ETV
vector 552  IntersectionExampleScenario.node[76].veinsmobility  speed  ETV
vector 553  IntersectionExampleScenario.node[76].veinsmobility  acceleration  ETV
vector 554  IntersectionExampleScenario.node[76].veinsmobility  co2emission  ETV
vector 557  IntersectionExampleScenario.node[77].veinsmobility  posx  ETV
vector 558  IntersectionExampleScenario.node[77].veinsmobility  posy  ETV
vector 559  IntersectionExampleScenario.node[77].veinsmobility  speed  ETV
vector 560  IntersectionExampleScenario.node[77].veinsmobility  acceleration  ETV
vector 561  IntersectionExampleScenario.node[77].veinsmobility  co2emission  ETV
vector 564  IntersectionExampleScenario.node[78].veinsmobility  posx  ETV
vector 565  IntersectionExampleScenario.node[78].veinsmobility  posy  ETV
vector 566  IntersectionExampleScenario.node[78].veinsmobility  speed  ETV
vector 567  IntersectionExampleScenario.node[78].veinsmobility  acceleration  ETV
vector 568  IntersectionExampleScenario.node[78].veinsmobility  co2emission  ETV
372	1475880 6680 11909 18286 139.25 195.5 226 0.973 11.450879080643 585.70773413523 2839.0405748682
371	1482560 6085 11909 18286 139.25 195.5 226 -8.2128305435181 4 36.813589096069 486.59835472119
370	1488645 6426 11888 18286 139 195.5 227 0 15.375 2205.7468717098 30668.92490501
369	1495071 7524 11867 18286 138.75 195.5 228 483.14999389648 483.14999389648 110158.1986084 53222932.985295
368	1502595 7479 11867 18286 138.75 195.5 228 184.17810058594 732.10963439941 103833.15234375 51504325.006926
386	1510074 5755 12665 18286 149.25 195.5 186 0.973 11.450879080643 548.58064826173 2808.6531816787
385	1515829 5279 12665 18286 149.25 195.5 186 -8.4870567321777 4 37.15309715271 481.82449572734
384	1521108 5671 12644 18286 149 195.5 187 0 15.375 2210.4979660511 30840.215052249
383	1526779 6204 12623 18286 148.75 195.5 188 486.85000610352 486.85000610352 91527.801147461 44560310.547283
382	1532983 6188 12623 18286 148.75 195.5 188 236.75714111328 785.82187652588 97325.316520691 54597381.256897
393	1539171 5893 12711 18372 149.75 196 186 0.973 11.90022389248 591.49084139918 3096.8394147833
392	1545064 5255 12711 18372 149.75 196 186 -4.5 2.5000019073486 41.396924972534 496.70276194231
391	1550319 5921 12688 18372 149.5 196 187 0 16.045579910278 2304.4392617783 33460.309210607
390	1556240 6180 12665 18372 149.25 196 188 236.48651123047 486.85000610352 83474.128967285 38059782.923988
389	1562420 6190 12665 18372 149.25 196 188 483.13348388672 809.56562805176 107459.59712982 63681341.485169
vector 571  IntersectionExampleScenario.node[79].veinsmobility  posx  ETV
vector 572  IntersectionExampleScenario.node[79].veinsmobility  posy  ETV
vector 573  IntersectionExampleScenario.node[79].veinsmobility  speed  ETV
400	1568836 5493 12876 18503 151.5 196.75 182 0.973 12.099024792222 572.72383398628 3280.723745918
399	1574329 5857 12876 18503 151.5 196.75 182 -2.1812019348145 2.5000038146973 42.114576339722 313.2961987916
398	1580186 5888 12851 18503 151.25 196.75 183 2.6378116607666 16.27499961853 2219.3373873234 30646.580488214
397	1586074 6072 12826 18503 151 196.75 184 483.14999389648 483.14999389648 88899.598876953 42951840.6548
396	1592146 6022 12826 18503 151 196.75 184 184.17810058594 733.93225097656 82491.013961792 41059341.594735
vector 574  IntersectionExampleScenario.node[79].veinsmobility  acceleration  ETV
vector 575  IntersectionExampleScenario.node[79].veinsmobility  co2emission  ETV
407	1598333 5401 13157 18638 154.25 197.5 174 0.973 11.648172402475 539.38200314833 2902.3896049889
406	1603734 5328 13157 18638 154.25 197.5 174 -3.4235343933105 2.5 39.020376205444 308.92699242098
405	1609062 5576 13128 18638 154 197.5 175 4.147358417511 15.64999961853 2270.4719543457 31667.520970368
404	1614638 5808 13101 18638 153.75 197.5 176 486.85000610352 486.85000610352 85685.601074219 41716035.405967
403	1620446 5796 13101 18638 153.75 197.5 176 238.43218994141 800.94795227051 93169.714851379 53734006.773801
vector 578  IntersectionExampleScenario.node[80].veinsmobility  posx  ETV
vector 579  IntersectionExampleScenario.node[80].veinsmobility  posy  ETV
vector 580  IntersectionExampleScenario.node[80].veinsmobility  speed  ETV
vector 581  IntersectionExampleScenario.node[80].veinsmobility  acceleration  ETV
vector 582  IntersectionExampleScenario.node[80].veinsmobility  co2emission  ETV
414	1626633 5789 13186 19041 154.5 199.75 182 0.973 11.54047740176 571.0223512493 2932.7197584043
413	1632422 5547 13186 19041 154.5 199.75 182 -4.5 2.5 39.869146347046 370.88949600865
412	1637969 5820 13157 19041 154.25 199.75 183 4.1482524871826 15.876117706299 2347.767270565 32559.20614128
411	1643789 6072 13128 19041 154 199.75 184 486.85000610352 486.85000610352 89580.401123047 43612218.833511
410	1649861 6006 13128 19041 154 199.75 184 236.22900390625 817.79585266113 99591.133712769 58862064.371816
vector 585  IntersectionExampleScenario.node[81].veinsmobility  posx  ETV
vector 586  IntersectionExampleScenario.node[81].veinsmobility  posy  ETV
vector 587  IntersectionExampleScenario.node[81].veinsmobility  speed  ETV
vector 588  IntersectionExampleScenario.node[81].veinsmobility  acceleration  ETV
vector 589  IntersectionExampleScenario.node[81].veinsmobility  co2emission  ETV
vector 592  IntersectionExampleScenario.node[82].veinsmobility  posx  ETV
vector 593  IntersectionExampleScenario.node[82].veinsmobility  posy  ETV
vector 594  IntersectionExampleScenario.node[82].veinsmobility  speed  ETV
vector 595  IntersectionExampleScenario.node[82].veinsmobility  acceleration  ETV
vector 596  IntersectionExampleScenario.node[82].veinsmobility  co2emission  ETV
vector 599  IntersectionExampleScenario.node[83].veinsmobility  posx  ETV
vector 600  IntersectionExampleScenario.node[83].veinsmobility  posy  ETV
vector 601  IntersectionExampleScenario.node[83].veinsmobility  speed  ETV
456	1656875 4777 14535 19716 167.25 204 148 0.973 12.099024792222 492.73805845507 2778.1720897358
455	1661652 4170 14535 19716 167.25 204 148 -3.3588981628418 2.5 41.736440658569 215.4839310303
454	1665822 4634 14510 19716 167 204 149 5.6500000953674 16.27499961853 2216.4742288589 33802.227594277
453	1670456 4949 14485 19716 166.75 204 150 483.14999389648 483.14999389648 72472.499084473 35015087.490326
452	1675405 4915 14485 19716 166.75 204 150 184.17810058594 732.89845275879 67078.638061523 33976410.824895
vector 602  IntersectionExampleScenario.node[83].veinsmobility  acceleration  ETV
vector 603  IntersectionExampleScenario.node[83].veinsmobility  co2emission  ETV
vector 606  IntersectionExampleScenario.node[84].veinsmobility  posx  ETV
vector 607  IntersectionExampleScenario.node[84].veinsmobility  posy  ETV
vector 608  IntersectionExampleScenario.node[84].veinsmobility  speed  ETV
vector 609  IntersectionExampleScenario.node[84].veinsmobility  acceleration  ETV
vector 610  IntersectionExampleScenario.node[84].veinsmobility  co2emission  ETV
vector 613  IntersectionExampleScenario.node[85].veinsmobility  posx  ETV
vector 614  IntersectionExampleScenario.node[85].veinsmobility  posy  ETV
vector 615  IntersectionExampleScenario.node[85].veinsmobility  speed  ETV
vector 616  IntersectionExampleScenario.node[85].veinsmobility  acceleration  ETV
vector 617  IntersectionExampleScenario.node[85].veinsmobility  co2emission  ETV
vector 620  IntersectionExampleScenario.node[86].veinsmobility  posx  ETV
vector 621  IntersectionExampleScenario.node[86].veinsmobility  posy  ETV
vector 622  IntersectionExampleScenario.node[86].veinsmobility  speed  ETV
vector 623  IntersectionExampleScenario.node[86].veinsmobility  acceleration  ETV
vector 624  IntersectionExampleScenario.node[86].veinsmobility  co2emission  ETV
vector 627  IntersectionExampleScenario.node[87].veinsmobility  posx  ETV
vector 628  IntersectionExampleScenario.node[87].veinsmobility  posy  ETV
vector 629  IntersectionExampleScenario.node[87].veinsmobility  speed  ETV
vector 630  IntersectionExampleScenario.node[87].veinsmobility  acceleration  ETV
vector 631  IntersectionExampleScenario.node[87].veinsmobility  co2emission  ETV
vector 634  IntersectionExampleScenario.node[88].veinsmobility  posx  ETV
vector 635  IntersectionExampleScenario.node[88].veinsmobility  posy  ETV
vector 636  IntersectionExampleScenario.node[88].veinsmobility  speed  ETV
vector 637  IntersectionExampleScenario.node[88].veinsmobility  acceleration  ETV
vector 638  IntersectionExampleScenario.node[88].veinsmobility  co2emission  ETV
435	1682440 6351 13953 21481 161.25 215 216 0.973 12.099024792222 602.66992154727 3221.543808716
434	1688791 5949 13953 21481 161.25 215 216 -7.8777389526367 4 40.038900375366 509.53969327146
433	1694740 6129 13925 21481 161 215 217 0 16.27499961853 2208.0519812107 31990.487532793
432	1700869 7170 13896 21481 160.75 215 218 184.17810058594 486.85000610352 91285.055603027 40211087.873314
431	1708039 7185 13896 21481 160.75 215 218 235.31896972656 486.85000610352 97848.278503418 44991796.851629
421	1715224 6944 13463 21604 157 215.75 236 0.973 11.200708441096 589.54933108214 2731.3165802044
420	1722168 6275 13463 21604 157 215.75 236 -7.0848484039307 4 36.134572982788 465.31806928492
419	1728443 6661 13434 21604 156.75 215.75 237 0 15.02499961853 2209.3454694748 30406.668221223
418	1735104 7835 13405 21604 156.5 215.75 238 237.11944580078 785.82187652588 122228.96271515 67042298.896558
417	1742939 7855 13405 21604 156.5 215.75 238 483.14999389648 483.14999389648 114989.69854736 55557272.151317
428	1750794 7149 13812 21768 160 216.75 228 0.973 11.200708441096 619.76409367063 2990.9116955826
427	1757943 7052 13812 21768 160 216.75 228 -4.5 2.5000000558794 39.869146347046 471.48105539966
426	1764995 7295 13783 21768 159.75 216.75 229 0 15.695044517517 2236.1692799572 31532.627435594
425	1772290 7574 13753 21768 159.5 216.75 230 486.70907592773 798.59687805176 128053.00556946 73461160.501755
424	1779864 7588 13753 21768 159.5 216.75 230 236.78533935547 483.14999389648 103125.19842529 47269217.663538
449	1787452 6263 14388 21850 165.75 217.25 207 0.973 11.36141391502 548.08940905051 2721.5201430393
448	1793715 6555 14388 21850 165.75 217.25 207 -3.784521818161 2.5 36.134572982788 340.46143988698
447	1800270 6574 14363 21850 165.5 217.25 208 0 15.25 2185.931690637 28668.02209736
446	1806844 6867 14338 21850 165.25 217.25 209 184.17810058594 483.14999389648 85713.473968506 37054335.094465
445	1813711 6893 14338 21850 165.25 217.25 209 486.85000610352 733.6164855957 110249.30166626 59208093.746828
vector 641  IntersectionExampleScenario.node[89].veinsmobility  posx  ETV
vector 642  IntersectionExampleScenario.node[89].veinsmobility  posy  ETV
vector 648  IntersectionExampleScenario.node[90].veinsmobility  posx  ETV
vector 649  IntersectionExampleScenario.node[90].veinsmobility  posy  ETV
vector 643  IntersectionExampleScenario.node[89].veinsmobility  speed  ETV
463	1820980 6101 14664 21972 168.5 218 199 0.973 11.200708441096 591.7782333842 2946.5832587319
462	1827081 6352 14664 21972 168.5 218 199 -4.5 2.5000009536743 41.566686630249 355.69305734652
461	1833433 6524 14637 21972 168.25 218 200 2.1877090930939 16.103055953979 2269.6515061855 30742.854586096
460	1839957 6591 14610 21972 168 218 201 169.95465087891 486.90002441406 80609.830291748 34370411.471839
459	1846548 6625 14610 21972 168 218 201 235.68011474609 486.85000610352 89762.661804199 41111271.403975
vector 644  IntersectionExampleScenario.node[89].veinsmobility  acceleration  ETV
vector 645  IntersectionExampleScenario.node[89].veinsmobility  co2emission  ETV
vector 650  IntersectionExampleScenario.node[90].veinsmobility  speed  ETV
vector 655  IntersectionExampleScenario.node[91].veinsmobility  posx  ETV
vector 656  IntersectionExampleScenario.node[91].veinsmobility  posy  ETV
vector 651  IntersectionExampleScenario.node[90].veinsmobility  acceleration  ETV
vector 652  IntersectionExampleScenario.node[90].veinsmobility  co2emission  ETV
442	1853729 6444 14292 22058 164.75 218.5 216 0.973 11.853133128425 609.23413580719 3162.0289639745
441	1860173 7060 14292 22058 164.75 218.5 216 -3.9060428142548 2.5 40.948766708374 364.32408905698
440	1867233 7006 14269 22058 164.5 218.5 217 0 15.934722900391 2236.2955970056 30096.766192789
439	1874239 7179 14246 22058 164.25 218.5 218 483.04000854492 792.7961807251 122084.29238892 70365351.499935
438	1881418 7186 14246 22058 164.25 218.5 218 483.14999389648 734.05197143555 113745.42445374 60438813.986677
vector 657  IntersectionExampleScenario.node[91].veinsmobility  speed  ETV
vector 658  IntersectionExampleScenario.node[91].veinsmobility  acceleration  ETV
vector 659  IntersectionExampleScenario.node[91].veinsmobility  co2emission  ETV
vector 662  IntersectionExampleScenario.node[92].veinsmobility  posx  ETV
vector 663  IntersectionExampleScenario.node[92].veinsmobility  posy  ETV
470	1888995 5640 15289 22411 174.25 220.5 186 0.96333723109819 12.099024792222 546.0100590607 3063.5137396642
469	1894635 5737 15289 22411 174.25 220.5 186 -3.6294136047363 2.5 40.208654403687 303.15328716677
468	1900372 5864 15260 22411 174 220.5 187 3.3858137130737 16.27499961853 2212.9224805832 29632.797160441
467	1906236 6180 15231 22411 173.75 220.5 188 184.17810058594 486.85000610352 75542.248504639 32131787.345397
466	1912416 6194 15231 22411 173.75 220.5 188 235.32012939453 486.85000610352 83258.573974609 37893221.69686
vector 664  IntersectionExampleScenario.node[92].veinsmobility  speed  ETV
vector 669  IntersectionExampleScenario.node[93].veinsmobility  posx  ETV
vector 670  IntersectionExampleScenario.node[93].veinsmobility  posy  ETV
vector 665  IntersectionExampleScenario.node[92].veinsmobility  acceleration  ETV
vector 666  IntersectionExampleScenario.node[92].veinsmobility  co2emission  ETV
vector 671  IntersectionExampleScenario.node[93].veinsmobility  speed  ETV
vector 672  IntersectionExampleScenario.node[93].veinsmobility  acceleration  ETV
vector 673  IntersectionExampleScenario.node[93].veinsmobility  co2emission  ETV
477	1919242 5761 15467 22735 175.75 222.25 187 0.973 12.099024792222 592.51930504329 3312.9196076236
476	1925003 5699 15467 22735 175.75 222.25 187 -4.5 2.5 41.227170944214 383.59775853364
475	1930702 5875 15436 22735 175.5 222.25 188 3.8792624473572 16.27499961853 2260.6247594357 30324.501280627
474	1936577 6207 15405 22735 175.25 222.25 189 163.88433837891 483.30639648438 74229.9793396 31200677.965068
473	1942784 6235 15405 22735 175.25 222.25 189 486.85000610352 731.76875305176 99779.313858032 53618164.897392
512	1949019 5043 16379 23088 182.75 224.25 167 0.973 11.90022389248 522.62839095938 3137.5828650561
511	1954062 5148 16379 23088 182.75 224.25 167 -3.0043258666992 2.5 39.699392318726 261.27740762555
510	1959210 5245 16346 23088 182.5 224.25 168 5.6500000953674 16 2208.1650466919 30144.779820006
509	1964455 5548 16313 23088 182.25 224.25 169 184.17810058594 486.85000610352 67168.801086426 28472963.690863
508	1970003 5574 16313 23088 182.25 224.25 169 236.79241943359 486.85000610352 74042.390777588 33409546.598394
vector 676  IntersectionExampleScenario.node[94].veinsmobility  posx  ETV
vector 677  IntersectionExampleScenario.node[94].veinsmobility  posy  ETV
vector 678  IntersectionExampleScenario.node[94].veinsmobility  speed  ETV
vector 679  IntersectionExampleScenario.node[94].veinsmobility  acceleration  ETV
vector 680  IntersectionExampleScenario.node[94].veinsmobility  co2emission  ETV
533	1975968 5263 16716 23526 185.25 227 168 0.973 11.443333661316 501.1449376541 2637.5416453564
532	1981231 5011 16716 23526 185.25 227 168 -4.5 2.5 38.341367721558 253.15923986378
531	1986242 5257 16681 23526 185 227 169 5.6500000953674 15.364464759827 2252.1969609261 31342.690451762
530	1991499 5586 16646 23526 184.75 227 170 168.58435058594 483.29684448242 66655.375030518 28137244.891784
529	1997085 5598 16646 23526 184.75 227 170 486.85000610352 734.30641174316 91036.67350769 49707610.611371
540	2002683 5375 17070 23879 187.75 229.5 168 0.973 11.200708441096 499.84250010186 2597.824285106
539	2008058 4950 17070 23879 187.75 229.5 168 -4.5 2.5 35.455564498901 231.50018015362
538	2013008 5361 17033 23879 187.5 229.5 169 5.6500000953674 15.02499961853 2319.1965007782 32335.785800726
537	2018369 5585 16996 23879 187.25 229.5 170 160.78747558594 735.39657592773 74673.20375061 37691801.744994
536	2023954 5611 16996 23879 187.25 229.5 170 486.85000610352 486.85000610352 82764.501037598 40293897.835309
vector 683  IntersectionExampleScenario.node[95].veinsmobility  posx  ETV
vector 684  IntersectionExampleScenario.node[95].veinsmobility  posy  ETV
vector 690  IntersectionExampleScenario.node[96].veinsmobility  posx  ETV
vector 691  IntersectionExampleScenario.node[96].veinsmobility  posy  ETV
vector 685  IntersectionExampleScenario.node[95].veinsmobility  speed  ETV
vector 686  IntersectionExampleScenario.node[95].veinsmobility  acceleration  ETV
vector 687  IntersectionExampleScenario.node[95].veinsmobility  co2emission  ETV
vector 692  IntersectionExampleScenario.node[96].veinsmobility  speed  ETV
vector 697  IntersectionExampleScenario.node[97].veinsmobility  posx  ETV
vector 698  IntersectionExampleScenario.node[97].veinsmobility  posy  ETV
vector 693  IntersectionExampleScenario.node[96].veinsmobility  acceleration  ETV
vector 694  IntersectionExampleScenario.node[96].veinsmobility  co2emission  ETV
vector 699  IntersectionExampleScenario.node[97].veinsmobility  speed  ETV
vector 700  IntersectionExampleScenario.node[97].veinsmobility  acceleration  ETV
vector 701  IntersectionExampleScenario.node[97].veinsmobility  co2emission  ETV
vector 704  IntersectionExampleScenario.node[98].veinsmobility  posx  ETV
vector 705  IntersectionExampleScenario.node[98].veinsmobility  posy  ETV
484	2030888 6743 15533 24437 176.25 233.75 231 0.973 12.099024792222 626.8467916642 3104.4683584549
483	2037631 6160 15533 24437 176.25 233.75 231 -22.960819244385 4 41.566701889038 931.87829277682
482	2043791 6307 15500 24437 176 233.75 232 0 16.27499961853 2177.2486753464 32023.94130274
481	2050098 7626 15467 24437 175.75 233.75 233 486.85000610352 732.30479431152 121242.73866272 64093615.669996
480	2057724 7686 15467 24437 175.75 233.75 233 486.63604736328 785.82187652588 127723.42739105 72002054.831326
vector 706  IntersectionExampleScenario.node[98].veinsmobility  speed  ETV
vector 707  IntersectionExampleScenario.node[98].veinsmobility  acceleration  ETV
vector 708  IntersectionExampleScenario.node[98].veinsmobility  co2emission  ETV
491	2065651 6933 15603 24682 176.75 235.5 236 0.973 12.099024792222 633.76954159936 3071.6297773119
490	2072584 6433 15603 24682 176.75 235.5 236 -29.48059463501 4 41.227170944214 1265.8122701784
489	2079017 6759 15568 24682 176.5 235.5 237 0 16.27499961853 2201.3322145939 32509.92063982
488	2085776 7844 15533 24682 176.25 235.5 238 483.14999389648 734.86167907715 123195.47868347 64854997.264167
487	2093620 7827 15533 24682 176.25 235.5 238 184.17810058594 486.96258544922 100885.20205688 44798903.220984
vector 711  IntersectionExampleScenario.node[99].veinsmobility  posx  ETV
vector 712  IntersectionExampleScenario.node[99].veinsmobility  posy  ETV
505	2101597 6651 16379 25052 182.75 238.25 223 0.973 11.810082123732 606.74575579267 3117.0156254146
504	2108248 6971 16379 25052 182.75 238.25 223 -22.419998168945 4 39.529638290405 933.43178590755
503	2115219 6980 16346 25052 182.5 238.25 224 0 15.875 2177.8421350941 29178.280820828
502	2122199 7408 16313 25052 182.25 238.25 225 486.85000610352 732.11315917969 117508.25105286 62385947.736864
501	2129607 7404 16313 25052 182.25 238.25 225 486.74252319336 785.82187652588 124995.18967438 71342986.897444
vector 713  IntersectionExampleScenario.node[99].veinsmobility  speed  ETV
vector 714  IntersectionExampleScenario.node[99].veinsmobility  acceleration  ETV
vector 715  IntersectionExampleScenario.node[99].veinsmobility  co2emission  ETV
526	2137252 6594 16580 25119 184.25 238.75 219 0.94600815583079 12.353032912318 623.8132985746 3309.925616526
525	2143846 6784 16580 25119 184.25 238.75 219 -4.5 2.5000019073486 41.566686630249 468.42831701618
524	2150630 6982 16546 25119 184 238.75 220 1.2341619729996 16.625 2291.6073778868 31092.468141858
523	2157612 7280 16511 25119 183.75 238.75 221 236.22357177734 486.85000610352 99556.910003662 45897735.882001
522	2164892 7280 16511 25119 183.75 238.75 221 483.05227661133 806.11563110352 125113.69549561 73014474.996883
vector 718  IntersectionExampleScenario.node[100].veinsmobility  posx  ETV
vector 719  IntersectionExampleScenario.node[100].veinsmobility  posy  ETV
vector 720  IntersectionExampleScenario.node[100].veinsmobility  speed  ETV
vector 721  IntersectionExampleScenario.node[100].veinsmobility  acceleration  ETV
vector 722  IntersectionExampleScenario.node[100].veinsmobility  co2emission  ETV
vector 725  IntersectionExampleScenario.node[101].veinsmobility  posx  ETV
vector 726  IntersectionExampleScenario.node[101].veinsmobility  posy  ETV
vector 727  IntersectionExampleScenario.node[101].veinsmobility  speed  ETV
vector 728  IntersectionExampleScenario.node[101].veinsmobility  acceleration  ETV
vector 729  IntersectionExampleScenario.node[101].veinsmobility  co2emission  ETV
498	2172964 7280 16229 25465 181.5 241.25 240 0.973 11.200708441096 593.65966575867 2710.601000009
497	2180244 7500 16229 25465 181.5 241.25 240 -4.4183292388916 2.5 36.643835067749 363.52896831502
496	2187744 7886 16199 25465 181.25 241.25 241 0 15.02499961853 2203.5328883305 28541.805164721
495	2195630 7971 16168 25465 181 241.25 242 483.14999389648 733.01480102539 125589.25630188 66303535.380554
494	2203601 7958 16168 25465 181 241.25 242 184.17810058594 486.8684387207 101303.59173584 44425397.642521
519	2211559 7069 16379 25465 182.75 241.25 235 0.973 11.54047740176 601.25490276789 2873.0101455941
518	2218628 7326 16379 25465 182.75 241.25 235 -4.5 2.5000019073486 37.15309715271 395.22585561416
517	2225954 7604 16346 25465 182.5 241.25 236 0 15.5 2300.0424827635 29749.90095102
516	2233558 7822 16313 25465 182.25 241.25 237 483.14999389648 483.14999389648 114506.54855347 55323838.234715
515	2241380 7793 16313 25465 182.25 241.25 237 162.90466308594 733.1174621582 104239.35925293 50563031.793681
547	2249173 6379 17398 25605 190 242.25 210 0.973 11.450879080643 555.19980728956 2730.4746185721
546	2255552 6514 17398 25605 190 242.25 210 -4.5 2.5 36.813589096069 392.51202666069
545	2262066 6697 17361 25605 189.75 242.25 211 0 15.375 2211.4203068018 28280.604770892
[...]
vector 4946  IntersectionExampleScenario.node[704].veinsmobility  posx  ETV
vector 4947  IntersectionExampleScenario.node[704].veinsmobility  posy  ETV
vector 4941  IntersectionExampleScenario.node[703].veinsmobility  speed  ETV
vector 4953  IntersectionExampleScenario.node[705].veinsmobility  posx  ETV
vector 4954  IntersectionExampleScenario.node[705].veinsmobility  posy  ETV
vector 4942  IntersectionExampleScenario.node[703].veinsmobility  acceleration  ETV
vector 4943  IntersectionExampleScenario.node[703].veinsmobility  co2emission  ETV
vector 4948  IntersectionExampleScenario.node[704].veinsmobility  speed  ETV
vector 4960  IntersectionExampleScenario.node[706].veinsmobility  posx  ETV
vector 4961  IntersectionExampleScenario.node[706].veinsmobility  posy  ETV
vector 4949  IntersectionExampleScenario.node[704].veinsmobility  acceleration  ETV
vector 4950  IntersectionExampleScenario.node[704].veinsmobility  co2emission  ETV
vector 4955  IntersectionExampleScenario.node[705].veinsmobility  speed  ETV
4817	21691168 5876 177183 180771 1731.5 1773.5 169 0.973 11.36141391502 507.58867775116 2631.4586395039
4816	21697044 5816 177183 180771 1731.5 1773.5 169 -3.2731895446777 2.5 37.32285118103 249.49390053039
4815	21702860 5815 177164 180771 1731.25 1773.5 170 5.6500000953674 15.25 2290.2193202972 32107.985215081
4814	21708675 6147 177145 180771 1731 1773.5 171 486.85000610352 733.34773254395 91576.054412842 50001774.652073
4813	21714822 6142 177145 180771 1731 1773.5 171 486.65963745117 812.05235290527 99625.690719604 60222420.348234
vector 4956  IntersectionExampleScenario.node[705].veinsmobility  acceleration  ETV
vector 4957  IntersectionExampleScenario.node[705].veinsmobility  co2emission  ETV
vector 4962  IntersectionExampleScenario.node[706].veinsmobility  speed  ETV
vector 4963  IntersectionExampleScenario.node[706].veinsmobility  acceleration  ETV
vector 4964  IntersectionExampleScenario.node[706].veinsmobility  co2emission  ETV
vector 4967  IntersectionExampleScenario.node[707].veinsmobility  posx  ETV
vector 4968  IntersectionExampleScenario.node[707].veinsmobility  posy  ETV
vector 4969  IntersectionExampleScenario.node[707].veinsmobility  speed  ETV
vector 4970  IntersectionExampleScenario.node[707].veinsmobility  acceleration  ETV
vector 4971  IntersectionExampleScenario.node[707].veinsmobility  co2emission  ETV
4824	21721781 6033 177183 181006 1731.5 1775.25 176 0.973 11.648172402475 545.91096353784 2892.3995860903
4823	21727814 5542 177183 181006 1731.5 1775.25 176 -7.092942237854 4 38.341367721558 476.74128165784
4822	21733356 5927 177164 181006 1731.25 1775.25 177 0 15.64999961853 2177.7517211437 30631.668078274
4821	21739283 6381 177145 181006 1731 1775.25 178 184.17810058594 483.36395263672 71959.734313965 30912030.948327
4820	21745664 6338 177145 181006 1731 1775.25 178 486.85000610352 733.04777526855 94841.048904419 51495039.767733
4838	21752002 5610 177459 181006 1735 1775.25 162 0.973 11.810082123732 515.28882896765 2883.6065255087
4837	21757612 5333 177459 181006 1735 1775.25 162 -3.0229949951172 2.5 38.511121749878 292.85992719201
4836	21762945 5525 177436 181006 1734.75 1775.25 163 5.6500000953674 15.875 2189.7942457199 30963.18108167
4835	21768470 5891 177413 181006 1734.5 1775.25 164 486.85000610352 785.82187652588 93708.369758606 55295692.517429
4834	21774361 5901 177413 181006 1734.5 1775.25 164 235.23333740234 483.14999389648 70971.763885498 31658936.894324
vector 4974  IntersectionExampleScenario.node[708].veinsmobility  posx  ETV
vector 4975  IntersectionExampleScenario.node[708].veinsmobility  posy  ETV
vector 4976  IntersectionExampleScenario.node[708].veinsmobility  speed  ETV
vector 4981  IntersectionExampleScenario.node[709].veinsmobility  posx  ETV
vector 4982  IntersectionExampleScenario.node[709].veinsmobility  posy  ETV
vector 4977  IntersectionExampleScenario.node[708].veinsmobility  acceleration  ETV
vector 4978  IntersectionExampleScenario.node[708].veinsmobility  co2emission  ETV
vector 4983  IntersectionExampleScenario.node[709].veinsmobility  speed  ETV
vector 4984  IntersectionExampleScenario.node[709].veinsmobility  acceleration  ETV
vector 4985  IntersectionExampleScenario.node[709].veinsmobility  co2emission  ETV
4852	21781064 5527 178130 181838 1742.75 1781.75 157 0.973 11.54047740176 464.515727801 2331.5343583805
4851	21786591 5015 178130 181838 1742.75 1781.75 157 -3.6199722290039 2.5 36.98334312439 185.99759120812
4850	21791606 5437 178109 181838 1742.5 1781.75 158 5.6500000953674 15.5 2220.1634054184 31769.100361968
4849	21797043 5719 178088 181838 1742.25 1781.75 159 235.88525390625 785.82187652588 82773.169471741 47318648.965285
4848	21802762 5726 178088 181838 1742.25 1781.75 159 483.14999389648 483.14999389648 76820.849029541 37115992.739745
vector 4988  IntersectionExampleScenario.node[710].veinsmobility  posx  ETV
vector 4989  IntersectionExampleScenario.node[710].veinsmobility  posy  ETV
vector 4990  IntersectionExampleScenario.node[710].veinsmobility  speed  ETV
vector 4991  IntersectionExampleScenario.node[710].veinsmobility  acceleration  ETV
vector 4992  IntersectionExampleScenario.node[710].veinsmobility  co2emission  ETV
vector 4995  IntersectionExampleScenario.node[711].veinsmobility  posx  ETV
vector 4996  IntersectionExampleScenario.node[711].veinsmobility  posy  ETV
vector 4997  IntersectionExampleScenario.node[711].veinsmobility  speed  ETV
4859	21809121 5440 178406 182182 1746.25 1784.5 154 0.973 11.648172402475 470.76336111104 2462.8829942015
4858	21814561 5014 178406 182182 1746.25 1784.5 154 -3.1964302062988 2.5 38.341367721558 191.50694040174
4857	21819575 5347 178386 182182 1746 1784.5 155 5.6500000953674 15.64999961853 2217.1332235336 32350.133803948
4856	21824922 5585 178365 182182 1745.75 1784.5 156 184.17810058594 733.26556396484 69982.629013062 35533807.531706
4855	21830507 5616 178365 182182 1745.75 1784.5 156 486.85000610352 486.85000610352 75948.600952148 36975576.837107
vector 4998  IntersectionExampleScenario.node[711].veinsmobility  acceleration  ETV
vector 4999  IntersectionExampleScenario.node[711].veinsmobility  co2emission  ETV
4873	21836292 5240 178783 182611 1750.75 1787.75 149 0.973 12.099024792222 485.83566012893 2657.6962410708
4872	21841532 4982 178783 182611 1750.75 1787.75 149 -3.4592323303223 2.5 40.887662887573 208.86649435774
4871	21846514 5167 178762 182611 1750.5 1787.75 150 5.6500000953674 16.27499961853 2208.0948886871 33287.384016175
4870	21851681 5426 178741 182611 1750.25 1787.75 151 239.06304931641 785.82187652588 79019.38596344 45325333.423882
4869	21857107 5438 178741 182611 1750.25 1787.75 151 483.14999389648 483.14999389648 72955.649078369 35248521.406928
vector 5002  IntersectionExampleScenario.node[712].veinsmobility  posx  ETV
vector 5003  IntersectionExampleScenario.node[712].veinsmobility  posy  ETV
vector 5004  IntersectionExampleScenario.node[712].veinsmobility  speed  ETV
vector 5005  IntersectionExampleScenario.node[712].veinsmobility  acceleration  ETV
vector 5006  IntersectionExampleScenario.node[712].veinsmobility  co2emission  ETV
vector 5009  IntersectionExampleScenario.node[713].veinsmobility  posx  ETV
vector 5010  IntersectionExampleScenario.node[713].veinsmobility  posy  ETV
vector 5011  IntersectionExampleScenario.node[713].veinsmobility  speed  ETV
vector 5012  IntersectionExampleScenario.node[713].veinsmobility  acceleration  ETV
vector 5013  IntersectionExampleScenario.node[713].veinsmobility  co2emission  ETV
4831	21863347 7675 177436 183493 1734.75 1794.25 239 0.973 11.810082123732 617.66664870753 3011.1970560982
4830	21871022 7205 177436 183493 1734.75 1794.25 239 -6.872594833374 4 38.511121749878 476.00051184037
4829	21878227 7401 177413 183493 1734.5 1794.25 240 0 15.875 2280.9001648426 32022.717782888
4828	21885628 8604 177392 183493 1734.25 1794.25 241 486.85000610352 734.25172424316 125559.04518127 66487905.393745
4827	21894232 8656 177392 183493 1734.25 1794.25 241 486.63604736328 810.18556213379 134249.13787079 77260883.419466
4866	21902888 6476 178448 183526 1746.75 1794.5 192 0.973 11.36141391502 554.57801285143 2795.7506136322
4865	21909364 5983 178448 183526 1746.75 1794.5 192 -7.0147933959961 4 37.32285118103 468.18901195963
4864	21915347 6306 178427 183526 1746.5 1794.5 193 0 15.25 2179.8467392921 30242.177634699
4863	21921653 6920 178406 183526 1746.25 1794.5 194 236.31317138672 483.14999389648 85380.271362305 38587504.463332
4862	21928573 6956 178406 183526 1746.25 1794.5 194 184.17810058594 483.36395263672 79366.347747803 34366398.343865
4845	21935529 7511 178009 183787 1741.25 1796.5 222 0.973 11.810082123732 594.25220866229 3040.0390896225
4844	21943040 7675 178009 183787 1741.25 1796.5 222 -4.3230895996094 2.5 39.869146347046 391.49390153542
4843	21950715 7712 177988 183787 1741 1796.5 223 0 15.875 2190.8148586284 30562.74851671
4842	21958427 8060 177967 183787 1740.75 1796.5 224 486.85000610352 735.04692077637 117176.47271729 62339944.164062
4841	21966487 8041 177967 183787 1740.75 1796.5 224 486.74505615234 785.82187652588 124052.75811005 70625002.756053
4887	21974528 5727 179124 183787 1754.75 1796.5 168 0.973 11.54047740176 527.92011920847 2945.3487827508
4886	21980255 5502 179124 183787 1754.75 1796.5 168 -4.5 2.5 37.32285118103 298.67989986248
4885	21985757 5847 179101 183787 1754.5 1796.5 169 5.6500000953674 15.5 2216.360710144 30337.536042634
4884	21991604 6121 179078 183787 1754.25 1796.5 170 483.14999389648 483.14999389648 82135.498962402 39683765.822369
4883	21997725 6073 179078 183787 1754.25 1796.5 170 184.17810058594 732.81031799316 76019.233551025 38183781.685787
4894	22003798 5713 179332 184014 1757 1798.5 167 0.973 11.648172402475 547.72230236301 3143.3151852593
4893	22009511 5278 179332 184014 1757 1798.5 167 -3.176399230957 2.5000019073486 38.850629806519 317.23879480637
4892	22014789 5762 179309 184014 1756.75 1798.5 168 5.6500000953674 15.64999961853 2206.3679637909 30354.099315977
4891	22020551 6076 179285 184014 1756.5 1798.5 169 237.10949707031 486.85000610352 73952.550201416 33335512.557246
4890	22026627 6073 179285 184014 1756.5 1798.5 169 482.93475341797 785.82187652588 96440.58127594 56810044.488095
4880	22032700 5804 179015 184162 1753.5 1800 187 0.973 11.648172402475 466.94585047233 2293.5828359021
4879	22038504 4928 179015 184162 1753.5 1800 187 -30.327163696289 4 28.39999961853 1254.5739933702
4878	22043432 5376 178994 184162 1753.25 1800 188 0 15.64999961853 1366.9861345291 18993.253176838
4877	22048808 6792 178972 184162 1753 1800 189 486.63604736328 800.04531860352 107812.35560608 63487442.811727
4876	22055600 6761 178972 184162 1753 1800 189 452.2109375 483.14999389648 91089.870330811 43905536.471252
4901	22062361 4976 179685 184162 1761.25 1800 156 0.973 11.200708441096 443.56320389546 2445.5515411655
4900	22067337 4528 179685 184162 1761.25 1800 156 -8.6544380187988 4 36.248765945435 478.32076195165
4899	22071865 4786 179664 184162 1761 1800 157 0 15.02499961853 1341.830051899 17584.114232712
4898	22076651 5668 179643 184162 1760.75 1800 158 184.17810058594 516.24063110352 61721.295288086 25761798.939957
4897	22082319 5687 179643 184162 1760.75 1800 158 486.85000610352 486.85000610352 76922.300964355 37449622.693993
4908	22088006 4511 180256 184162 1768.25 1800 128 0.97223939240464 11.648172402475 417.27112132647 2350.8729203227
4907	22092517 4215 180256 184162 1768.25 1800 128 -3.5467834472656 2.5 38.680997848511 197.15959754394
4906	22096732 4413 180235 184162 1768 1800 129 5.6500000953674 15.64999961853 1827.3528366089 26513.426391615
4905	22101145 4679 180214 184162 1767.75 1800 130 483.14999389648 483.14999389648 62809.499206543 30346409.158282
4904	22105824 4651 180214 184162 1767.75 1800 130 184.17810058594 635.83666992188 52252.10005188 23384026.174859
4915	22110475 4336 180339 184162 1769.25 1800 124 0.973 11.990504229548 418.68085640649 2475.4690154113
4914	22114811 3971 180339 184162 1769.25 1800 124 -3.0983200073242 2.5 39.700662612915 198.74138780915
4913	22118782 4249 180318 184162 1769 1800 125 5.6500000953674 16.125 1787.6733484268 26243.856252823
4912	22123031 4535 180297 184162 1768.75 1800 126 486.85000610352 486.85000610352 61343.100769043 29864888.983817
4911	22127566 4526 180297 184162 1768.75 1800 126 344.20172119141 785.82187652588 72218.228340149 43609777.801289
4922	22132092 3812 180406 184162 1770 1800 121 0.973 12.099024792222 326.12137624681 1781.485620461
4921	22135904 4060 180406 184162 1770 1800 121 -3.5997314453125 2.5000009536743 8.3999996185303 249.82886603194
4920	22139964 4190 180383 184162 1769.75 1800 122 2.3994834423065 16.27499961853 1236.761039257 15249.315029487
4919	22144154 4396 180360 184162 1769.5 1800 123 184.17810058594 483.14999389648 44718.356903076 17435111.704255
4918	22148550 4427 180360 184162 1769.5 1800 123 486.85000610352 499.06576538086 59937.789581299 29208048.795624
4929	22152977 3742 180550 184162 1771.5 1800 115 0.973 10.740688286043 309.62496035465 1481.1927556744
4928	22156719 3713 180550 184162 1771.5 1800 115 -9.1658821105957 2.5 -22.60000038147 439.3608237871
4927	22160432 3928 180523 184162 1771.25 1800 116 0 15.336217880249 1214.0465936661 15985.568878687
4926	22164360 4210 180498 184162 1771 1800 117 486.85000610352 486.85000610352 56961.450714111 27731682.62783
4925	22168570 4198 180498 184162 1771 1800 117 498.39999389648 802.70781707764 74383.476043701 48619785.159851
4936	22172768 3798 180577 184162 1771.75 1800 114 0.973 9.7614934049951 309.9867220744 1320.8466989232
4935	22176566 3833 180577 184162 1771.75 1800 114 -4.5 2.5 -22.60000038147 338.43745927735
4934	22180399 3973 180550 184162 1771.5 1800 115 0 15.725109100342 1252.7170768976 16523.794369681
4933	22184372 4176 180523 184162 1771.25 1800 116 486.85000610352 486.85000610352 56474.600708008 27494659.699387
4932	22188548 4161 180523 184162 1771.25 1800 116 504.77188110352 818.67578887939 75608.909507751 50653781.400325
4943	22192709 3718 180740 184162 1773.25 1800 108 0.973 11.810082123732 403.75549228654 2634.7249584006
4942	22196427 3371 180740 184162 1773.25 1800 108 -3.5987892150879 2.5 40.39999961853 289.46443595525
4941	22199798 3599 180711 184162 1773 1800 109 5.6500000953674 15.875 1406.8427143097 19304.296696539
4940	22203397 3943 180684 184162 1772.75 1800 110 431.3962097168 483.14999389648 52672.93145752 25235421.885244
4939	22207340 3938 180684 184162 1772.75 1800 110 184.17810058594 483.33880615234 39353.361419678 15270939.435019
4950	22211278 3631 180771 184162 1773.5 1800 107 0.973 10.756497587458 311.5745730294 1556.9557023795
4949	22214909 3602 180771 184162 1773.5 1800 107 -3.4044075012207 2.5 22.923013687134 195.85801157348
4948	22218511 3875 180740 184162 1773.25 1800 108 5.6500000953674 14.39999961853 1276.7722797394 15941.307710378
4947	22222386 3918 180711 184162 1773 1800 109 449.1809387207 486.85000610352 52690.987487793 25478791.118754
4946	22226304 3913 180711 184162 1773 1800 109 483.14999389648 766.72579193115 65913.100166321 40887760.327407
4957	22230217 3618 180804 184162 1773.75 1800 106 0.973 10.887082128377 347.61911404551 1753.8592595465
4956	22233835 3596 180804 184162 1773.75 1800 106 -4.5 2.5 26.993091583252 292.98245664345
4955	22237431 3841 180771 184162 1773.5 1800 107 4.4436931610107 15.817337036133 1133.1741456985 13871.092038229
4954	22241272 3869 180740 184162 1773.25 1800 108 176.21716308594 455.74801635742 35356.023071289 12480483.070616
4953	22245141 3888 180740 184162 1773.25 1800 108 486.85000610352 486.85000610352 52579.80065918 25598476.271843
4964	22249029 3516 180837 184162 1774 1800 105 0.973 10.756497587458 316.80209157473 1675.9154211123
4963	22252545 3662 180837 184162 1774 1800 105 -4.5 2.5 21.39999961853 263.69189783482
4962	22256207 3756 180804 184162 1773.75 1800 106 4.3292760848999 14.39999961853 1118.6781373024 13249.644928478
4961	22259963 3835 180771 184162 1773.5 1800 107 199.58673095703 476.17269897461 37403.39175415 13856413.29874
4960	22263798 3851 180771 184162 1773.5 1800 107 486.84997558594 486.85000610352 52092.950622559 25361453.313685
4971	22267649 3348 181006 184162 1775.25 1800 100 0.973 11.200708441096 275.38851756634 1370.7028988999
4970	22270997 3305 181006 184162 1775.25 1800 100 -9.1266136169434 2.5 -22.60000038147 331.27999331576
4969	22274302 3536 180971 184162 1775 1800 101 0 15.02499961853 1220.4217309952 16805.434174689
4968	22277838 3671 180936 184162 1774.75 1800 102 483.14999389648 483.14999389648 49281.299377441 23810259.493422
4967	22281509 3616 180936 184162 1774.75 1800 102 166.078125 471.60000610352 33489.741027832 12055746.250915
4978	22285125 2609 181776 184162 1781.25 1800 76 0.973 11.84370684501 272.32180476216 1738.5189193324
4977	22287734 2694 181776 184162 1781.25 1800 76 -2.9470100402832 2.5 35.044992446899 134.94576929121
4976	22290428 2756 181747 184162 1781 1800 77 5.6500000953674 15.921649932861 1100.3649377823 16185.944768152
4975	22293184 2804 181718 184162 1780.75 1800 78 515.47103881836 785.82187652588 51524.704597473 34582494.444008
4974	22295988 2807 181718 184162 1780.75 1800 78 483.14999389648 483.14999389648 37685.699523926 18207845.494969
4985	22298795 2496 181838 184162 1781.75 1800 74 0.973 11.200708441096 222.78487235827 1240.0911298902
4984	22301291 2624 181838 184162 1781.75 1800 74 -2.8368682861328 2.5 15.909254074097 130.98880529753
4983	22303915 2684 181807 184162 1781.5 1800 75 5.6500000953674 15.02499961853 997.13162231445 13648.793371169
4982	22306599 2736 181776 184162 1781.25 1800 76 483.14999389648 483.14999389648 36719.399536133 17740977.661765
4981	22309335 2719 181776 184162 1781.25 1800 76 184.17810058594 430.21292114258 22846.283660889 7320191.3932421
4992	22312054 2491 181963 184162 1782.75 1800 70 0.973 11.200708441096 231.46233621332 1272.7286328257
4991	22314545 2326 181963 184162 1782.75 1800 70 -0.5 2.5 35.455564498901 94.340745310536
4990	22316871 2542 181932 184162 1782.5 1800 71 5.6500000953674 15.02499961853 965.20836639404 13473.721917739
4989	22319413 2585 181900 184162 1782.25 1800 72 569.63595581055 806.11563110352 50176.338356018 35352009.62909
4988	22321998 2592 181900 184162 1782.25 1800 72 483.14999389648 483.14999389648 34786.799560547 16807241.995356
4999	22324590 2067 182215 184162 1784.75 1800 62 0.96333723109819 12.099024792222 256.98851557915 1968.2626480442
4998	22326657 2071 182215 184162 1784.75 1800 62 -0.88077926635742 2.5 40.342050552368 140.2696640237
4997	22328728 2252 182182 184162 1784.5 1800 63 5.6500000953674 16.27499961853 881.91531467438 12801.489607519
4996	22330980 2283 182149 184162 1784.25 1800 64 184.17810058594 399.4912109375 18089.205505371 5400722.4514277
4995	22333263 2304 182149 184162 1784.25 1800 64 486.85000610352 486.85000610352 31158.400390625 15169467.420352
5006	22335567 1682 182714 184162 1788.5 1800 47 1.6778656626784 11.200708441096 189.06841310256 1191.5983942549
5005	22337249 1648 182714 184162 1788.5 1800 47 -0.12916564941406 2.5 36.983388900757 93.788124843388
5004	22338897 1713 182679 184162 1788.25 1800 48 5.6500000953674 15.02499961853 642.45414161682 8954.5472217309
5003	22340610 1762 182644 184162 1788 1800 49 486.85000610352 486.85000610352 23855.650299072 11614123.493707
5002	22342372 1758 182644 184162 1788 1800 49 630.17315673828 785.82187652588 35124.403404236 25295295.474879
5013	22344130 1254 183130 184162 1791.5 1800 35 1.6123734813312 11.648172402475 173.72638055911 1271.372445263
5012	22345384 1142 183130 184162 1791.5 1800 35 -0.16003036499023 2.5 39.362585067749 100.05852527055
5011	22346526 1282 183096 184162 1791.25 1800 36 5.6500000953674 15.64999961853 475.83748340607 6661.2447620265
5010	22347808 1330 183061 184162 1791 1800 37 483.14999389648 483.14999389648 17876.54977417 8637054.9142804
5009	22349138 1308 183061 184162 1791 1800 37 184.17810058594 297.94506835938 8601.1690063477 2047488.5198026
14	22350446 546 0 184161 0 1800 31 0 28 553 10953
15	22350992 560 0 184161 0 1800 31 0 199 3080 409054
