file 30532246 1591424855                                        
version 2
run nodebug-34-20200606-02:21:49-22484
attr configname nodebug
attr datetime 20200606-02:21:49
attr experiment nodebug
attr inifile omnetpp.ini
attr iterationvars ""
attr iterationvars2 $repetition=34
attr measurement ""
attr network "\"org.car2x.veins.modules.application.ExtTraCIScenarioManagerLaunchd.IntersectionExampleScenario\""
attr processid 22484
attr repetition 34
attr replication #34
attr resultdir results
attr runnumber 34
attr seedset 34
param **.coreDebug false
param **.debug false
param *.**.nic.mac1609_4.bitrate 18Mbps
param *.**.nic.mac1609_4.txPower 20mW
param *.**.nic.mac1609_4.useServiceChannel false
param *.**.nic.phy80211p.analogueModels "xmldoc(\"config.xml\")"
param *.**.nic.phy80211p.decider "xmldoc(\"config.xml\")"
param *.**.nic.phy80211p.sensitivity -89dBm
param *.**.nic.phy80211p.thermalNoise -110dBm
param *.**.nic.phy80211p.usePropagationDelay true
param *.**.nic.phy80211p.useThermalNoise true
param *.annotations.draw false
param *.connectionManager.alpha 2.0
param *.connectionManager.carrierFrequency "5.890e9 Hz"
param *.connectionManager.pMax 20mW
param *.connectionManager.sat -89dBm
param *.connectionManager.sendDirect true
param *.manager.autoShutdown true
param *.manager.host "\"localhost\""
param *.manager.launchConfig "xmldoc(\"paramics.launchd.xml\")"
param *.manager.margin 25
param *.manager.moduleDisplayString "\"\""
param *.manager.moduleName "\"node\""
param *.manager.moduleType "\"org.car2x.veins.nodes.Car\""
param *.manager.port 9999
param *.manager.updateInterval 250ms
param *.node[*0].veinsmobility.accidentCount 0
param *.node[*0].veinsmobility.accidentDuration 30s
param *.node[*0].veinsmobility.accidentStart 75s
param *.node[*].appl.LiderSelectZoneRadio 55.0
param *.node[*].appl.ShareDataZoneRadio 110.0
param *.node[*].appl.TiempoSemaforo 30.0
param *.node[*].appl.beaconInterval 1s
param *.node[*].appl.beaconPriority 3
param *.node[*].appl.dataOnSch false
param *.node[*].appl.dataPriority 2
param *.node[*].appl.debug false
param *.node[*].appl.headerLength "256 bit"
param *.node[*].appl.maxOffset 0.005s
param *.node[*].appl.sendBeacons false
param *.node[*].appl.sendData true
param *.node[*].applType "\"Dummy\""
param *.node[*].mobilityType "\"TraCIMobility\""
param *.node[*].mobilityType.debug true
param *.node[*].veinsmobility.x 0
param *.node[*].veinsmobility.y 0
param *.node[*].veinsmobility.z 1.895
param *.node[*].veinsmobilityType "\"org.car2x.veins.modules.mobility.traci.TraCIMobility\""
param *.node[*].veinsmobilityType.debug true
param *.playgroundSizeX 8500m
param *.playgroundSizeY 8500m
param *.playgroundSizeZ 50m
param *.world.use2D false
param *.world.useTorus false

vector 31505  IntersectionExampleScenario.manager  vehiclesinsim  ETV
attr type  int
vector 31506  IntersectionExampleScenario.manager  realtime  ETV
attr type  int
attr unit  s
vector 31509  IntersectionExampleScenario.node[0].veinsmobility  posx  ETV
vector 31510  IntersectionExampleScenario.node[0].veinsmobility  posy  ETV
vector 31511  IntersectionExampleScenario.node[0].veinsmobility  speed  ETV
vector 31512  IntersectionExampleScenario.node[0].veinsmobility  acceleration  ETV
vector 31513  IntersectionExampleScenario.node[0].veinsmobility  co2emission  ETV
vector 31516  IntersectionExampleScenario.node[1].veinsmobility  posx  ETV
vector 31517  IntersectionExampleScenario.node[1].veinsmobility  posy  ETV
vector 31518  IntersectionExampleScenario.node[1].veinsmobility  speed  ETV
vector 31519  IntersectionExampleScenario.node[1].veinsmobility  acceleration  ETV
vector 31520  IntersectionExampleScenario.node[1].veinsmobility  co2emission  ETV
vector 31523  IntersectionExampleScenario.node[2].veinsmobility  posx  ETV
vector 31524  IntersectionExampleScenario.node[2].veinsmobility  posy  ETV
vector 31530  IntersectionExampleScenario.node[3].veinsmobility  posx  ETV
vector 31531  IntersectionExampleScenario.node[3].veinsmobility  posy  ETV
vector 31525  IntersectionExampleScenario.node[2].veinsmobility  speed  ETV
vector 31526  IntersectionExampleScenario.node[2].veinsmobility  acceleration  ETV
vector 31527  IntersectionExampleScenario.node[2].veinsmobility  co2emission  ETV
vector 31532  IntersectionExampleScenario.node[3].veinsmobility  speed  ETV
vector 31533  IntersectionExampleScenario.node[3].veinsmobility  acceleration  ETV
vector 31534  IntersectionExampleScenario.node[3].veinsmobility  co2emission  ETV
vector 31537  IntersectionExampleScenario.node[4].veinsmobility  posx  ETV
vector 31538  IntersectionExampleScenario.node[4].veinsmobility  posy  ETV
vector 31539  IntersectionExampleScenario.node[4].veinsmobility  speed  ETV
vector 31540  IntersectionExampleScenario.node[4].veinsmobility  acceleration  ETV
vector 31541  IntersectionExampleScenario.node[4].veinsmobility  co2emission  ETV
vector 31544  IntersectionExampleScenario.node[5].veinsmobility  posx  ETV
vector 31545  IntersectionExampleScenario.node[5].veinsmobility  posy  ETV
vector 31546  IntersectionExampleScenario.node[5].veinsmobility  speed  ETV
vector 31547  IntersectionExampleScenario.node[5].veinsmobility  acceleration  ETV
vector 31548  IntersectionExampleScenario.node[5].veinsmobility  co2emission  ETV
vector 31551  IntersectionExampleScenario.node[6].veinsmobility  posx  ETV
vector 31552  IntersectionExampleScenario.node[6].veinsmobility  posy  ETV
vector 31553  IntersectionExampleScenario.node[6].veinsmobility  speed  ETV
vector 31554  IntersectionExampleScenario.node[6].veinsmobility  acceleration  ETV
vector 31555  IntersectionExampleScenario.node[6].veinsmobility  co2emission  ETV
vector 31558  IntersectionExampleScenario.node[7].veinsmobility  posx  ETV
vector 31559  IntersectionExampleScenario.node[7].veinsmobility  posy  ETV
vector 31560  IntersectionExampleScenario.node[7].veinsmobility  speed  ETV
vector 31565  IntersectionExampleScenario.node[8].veinsmobility  posx  ETV
vector 31566  IntersectionExampleScenario.node[8].veinsmobility  posy  ETV
vector 31561  IntersectionExampleScenario.node[7].veinsmobility  acceleration  ETV
vector 31562  IntersectionExampleScenario.node[7].veinsmobility  co2emission  ETV
vector 31567  IntersectionExampleScenario.node[8].veinsmobility  speed  ETV
vector 31568  IntersectionExampleScenario.node[8].veinsmobility  acceleration  ETV
vector 31569  IntersectionExampleScenario.node[8].veinsmobility  co2emission  ETV
vector 31572  IntersectionExampleScenario.node[9].veinsmobility  posx  ETV
vector 31573  IntersectionExampleScenario.node[9].veinsmobility  posy  ETV
vector 31574  IntersectionExampleScenario.node[9].veinsmobility  speed  ETV
vector 31575  IntersectionExampleScenario.node[9].veinsmobility  acceleration  ETV
vector 31576  IntersectionExampleScenario.node[9].veinsmobility  co2emission  ETV
vector 31579  IntersectionExampleScenario.node[10].veinsmobility  posx  ETV
vector 31580  IntersectionExampleScenario.node[10].veinsmobility  posy  ETV
vector 31581  IntersectionExampleScenario.node[10].veinsmobility  speed  ETV
vector 31582  IntersectionExampleScenario.node[10].veinsmobility  acceleration  ETV
vector 31583  IntersectionExampleScenario.node[10].veinsmobility  co2emission  ETV
vector 31586  IntersectionExampleScenario.node[11].veinsmobility  posx  ETV
vector 31587  IntersectionExampleScenario.node[11].veinsmobility  posy  ETV
vector 31588  IntersectionExampleScenario.node[11].veinsmobility  speed  ETV
vector 31589  IntersectionExampleScenario.node[11].veinsmobility  acceleration  ETV
vector 31590  IntersectionExampleScenario.node[11].veinsmobility  co2emission  ETV
31520	7698 4690 132 1705 10.75 47.5 148 0.973 12.099024792222 489.10141331797 2763.5611970259
31519	12388 4288 132 1705 10.75 47.5 148 -3.1056976318359 2.5 41.396924972534 212.47166516693
31518	16676 4584 127 1705 10.5 47.5 149 5.6500000953674 16.27499961853 2208.6165647507 33545.385987184
31517	21260 4858 122 1705 10.25 47.5 150 486.85000610352 486.85000610352 73027.500915527 35553439.266449
31516	26118 4855 122 1705 10.25 47.5 150 239.07543945312 785.82187652588 78547.69618988 45083488.677048
vector 31593  IntersectionExampleScenario.node[12].veinsmobility  posx  ETV
vector 31594  IntersectionExampleScenario.node[12].veinsmobility  posy  ETV
vector 31595  IntersectionExampleScenario.node[12].veinsmobility  speed  ETV
31513	31205 5710 8 1860 0.75 49.75 197 0.973 12.099024792222 584.24957379842 3223.55589263
31512	36915 5393 8 1860 0.75 49.75 197 -7.8777389526367 4 40.038900375366 513.03969327146
31511	42308 5582 5 1860 0.5 49.75 198 0 16.27499961853 2205.5867063999 32071.417650794
31510	47890 6334 2 1860 0.25 49.75 199 184.17810058594 731.70051574707 90118.877258301 44854963.149995
31509	54224 6361 2 1860 0.25 49.75 199 486.85000610352 486.85000610352 96883.1512146 47167562.760155
vector 31596  IntersectionExampleScenario.node[12].veinsmobility  acceleration  ETV
vector 31597  IntersectionExampleScenario.node[12].veinsmobility  co2emission  ETV
vector 31600  IntersectionExampleScenario.node[13].veinsmobility  posx  ETV
vector 31601  IntersectionExampleScenario.node[13].veinsmobility  posy  ETV
vector 31602  IntersectionExampleScenario.node[13].veinsmobility  speed  ETV
vector 31603  IntersectionExampleScenario.node[13].veinsmobility  acceleration  ETV
vector 31604  IntersectionExampleScenario.node[13].veinsmobility  co2emission  ETV
31527	61155 5080 193 2243 13.5 54.5 165 0.973 11.648172402475 560.24107911628 3385.0806208165
31526	66235 4751 193 2243 13.5 54.5 165 -3.4864883422852 2.5 38.171613693237 366.54104681514
31525	70986 5069 184 2243 13.25 54.5 166 5.6500000953674 15.64999961853 2184.9563236237 30147.765872554
31524	76055 5397 177 2243 13 54.5 167 184.17810058594 483.14999389648 66501.353240967 28230868.63615
31523	81452 5403 177 2243 13 54.5 167 486.85000610352 733.56739807129 89546.974014282 48959686.886599
31534	86855 5198 202 2306 13.75 55.25 167 0.973 11.54047740176 521.65687365466 2794.7287864725
31533	92053 5051 202 2306 13.75 55.25 167 -4.5 2.5 38.680875778198 251.12086597048
31532	97104 5236 193 2306 13.5 55.25 168 5.6500000953674 15.659482002258 2319.3414239883 32822.444365607
31531	102340 5443 184 2306 13.25 55.25 169 159.76721191406 734.13136291504 73505.448684692 36736797.850984
31530	107783 5497 184 2306 13.25 55.25 169 486.85000610352 486.85000610352 82277.651031494 40056874.906866
vector 31607  IntersectionExampleScenario.node[14].veinsmobility  posx  ETV
vector 31608  IntersectionExampleScenario.node[14].veinsmobility  posy  ETV
vector 31609  IntersectionExampleScenario.node[14].veinsmobility  speed  ETV
vector 31610  IntersectionExampleScenario.node[14].veinsmobility  acceleration  ETV
vector 31611  IntersectionExampleScenario.node[14].veinsmobility  co2emission  ETV
vector 31614  IntersectionExampleScenario.node[15].veinsmobility  posx  ETV
vector 31615  IntersectionExampleScenario.node[15].veinsmobility  posy  ETV
vector 31616  IntersectionExampleScenario.node[15].veinsmobility  speed  ETV
vector 31617  IntersectionExampleScenario.node[15].veinsmobility  acceleration  ETV
vector 31618  IntersectionExampleScenario.node[15].veinsmobility  co2emission  ETV
vector 31621  IntersectionExampleScenario.node[16].veinsmobility  posx  ETV
vector 31622  IntersectionExampleScenario.node[16].veinsmobility  posy  ETV
vector 31628  IntersectionExampleScenario.node[17].veinsmobility  posx  ETV
vector 31629  IntersectionExampleScenario.node[17].veinsmobility  posy  ETV
vector 31623  IntersectionExampleScenario.node[16].veinsmobility  speed  ETV
vector 31635  IntersectionExampleScenario.node[18].veinsmobility  posx  ETV
vector 31636  IntersectionExampleScenario.node[18].veinsmobility  posy  ETV
vector 31624  IntersectionExampleScenario.node[16].veinsmobility  acceleration  ETV
vector 31625  IntersectionExampleScenario.node[16].veinsmobility  co2emission  ETV
vector 31630  IntersectionExampleScenario.node[17].veinsmobility  speed  ETV
vector 31642  IntersectionExampleScenario.node[19].veinsmobility  posx  ETV
vector 31643  IntersectionExampleScenario.node[19].veinsmobility  posy  ETV
vector 31631  IntersectionExampleScenario.node[17].veinsmobility  acceleration  ETV
vector 31632  IntersectionExampleScenario.node[17].veinsmobility  co2emission  ETV
vector 31637  IntersectionExampleScenario.node[18].veinsmobility  speed  ETV
vector 31638  IntersectionExampleScenario.node[18].veinsmobility  acceleration  ETV
vector 31639  IntersectionExampleScenario.node[18].veinsmobility  co2emission  ETV
vector 31644  IntersectionExampleScenario.node[19].veinsmobility  speed  ETV
vector 31645  IntersectionExampleScenario.node[19].veinsmobility  acceleration  ETV
vector 31646  IntersectionExampleScenario.node[19].veinsmobility  co2emission  ETV
31548	115686 5060 995 4055 33.25 72.75 159 0.973 11.810082123732 510.17914445071 2860.4367137133
31547	120746 4740 995 4055 33.25 72.75 159 -3.4376411437988 2.5 38.850629806519 284.11405441791
31546	125486 4959 984 4055 33 72.75 160 5.6500000953674 15.875 2192.1819295883 31419.820930094
31545	130445 5283 973 4055 32.75 72.75 161 184.17810058594 483.14999389648 64029.702514648 27203817.82146
31544	135728 5303 973 4055 32.75 72.75 161 486.85000610352 735.1961517334 86629.537811279 47552301.009509
vector 31649  IntersectionExampleScenario.node[20].veinsmobility  posx  ETV
vector 31650  IntersectionExampleScenario.node[20].veinsmobility  posy  ETV
vector 31651  IntersectionExampleScenario.node[20].veinsmobility  speed  ETV
vector 31652  IntersectionExampleScenario.node[20].veinsmobility  acceleration  ETV
vector 31653  IntersectionExampleScenario.node[20].veinsmobility  co2emission  ETV
vector 31656  IntersectionExampleScenario.node[21].veinsmobility  posx  ETV
vector 31657  IntersectionExampleScenario.node[21].veinsmobility  posy  ETV
vector 31658  IntersectionExampleScenario.node[21].veinsmobility  speed  ETV
vector 31659  IntersectionExampleScenario.node[21].veinsmobility  acceleration  ETV
vector 31660  IntersectionExampleScenario.node[21].veinsmobility  co2emission  ETV
vector 31663  IntersectionExampleScenario.node[22].veinsmobility  posx  ETV
vector 31664  IntersectionExampleScenario.node[22].veinsmobility  posy  ETV
vector 31665  IntersectionExampleScenario.node[22].veinsmobility  speed  ETV
vector 31666  IntersectionExampleScenario.node[22].veinsmobility  acceleration  ETV
vector 31667  IntersectionExampleScenario.node[22].veinsmobility  co2emission  ETV
31555	142234 5644 1089 5052 35.5 80.5 181 0.973 11.36141391502 538.33506206791 2750.1894107201
31554	147878 5224 1089 5052 35.5 80.5 181 -8.2128305435181 4 36.813589096069 481.09835472119
31553	153102 5524 1078 5052 35.25 80.5 182 0 15.25 2172.3116796017 29932.914039771
31552	158626 5974 1067 5052 35 80.5 183 237.89813232422 483.14999389648 80106.088165283 36043879.730888
31551	164600 6008 1067 5052 35 80.5 183 184.17810058594 483.36395263672 74115.412322998 31870219.399888
vector 31670  IntersectionExampleScenario.node[23].veinsmobility  posx  ETV
vector 31671  IntersectionExampleScenario.node[23].veinsmobility  posy  ETV
vector 31677  IntersectionExampleScenario.node[24].veinsmobility  posx  ETV
vector 31678  IntersectionExampleScenario.node[24].veinsmobility  posy  ETV
vector 31672  IntersectionExampleScenario.node[23].veinsmobility  speed  ETV
vector 31673  IntersectionExampleScenario.node[23].veinsmobility  acceleration  ETV
vector 31674  IntersectionExampleScenario.node[23].veinsmobility  co2emission  ETV
vector 31679  IntersectionExampleScenario.node[24].veinsmobility  speed  ETV
vector 31680  IntersectionExampleScenario.node[24].veinsmobility  acceleration  ETV
vector 31681  IntersectionExampleScenario.node[24].veinsmobility  co2emission  ETV
vector 31684  IntersectionExampleScenario.node[25].veinsmobility  posx  ETV
vector 31685  IntersectionExampleScenario.node[25].veinsmobility  posy  ETV
vector 31686  IntersectionExampleScenario.node[25].veinsmobility  speed  ETV
vector 31691  IntersectionExampleScenario.node[26].veinsmobility  posx  ETV
vector 31692  IntersectionExampleScenario.node[26].veinsmobility  posy  ETV
vector 31687  IntersectionExampleScenario.node[25].veinsmobility  acceleration  ETV
vector 31688  IntersectionExampleScenario.node[25].veinsmobility  co2emission  ETV
vector 31693  IntersectionExampleScenario.node[26].veinsmobility  speed  ETV
vector 31694  IntersectionExampleScenario.node[26].veinsmobility  acceleration  ETV
vector 31695  IntersectionExampleScenario.node[26].veinsmobility  co2emission  ETV
vector 31698  IntersectionExampleScenario.node[27].veinsmobility  posx  ETV
vector 31699  IntersectionExampleScenario.node[27].veinsmobility  posy  ETV
vector 31705  IntersectionExampleScenario.node[28].veinsmobility  posx  ETV
vector 31706  IntersectionExampleScenario.node[28].veinsmobility  posy  ETV
vector 31700  IntersectionExampleScenario.node[27].veinsmobility  speed  ETV
vector 31701  IntersectionExampleScenario.node[27].veinsmobility  acceleration  ETV
vector 31702  IntersectionExampleScenario.node[27].veinsmobility  co2emission  ETV
vector 31707  IntersectionExampleScenario.node[28].veinsmobility  speed  ETV
vector 31708  IntersectionExampleScenario.node[28].veinsmobility  acceleration  ETV
vector 31709  IntersectionExampleScenario.node[28].veinsmobility  co2emission  ETV
vector 31712  IntersectionExampleScenario.node[29].veinsmobility  posx  ETV
vector 31713  IntersectionExampleScenario.node[29].veinsmobility  posy  ETV
vector 31714  IntersectionExampleScenario.node[29].veinsmobility  speed  ETV
vector 31715  IntersectionExampleScenario.node[29].veinsmobility  acceleration  ETV
vector 31716  IntersectionExampleScenario.node[29].veinsmobility  co2emission  ETV
31632	173415 5074 3185 8686 65.25 104.25 157 0.973 11.54047740176 464.515727801 2331.5343583805
31631	178489 4563 3185 8686 65.25 104.25 157 -3.6199226379395 2.5 36.98334312439 185.99752778846
31630	183052 4978 3158 8686 65 104.25 158 5.6500000953674 15.5 2220.1633729935 31769.099536895
31629	188030 5265 3133 8686 64.75 104.25 159 483.14999389648 483.14999389648 76820.849029541 37115992.739745
31628	193295 5227 3133 8686 64.75 104.25 159 184.17810058594 734.11010742188 71456.595001221 36341496.178864
31646	198522 5461 3243 9161 65.75 107.75 169 0.973 11.105347794042 506.66259995043 2510.8420125624
31645	203983 4951 3243 9161 65.75 107.75 169 -4.5 2.5 35.964826583862 242.29427909735
31644	208934 5378 3214 9161 65.5 107.75 170 5.6500000953674 14.981412887573 2298.3908634186 31873.578727676
31643	214312 5669 3185 9161 65.25 107.75 171 483.14999389648 732.01565551758 91274.297622681 49717199.942291
31642	219981 5666 3185 9161 65.25 107.75 171 160.43438720703 486.85000610352 66331.061035156 27955802.06743
vector 31719  IntersectionExampleScenario.node[30].veinsmobility  posx  ETV
vector 31720  IntersectionExampleScenario.node[30].veinsmobility  posy  ETV
vector 31721  IntersectionExampleScenario.node[30].veinsmobility  speed  ETV
vector 31722  IntersectionExampleScenario.node[30].veinsmobility  acceleration  ETV
vector 31723  IntersectionExampleScenario.node[30].veinsmobility  co2emission  ETV
31541	226048 9416 503 9383 22 109.5 351 0.95608803779137 12.553400930962 755.34883572174 3530.006032558
31540	235464 8656 503 9383 22 109.5 351 -7.2949590682983 4 42.585195541382 516.70585441127
31539	244120 8637 492 9383 21.75 109.5 352 0 16.89999961853 2203.611648798 32896.344985168
31538	252757 11628 481 9383 21.5 109.5 353 483.14999389648 785.82187652588 187198.62514496 101461415.39511
31537	264385 11635 481 9383 21.5 109.5 353 483.14999389648 733.30899047852 178469.92962646 91368513.780191
vector 31726  IntersectionExampleScenario.node[31].veinsmobility  posx  ETV
vector 31727  IntersectionExampleScenario.node[31].veinsmobility  posy  ETV
vector 31728  IntersectionExampleScenario.node[31].veinsmobility  speed  ETV
vector 31729  IntersectionExampleScenario.node[31].veinsmobility  acceleration  ETV
vector 31730  IntersectionExampleScenario.node[31].veinsmobility  co2emission  ETV
31569	276421 8621 1255 9618 39.25 111.25 289 0.973 11.648172402475 653.12011090984 3001.9511535349
31568	285042 8983 1255 9618 39.25 111.25 289 -3.9381833076477 2.5 38.511121749878 346.50733485655
31567	294025 8945 1242 9618 39 111.25 290 0 15.64999961853 2214.6029241914 29637.110428694
31566	302970 9624 1229 9618 38.75 111.25 291 236.99932861328 785.82187652588 150194.74384308 81676985.451985
31565	312594 9649 1229 9618 38.75 111.25 291 483.14999389648 483.14999389648 140596.64822388 67929269.731232
vector 31733  IntersectionExampleScenario.node[32].veinsmobility  posx  ETV
vector 31734  IntersectionExampleScenario.node[32].veinsmobility  posy  ETV
vector 31735  IntersectionExampleScenario.node[32].veinsmobility  speed  ETV
vector 31736  IntersectionExampleScenario.node[32].veinsmobility  acceleration  ETV
vector 31737  IntersectionExampleScenario.node[32].veinsmobility  co2emission  ETV
31576	322644 8844 1337 9895 41 113.25 290 0.973 12.26218747632 692.79419689963 3355.7408559017
31575	331488 9043 1337 9895 41 113.25 290 -4.5 2.5 41.396924972534 454.34506853695
31574	340531 9275 1324 9895 40.75 113.25 291 0 16.5 2254.6119385455 30445.81838324
31573	349806 9662 1311 9895 40.5 113.25 292 486.85000610352 805.05782318115 161566.21325684 91686431.321696
31572	359468 9687 1311 9895 40.5 113.25 292 238.61999511719 483.14999389648 133377.79428101 61970632.960416
vector 31740  IntersectionExampleScenario.node[33].veinsmobility  posx  ETV
vector 31741  IntersectionExampleScenario.node[33].veinsmobility  posy  ETV
vector 31742  IntersectionExampleScenario.node[33].veinsmobility  speed  ETV
vector 31743  IntersectionExampleScenario.node[33].veinsmobility  acceleration  ETV
vector 31744  IntersectionExampleScenario.node[33].veinsmobility  co2emission  ETV
31611	369556 7007 2526 10259 58 115.75 232 0.973 11.648172402475 587.02865912949 2916.0619700135
31610	376563 7327 2526 10259 58 115.75 232 -3.8067796230316 2.5 38.171613693237 328.83540555593
31609	383890 7506 2505 10259 57.75 115.75 233 0 15.64999961853 2213.2868656199 29192.048714813
31608	391396 7773 2484 10259 57.5 115.75 234 237.84069824219 785.82187652588 122518.46141815 68293119.814005
31607	399169 7795 2484 10259 57.5 115.75 234 483.14999389648 483.14999389648 113057.09857178 54623536.484908
31660	406964 5488 4479 10814 76.25 119.5 174 0.973 11.36141391502 555.06452319407 3122.7855370073
31659	412452 5433 4479 10814 76.25 119.5 174 -3.648624420166 2.5 36.643835067749 368.27618459706
31658	417885 5570 4446 10814 76 119.5 175 5.6500000953674 15.25 2176.867685318 28589.707203834
31657	423455 5902 4413 10814 75.75 119.5 176 486.85000610352 785.82187652588 100583.12030792 59255346.529283
31656	429357 5905 4413 10814 75.75 119.5 176 238.52911376953 483.14999389648 76746.913726807 34425288.592227
31674	435262 4968 5408 11185 83 122 157 0.973 11.816114085107 522.66115401056 2925.5455572326
31673	440230 4954 5408 11185 83 122 157 -4.1028671264648 2.5 41.736440658569 271.50204861859
31672	445184 5023 5369 11185 82.75 122 158 5.6500000953674 16.250617980957 2191.8475861549 31958.580997509
31671	450207 5360 5332 11185 82.5 122 159 486.85000610352 785.82187652588 91051.476478577 53860697.091645
31670	455567 5353 5332 11185 82.5 122 159 235.31671142578 483.14999389648 68925.163116455 30782832.292595
31681	460920 5344 5447 11444 83.25 123.75 163 0.973 11.90022389248 520.82494205319 2810.335731371
31680	466264 5051 5447 11444 83.25 123.75 163 -3.5441017150879 2.5 39.869146347046 241.20579732757
31679	471315 5260 5408 11444 83 123.75 164 5.6500000953674 16 2309.4464073181 33596.8639025
31678	476575 5568 5369 11444 82.75 123.75 165 483.14999389648 810.23281097412 96185.756248474 58256363.660896
31677	482143 5574 5369 11444 82.75 123.75 165 483.14999389648 733.93461608887 87982.537811279 47880599.308006
31688	487717 5453 6075 12033 87.25 128 164 0.973 11.200708441096 466.76836258411 2248.7333641142
31687	493170 5233 6075 12033 87.25 128 164 -3.5482215881348 2.5 35.795072555542 176.51227671988
31686	498403 5395 6034 12033 87 128 165 5.6500000953674 15.02499961853 2289.1686248779 32269.994629653
31685	503798 5620 5993 12033 86.75 128 166 238.19140625 805.5482635498 88125.432533264 51479146.539225
31684	509418 5647 5993 12033 86.75 128 166 483.14999389648 483.14999389648 80202.898986816 38750030.155961
31583	515065 10943 1562 13489 45.25 141.25 385 0.973 12.44402232946 784.08572188152 3403.2307993481
31582	526008 10770 1562 13489 45.25 141.25 385 -3.8228812217712 2.5 43.094457626343 385.02013033443
31581	536778 10682 1547 13489 45 141.25 386 0 16.75 2213.4349959446 31920.816770016
31580	547460 13047 1532 13489 44.75 141.25 387 486.85000610352 486.85000610352 188410.95236206 91727873.307439
31579	560507 13018 1532 13489 44.75 141.25 387 237.74230957031 785.82187652588 198685.82917023 105984650.8368
31562	573525 11240 1229 13511 38.75 141.5 412 0.973 11.36141391502 765.08398256408 2976.9081567943
31561	584765 9842 1229 13511 38.75 141.5 412 -8.4870567321777 4 37.15309715271 476.36065124764
31560	594607 10186 1218 13511 38.5 141.5 413 0 15.25 2176.7448656559 30094.704683899
31559	604793 13879 1207 13511 38.25 141.5 414 486.85000610352 733.15849304199 209893.2409668 107611293.46833
31558	618672 13930 1207 13511 38.25 141.5 414 486.63604736328 785.82187652588 218490.40874481 117611034.62866
vector 31747  IntersectionExampleScenario.node[34].veinsmobility  posx  ETV
vector 31748  IntersectionExampleScenario.node[34].veinsmobility  posy  ETV
vector 31749  IntersectionExampleScenario.node[34].veinsmobility  speed  ETV
vector 31750  IntersectionExampleScenario.node[34].veinsmobility  acceleration  ETV
vector 31751  IntersectionExampleScenario.node[34].veinsmobility  co2emission  ETV
vector 31754  IntersectionExampleScenario.node[35].veinsmobility  posx  ETV
vector 31755  IntersectionExampleScenario.node[35].veinsmobility  posy  ETV
vector 31756  IntersectionExampleScenario.node[35].veinsmobility  speed  ETV
vector 31757  IntersectionExampleScenario.node[35].veinsmobility  acceleration  ETV
vector 31758  IntersectionExampleScenario.node[35].veinsmobility  co2emission  ETV
vector 31761  IntersectionExampleScenario.node[36].veinsmobility  posx  ETV
vector 31762  IntersectionExampleScenario.node[36].veinsmobility  posy  ETV
31590	633558 11563 1671 13816 47 145 393 0.973 11.90022389248 776.91639180051 3265.7960906675
31589	645121 11615 1671 13816 47 145 393 -4.5 2.5 39.529638290405 402.72310581086
31588	656736 11563 1654 13816 46.75 145 394 0 16 2285.7543179952 30486.108649664
31587	668299 13325 1637 13816 46.5 145 395 236.64752197266 486.85000610352 184038.18463135 86951318.124606
31586	681624 13312 1637 13816 46.5 145 395 483.14999389648 805.05782318115 213936.78536224 118355442.2339
vector 31763  IntersectionExampleScenario.node[36].veinsmobility  speed  ETV
vector 31764  IntersectionExampleScenario.node[36].veinsmobility  acceleration  ETV
vector 31765  IntersectionExampleScenario.node[36].veinsmobility  co2emission  ETV
vector 31768  IntersectionExampleScenario.node[37].veinsmobility  posx  ETV
vector 31769  IntersectionExampleScenario.node[37].veinsmobility  posy  ETV
vector 31770  IntersectionExampleScenario.node[37].veinsmobility  speed  ETV
vector 31775  IntersectionExampleScenario.node[38].veinsmobility  posx  ETV
vector 31776  IntersectionExampleScenario.node[38].veinsmobility  posy  ETV
vector 31771  IntersectionExampleScenario.node[37].veinsmobility  acceleration  ETV
vector 31772  IntersectionExampleScenario.node[37].veinsmobility  co2emission  ETV
vector 31782  IntersectionExampleScenario.node[39].veinsmobility  posx  ETV
vector 31783  IntersectionExampleScenario.node[39].veinsmobility  posy  ETV
vector 31777  IntersectionExampleScenario.node[38].veinsmobility  speed  ETV
vector 31778  IntersectionExampleScenario.node[38].veinsmobility  acceleration  ETV
vector 31779  IntersectionExampleScenario.node[38].veinsmobility  co2emission  ETV
vector 31784  IntersectionExampleScenario.node[39].veinsmobility  speed  ETV
vector 31785  IntersectionExampleScenario.node[39].veinsmobility  acceleration  ETV
vector 31786  IntersectionExampleScenario.node[39].veinsmobility  co2emission  ETV
31604	696386 11658 2054 14236 52.25 149 388 0.973 10.756497587458 704.26508638451 2516.1665014983
31603	708044 11906 2054 14236 52.25 149 388 -3.6481757164001 2.5 33.079023361206 317.97639979176
31602	719950 11853 2033 14236 52 149 389 0 14.39999961853 2235.7950539701 27500.498979244
31601	731803 13198 2012 14236 51.75 149 390 235.53582763672 486.85000610352 180616.49676514 84980247.89567
31600	745001 13172 2012 14236 51.75 149 390 482.9289855957 792.02921295166 212065.83202362 117567053.54077
31618	758173 11327 2656 14484 59.5 151 367 0.973 11.36141391502 739.06489460247 3013.5033692948
31617	769500 11558 2656 14484 59.5 151 367 -3.7191162109375 2.5000019073486 36.813589096069 418.14805233442
31616	781058 11425 2633 14484 59.25 151 368 0 15.25 2183.1499166777 28279.706897138
31615	792483 12503 2610 14484 59 151 369 486.85000610352 732.77926635742 188007.24055481 96968264.96252
31614	804986 12502 2610 14484 59 151 369 486.83380126953 785.82187652588 201734.14247894 112264004.87428
31625	817488 11096 3158 14732 65 153 353 0.973 11.200708441096 732.16450172528 2988.7011173876
31624	828584 11449 3158 14732 65 153 353 -5.043140411377 2.5000009536743 36.98334312439 413.73401196143
31623	840033 11355 3133 14732 64.75 153 354 0 15.02499961853 2207.7953471001 28518.759252927
31622	851388 12080 3110 14732 64.5 153 355 236.42785644531 486.85000610352 164202.6730957 77180227.732452
31621	863468 12051 3110 14732 64.5 153 355 482.96264648438 785.82187652588 195501.25566864 109604940.90822
vector 31789  IntersectionExampleScenario.node[40].veinsmobility  posx  ETV
vector 31790  IntersectionExampleScenario.node[40].veinsmobility  posy  ETV
vector 31791  IntersectionExampleScenario.node[40].veinsmobility  speed  ETV
vector 31792  IntersectionExampleScenario.node[40].veinsmobility  acceleration  ETV
vector 31793  IntersectionExampleScenario.node[40].veinsmobility  co2emission  ETV
31639	875920 10780 3214 15078 65.5 155.75 362 0.973 11.36141391502 761.12712784039 3199.4266724244
31638	886700 10950 3214 15078 65.5 155.75 362 -4.5 2.5 36.134572982788 579.55987420896
31637	897650 10587 3185 15078 65.25 155.75 363 0 15.25 2281.9401528239 28940.08076121
31636	908237 12397 3158 15078 65 155.75 364 486.85000610352 733.63021850586 185712.08395386 95947885.104495
31635	920634 12372 3158 15078 65 155.75 364 486.85000610352 809.56562805176 204039.16970825 116727764.60376
31695	933006 8496 6161 15313 87.75 157.75 281 0.973 11.450879080643 654.39437715415 3073.105560591
31694	941502 8136 6161 15313 87.75 157.75 281 -3.9938917160034 2.5000001192093 36.813589096069 404.61420168799
31693	949638 8436 6118 15313 87.5 157.75 282 0 15.375 2200.4569152612 27994.578813069
31692	958074 9745 6075 15313 87.25 157.75 283 238.35467529297 486.85000610352 129271.20892334 60203342.852154
31691	967819 9736 6075 15313 87.25 157.75 283 483.14999389648 785.82187652588 159014.01212311 91199624.211385
31744	977555 6174 10074 15672 114.5 161 187 0.973 10.916047529558 566.53975082644 2933.8880620399
31743	983729 5987 10074 15672 114.5 161 187 -4.1593475341797 2.5 34.77654838562 390.83677523513
31742	989716 6265 10037 15672 114.25 161 188 5.6500000953674 14.625 2182.5981154442 27067.992164062
31741	995981 6608 10000 15672 114 161 189 486.85000610352 733.15054321289 100683.54447937 54659007.886092
31740	1002589 6597 10000 15672 114 161 189 486.85000610352 785.82187652588 107975.05363464 63501798.348206
vector 31796  IntersectionExampleScenario.node[41].veinsmobility  posx  ETV
vector 31797  IntersectionExampleScenario.node[41].veinsmobility  posy  ETV
vector 31798  IntersectionExampleScenario.node[41].veinsmobility  speed  ETV
vector 31799  IntersectionExampleScenario.node[41].veinsmobility  acceleration  ETV
vector 31800  IntersectionExampleScenario.node[41].veinsmobility  co2emission  ETV
31597	1009587 13032 1879 16586 50 170.5 483 0.973 12.099024792222 870.39661025535 3506.8647964628
31596	1022619 11160 1879 16586 50 170.5 483 -9.2126979827881 4 41.396924972534 521.82273223514
31595	1033779 11681 1860 16586 49.75 170.5 484 0 16.27499961853 2194.9300296307 32233.511931395
31594	1045460 16483 1841 16586 49.5 170.5 485 184.17810058594 486.85000610352 217297.40390015 99662528.456727
31593	1061943 16511 1841 16586 49.5 170.5 485 239.17236328125 486.85000610352 228240.6831665 108580495.90364
vector 31803  IntersectionExampleScenario.node[42].veinsmobility  posx  ETV
vector 31804  IntersectionExampleScenario.node[42].veinsmobility  posy  ETV
vector 31805  IntersectionExampleScenario.node[42].veinsmobility  speed  ETV
vector 31806  IntersectionExampleScenario.node[42].veinsmobility  acceleration  ETV
vector 31807  IntersectionExampleScenario.node[42].veinsmobility  co2emission  ETV
31702	1078855 9476 7536 16795 96.5 172.75 306 0.973 11.648172402475 665.29802047675 2979.9426599071
31701	1088331 9633 7536 16795 96.5 172.75 306 -3.7288765907288 2.5 38.341367721558 340.2546138921
31700	1097964 9676 7497 16795 96.25 172.75 307 0 15.64999961853 2184.4279722543 28751.38894844
31699	1107640 10612 7460 16795 96 172.75 308 184.17810058594 483.14999389648 131666.34753418 58352788.425019
31698	1118252 10682 7460 16795 96 172.75 308 486.85000610352 733.05174255371 158129.76786804 82306357.868878
vector 31810  IntersectionExampleScenario.node[43].veinsmobility  posx  ETV
vector 31811  IntersectionExampleScenario.node[43].veinsmobility  posy  ETV
vector 31812  IntersectionExampleScenario.node[43].veinsmobility  speed  ETV
vector 31813  IntersectionExampleScenario.node[43].veinsmobility  acceleration  ETV
vector 31814  IntersectionExampleScenario.node[43].veinsmobility  co2emission  ETV
vector 31817  IntersectionExampleScenario.node[44].veinsmobility  posx  ETV
vector 31818  IntersectionExampleScenario.node[44].veinsmobility  posy  ETV
31716	1129489 9773 7954 16992 99.25 175 304 0.973 11.54047740176 667.32312280313 2904.0226560847
31715	1139262 10377 7954 16992 99.25 175 304 -4.5 2.5 36.98334312439 382.58698130133
31714	1149639 10319 7915 16992 99 175 305 0 15.5 2272.2159871645 29442.085995588
31713	1159958 10591 7876 16992 98.75 175 306 169.95465087891 733.48934936523 136642.3603363 65590795.750145
31712	1170549 10643 7876 16992 98.75 175 306 486.85000610352 486.85000610352 148976.10186768 72529016.103556
vector 31819  IntersectionExampleScenario.node[44].veinsmobility  speed  ETV
vector 31820  IntersectionExampleScenario.node[44].veinsmobility  acceleration  ETV
vector 31821  IntersectionExampleScenario.node[44].veinsmobility  co2emission  ETV
31737	1181439 8263 9790 17192 112.5 177 259 0.973 11.90022389248 623.17009000465 3075.2094247906
31736	1189702 8721 9790 17192 112.5 177 259 -3.7837553024292 2.5 39.020376205444 336.47634947816
31735	1198423 8783 9755 17192 112.25 177 260 0 16 2213.4169667307 28839.001577181
31734	1207206 9093 9720 17192 112 177 261 184.17810058594 486.88092041016 108535.56851196 47058201.541866
31733	1216299 9122 9720 17192 112 177 261 235.65576171875 486.85000610352 118677.29498291 55097670.565331
vector 31824  IntersectionExampleScenario.node[45].veinsmobility  posx  ETV
vector 31825  IntersectionExampleScenario.node[45].veinsmobility  posy  ETV
vector 31826  IntersectionExampleScenario.node[45].veinsmobility  speed  ETV
vector 31827  IntersectionExampleScenario.node[45].veinsmobility  acceleration  ETV
vector 31828  IntersectionExampleScenario.node[45].veinsmobility  co2emission  ETV
vector 31831  IntersectionExampleScenario.node[46].veinsmobility  posx  ETV
vector 31832  IntersectionExampleScenario.node[46].veinsmobility  posy  ETV
vector 31833  IntersectionExampleScenario.node[46].veinsmobility  speed  ETV
vector 31834  IntersectionExampleScenario.node[46].veinsmobility  acceleration  ETV
vector 31835  IntersectionExampleScenario.node[46].veinsmobility  co2emission  ETV
31765	1226223 5209 13866 17889 145.5 183.5 153 0.973 11.36141391502 479.96506605064 2568.1681707689
31764	1231432 4809 13866 17889 145.5 183.5 153 -4.3144493103027 2.5 37.15309715271 276.50483820809
31763	1236241 5074 13841 17889 145.25 183.5 154 5.6500000953674 15.25 2055.0166683197 28638.963434543
31762	1241315 5397 13816 17889 145 183.5 155 216.078125 483.19268798828 63536.14276123 27363387.458453
31761	1246712 5414 13816 17889 145 183.5 155 486.85000610352 733.40086364746 83816.635635376 46243495.742987
31751	1252126 5704 13683 18116 143.5 185.5 169 0.973 10.916047529558 542.17476557891 2838.1598520454
31750	1257830 5100 13683 18116 143.5 185.5 169 -4.5 2.5 38.341367721558 387.19072734817
31749	1262930 5647 13660 18116 143.25 185.5 170 4.9343056678772 15.268931388855 2186.9702467918 30058.787737122
31748	1268577 5952 13637 18116 143 185.5 171 184.17810058594 483.14999389648 66674.054962158 27996667.416134
31747	1274529 5977 13637 18116 143 185.5 171 486.85000610352 734.01692199707 91501.934143066 49918806.872941
vector 31838  IntersectionExampleScenario.node[47].veinsmobility  posx  ETV
vector 31839  IntersectionExampleScenario.node[47].veinsmobility  posy  ETV
vector 31840  IntersectionExampleScenario.node[47].veinsmobility  speed  ETV
vector 31841  IntersectionExampleScenario.node[47].veinsmobility  acceleration  ETV
vector 31842  IntersectionExampleScenario.node[47].veinsmobility  co2emission  ETV
vector 31845  IntersectionExampleScenario.node[48].veinsmobility  posx  ETV
vector 31846  IntersectionExampleScenario.node[48].veinsmobility  posy  ETV
vector 31847  IntersectionExampleScenario.node[48].veinsmobility  speed  ETV
vector 31848  IntersectionExampleScenario.node[48].veinsmobility  acceleration  ETV
vector 31849  IntersectionExampleScenario.node[48].veinsmobility  co2emission  ETV
31772	1281308 5455 14145 18389 148.25 188 160 0.973 11.990504229548 527.71833917494 2761.8311199189
31771	1286763 5244 14145 18389 148.25 188 160 -4.5 2.5 41.057416915894 250.71209473431
31770	1292007 5394 14118 18389 148 188 161 5.6500000953674 16.125 2309.1407814026 33996.67237572
31769	1297401 5656 14091 18389 147.75 188 162 162.19036865234 734.14283752441 70488.98425293 35270553.008521
31768	1303057 5669 14091 18389 147.75 188 162 486.85000610352 486.85000610352 78869.70098877 38397714.407765
31758	1308726 5914 13793 18418 144.75 188.25 175 0.973 11.00486315618 527.92874863855 2688.8807253764
31757	1314640 5766 13793 18418 144.75 188.25 175 -4.5 2.5 35.625318527222 285.45637684048
31756	1320406 5884 13770 18418 144.5 188.25 176 5.6500000953674 14.780135154724 2296.2269878387 30929.796246795
31755	1326290 6179 13747 18418 144.25 188.25 177 162.90466308594 486.85000610352 68072.372436523 28534241.345787
31754	1332469 6190 13747 18418 144.25 188.25 177 235.90979003906 486.85000610352 77328.037872314 34821442.469793
vector 31852  IntersectionExampleScenario.node[49].veinsmobility  posx  ETV
vector 31853  IntersectionExampleScenario.node[49].veinsmobility  posy  ETV
vector 31854  IntersectionExampleScenario.node[49].veinsmobility  speed  ETV
vector 31859  IntersectionExampleScenario.node[50].veinsmobility  posx  ETV
vector 31860  IntersectionExampleScenario.node[50].veinsmobility  posy  ETV
vector 31855  IntersectionExampleScenario.node[49].veinsmobility  acceleration  ETV
vector 31856  IntersectionExampleScenario.node[49].veinsmobility  co2emission  ETV
vector 31861  IntersectionExampleScenario.node[50].veinsmobility  speed  ETV
vector 31862  IntersectionExampleScenario.node[50].veinsmobility  acceleration  ETV
vector 31863  IntersectionExampleScenario.node[50].veinsmobility  co2emission  ETV
vector 31866  IntersectionExampleScenario.node[51].veinsmobility  posx  ETV
vector 31867  IntersectionExampleScenario.node[51].veinsmobility  posy  ETV
vector 31868  IntersectionExampleScenario.node[51].veinsmobility  speed  ETV
vector 31869  IntersectionExampleScenario.node[51].veinsmobility  acceleration  ETV
vector 31870  IntersectionExampleScenario.node[51].veinsmobility  co2emission  ETV
vector 31873  IntersectionExampleScenario.node[52].veinsmobility  posx  ETV
vector 31874  IntersectionExampleScenario.node[52].veinsmobility  posy  ETV
vector 31875  IntersectionExampleScenario.node[52].veinsmobility  speed  ETV
vector 31876  IntersectionExampleScenario.node[52].veinsmobility  acceleration  ETV
vector 31877  IntersectionExampleScenario.node[52].veinsmobility  co2emission  ETV
vector 31880  IntersectionExampleScenario.node[53].veinsmobility  posx  ETV
vector 31881  IntersectionExampleScenario.node[53].veinsmobility  posy  ETV
vector 31882  IntersectionExampleScenario.node[53].veinsmobility  speed  ETV
vector 31883  IntersectionExampleScenario.node[53].veinsmobility  acceleration  ETV
vector 31884  IntersectionExampleScenario.node[53].veinsmobility  co2emission  ETV
31653	1340664 13717 4320 19796 75 200.5 503 0.973 11.90022389248 877.78552070474 3387.0804652935
31652	1354381 12258 4320 19796 75 200.5 503 -7.80859375 4 40.038900375366 504.44179149088
31651	1366639 12299 4289 19796 74.75 200.5 504 0 16 2176.8480913639 31488.49298171
31650	1378938 17413 4258 19796 74.5 200.5 505 483.14999389648 731.74800109863 252084.11451721 127045411.39937
31649	1396351 17384 4258 19796 74.5 200.5 505 184.17810058594 486.85000610352 226572.77490234 103991387.10076
vector 31887  IntersectionExampleScenario.node[54].veinsmobility  posx  ETV
vector 31888  IntersectionExampleScenario.node[54].veinsmobility  posy  ETV
31667	1413889 13954 4912 19999 79.5 202.25 492 0.973 12.099024792222 867.43997761367 3442.3054923448
31666	1427843 13199 4912 19999 79.5 202.25 492 -3.9712038040161 2.5 40.378400802612 405.93023199863
31665	1441042 13086 4877 19999 79.25 202.25 493 0 16.27499961853 2179.9185315045 30627.479865721
31664	1454128 17056 4842 19999 79 202.25 494 238.07513427734 483.14999389648 230816.59225464 109000569.3114
31663	1471184 17031 4842 19999 79 202.25 494 184.17810058594 483.14999389648 218886.49539185 99188962.917069
vector 31889  IntersectionExampleScenario.node[54].veinsmobility  speed  ETV
vector 31890  IntersectionExampleScenario.node[54].veinsmobility  acceleration  ETV
vector 31891  IntersectionExampleScenario.node[54].veinsmobility  co2emission  ETV
vector 31894  IntersectionExampleScenario.node[55].veinsmobility  posx  ETV
vector 31895  IntersectionExampleScenario.node[55].veinsmobility  posy  ETV
vector 31896  IntersectionExampleScenario.node[55].veinsmobility  speed  ETV
vector 31897  IntersectionExampleScenario.node[55].veinsmobility  acceleration  ETV
vector 31898  IntersectionExampleScenario.node[55].veinsmobility  co2emission  ETV
vector 31901  IntersectionExampleScenario.node[56].veinsmobility  posx  ETV
vector 31902  IntersectionExampleScenario.node[56].veinsmobility  posy  ETV
vector 31903  IntersectionExampleScenario.node[56].veinsmobility  speed  ETV
vector 31904  IntersectionExampleScenario.node[56].veinsmobility  acceleration  ETV
vector 31905  IntersectionExampleScenario.node[56].veinsmobility  co2emission  ETV
31709	1489264 12841 7575 20397 96.75 205.25 435 0.973 11.200708441096 775.9005700555 2868.0276912109
31708	1502105 12634 7575 20397 96.75 205.25 435 -3.9062542915344 2.5000009536743 36.134572982788 320.78871550742
31707	1514739 12662 7536 20397 96.5 205.25 436 0 15.02499961853 2205.8292222293 28226.100518775
31706	1527401 15207 7497 20397 96.25 205.25 437 483.14999389648 732.49620056152 219801.59204102 111823932.58748
31705	1542608 15164 7497 20397 96.25 205.25 437 184.17810058594 486.85000610352 189976.93444824 84762653.380008
vector 31908  IntersectionExampleScenario.node[57].veinsmobility  posx  ETV
vector 31909  IntersectionExampleScenario.node[57].veinsmobility  posy  ETV
vector 31910  IntersectionExampleScenario.node[57].veinsmobility  speed  ETV
vector 31911  IntersectionExampleScenario.node[57].veinsmobility  acceleration  ETV
vector 31912  IntersectionExampleScenario.node[57].veinsmobility  co2emission  ETV
31723	1558173 11875 9383 20753 109.5 207.75 394 0.973 11.648172402475 759.87674455938 3142.7732564202
31722	1570048 11775 9383 20753 109.5 207.75 394 -3.7774946689606 2.5 38.341367721558 355.56413123557
31721	1581823 11900 9350 20753 109.25 207.75 395 0 15.64999961853 2190.6311057257 28300.711950213
31720	1593723 13835 9317 20753 109 207.75 396 235.71166992188 483.14999389648 183056.75238037 85806703.530623
31719	1607558 13790 9317 20753 109 207.75 396 184.17810058594 483.26028442383 169588.1701355 74651623.902043
31730	1621348 12263 9618 20938 111.25 209 392 0.973 11.648172402475 793.32226620598 3238.2420913791
31729	1633611 12495 9618 20938 111.25 209 392 -4.5 2.5 40.038900375366 442.14411421251
31728	1646106 12367 9583 20938 111 209 393 0 15.72082901001 2285.5386635605 30380.923264459
31727	1658473 13768 9548 20938 110.75 209 394 483.14999389648 732.97596740723 198567.29107666 101264715.37895
31726	1672241 13739 9548 20938 110.75 209 394 164.94219970703 486.85000610352 165833.63720703 72132009.058842
31793	1685980 7288 15015 21345 155.25 211.75 227 0.973 11.200708441096 575.15879423424 2780.3153328834
31792	1693268 7450 15015 21345 155.25 211.75 227 -4.0377731323242 2.5 35.625318527222 341.77453142109
31791	1700718 7727 14982 21345 155 211.75 228 0 15.02499961853 2215.6662665457 28206.988628091
31790	1708445 8016 14949 21345 154.75 211.75 229 483.14999389648 483.14999389648 110641.34860229 53456366.901897
31789	1716461 7971 14949 21345 154.75 211.75 229 184.17810058594 732.58279418945 101665.19010925 49428743.944835
vector 31915  IntersectionExampleScenario.node[58].veinsmobility  posx  ETV
vector 31916  IntersectionExampleScenario.node[58].veinsmobility  posy  ETV
vector 31917  IntersectionExampleScenario.node[58].veinsmobility  speed  ETV
vector 31918  IntersectionExampleScenario.node[58].veinsmobility  acceleration  ETV
vector 31919  IntersectionExampleScenario.node[58].veinsmobility  co2emission  ETV
31807	1724833 5609 16681 21616 171.5 213.5 169 0.973 11.648172402475 534.81135776954 2916.8699525707
31806	1730442 5409 16681 21616 171.5 213.5 169 -3.223461151123 2.5 38.511121749878 273.85286107653
31805	1735851 5727 16657 21616 171.25 213.5 170 5.6500000953674 15.64999961853 2225.1230096817 30298.700669339
31804	1741578 5984 16632 21616 171 213.5 171 483.14999389648 483.14999389648 82618.648956299 39917199.738971
31803	1747562 5951 16632 21616 171 213.5 171 184.17810058594 734.9267578125 76256.936035156 38209976.748498
vector 31922  IntersectionExampleScenario.node[59].veinsmobility  posx  ETV
vector 31923  IntersectionExampleScenario.node[59].veinsmobility  posy  ETV
vector 31924  IntersectionExampleScenario.node[59].veinsmobility  speed  ETV
vector 31925  IntersectionExampleScenario.node[59].veinsmobility  acceleration  ETV
vector 31926  IntersectionExampleScenario.node[59].veinsmobility  co2emission  ETV
vector 31929  IntersectionExampleScenario.node[60].veinsmobility  posx  ETV
vector 31930  IntersectionExampleScenario.node[60].veinsmobility  posy  ETV
vector 31931  IntersectionExampleScenario.node[60].veinsmobility  speed  ETV
vector 31932  IntersectionExampleScenario.node[60].veinsmobility  acceleration  ETV
vector 31933  IntersectionExampleScenario.node[60].veinsmobility  co2emission  ETV
vector 31936  IntersectionExampleScenario.node[61].veinsmobility  posx  ETV
vector 31937  IntersectionExampleScenario.node[61].veinsmobility  posy  ETV
vector 31938  IntersectionExampleScenario.node[61].veinsmobility  speed  ETV
vector 31939  IntersectionExampleScenario.node[61].veinsmobility  acceleration  ETV
vector 31940  IntersectionExampleScenario.node[61].veinsmobility  co2emission  ETV
31835	1754716 6273 17860 23983 183.25 231.25 193 0.973 11.648172402475 560.94041258103 2902.5602217118
31834	1760989 5773 17860 23983 183.25 231.25 193 -7.4922199249268 4 38.171613693237 479.41769177267
31833	1766762 6104 17831 23983 183 231.25 194 0 15.64999961853 2175.1207141876 30519.901571347
31832	1772866 6814 17802 23983 182.75 231.25 195 486.63604736328 785.82187652588 109194.24947357 63037384.308368
31831	1779680 6750 17802 23983 182.75 231.25 195 237.46997070312 483.14999389648 86045.462402344 38959717.92294
vector 31943  IntersectionExampleScenario.node[62].veinsmobility  posx  ETV
vector 31944  IntersectionExampleScenario.node[62].veinsmobility  posy  ETV
vector 31945  IntersectionExampleScenario.node[62].veinsmobility  speed  ETV
vector 31946  IntersectionExampleScenario.node[62].veinsmobility  acceleration  ETV
vector 31947  IntersectionExampleScenario.node[62].veinsmobility  co2emission  ETV
31849	1786831 6190 18360 24312 187.75 234 186 0.973 11.648172402475 546.23606021246 2858.9608768107
31848	1793021 5968 18360 24312 187.75 234 186 -4.5 2.5 38.341367721558 431.54039955125
31847	1798989 6284 18331 24312 187.5 234 187 0 15.64999961853 2092.6369312722 28803.638376253
31846	1805273 6563 18302 24312 187.25 234 188 486.74063110352 762.80078887939 104107.43830872 59156096.771866
31845	1811836 6573 18302 24312 187.25 234 188 236.27056884766 483.14999389648 82601.943054199 37282261.217247
vector 31950  IntersectionExampleScenario.node[63].veinsmobility  posx  ETV
vector 31951  IntersectionExampleScenario.node[63].veinsmobility  posy  ETV
vector 31952  IntersectionExampleScenario.node[63].veinsmobility  speed  ETV
vector 31953  IntersectionExampleScenario.node[63].veinsmobility  acceleration  ETV
vector 31954  IntersectionExampleScenario.node[63].veinsmobility  co2emission  ETV
31842	1818810 6501 18275 24607 187 236.25 198 0.973 11.36141391502 591.93463987981 3023.646600838
31841	1825311 6351 18275 24607 187 236.25 198 -4.5 2.5000009536743 39.699392318726 457.64263828359
31840	1831662 6640 18248 24607 186.75 236.25 199 0 15.633333206177 2215.6799531579 29862.911745275
31839	1838302 6986 18221 24607 186.5 236.25 200 486.85000610352 793.78281402588 113838.18245697 66874915.05025
31838	1845288 6991 18221 24607 186.5 236.25 200 236.62939453125 483.14999389648 88594.877166748 40237784.392329
31856	1852279 6366 18748 25003 191.25 239.25 193 0.973 11.36141391502 556.75602151142 2825.6723764617
31855	1858645 6294 18748 25003 191.25 239.25 193 -4.5 2.5 37.32285118103 342.41971301128
31854	1864939 6471 18720 25003 191 239.25 194 4.2530674934387 15.323732376099 2241.5090498924 29181.182012234
31853	1871410 6804 18691 25003 190.75 239.25 195 486.73876953125 798.41442108154 111373.29705048 65618603.381308
31852	1878214 6822 18691 25003 190.75 239.25 195 235.06744384766 483.14999389648 85773.001983643 38754475.610111
31877	1885036 5558 19467 25136 197.5 240.25 172 0.973 11.36141391502 539.56529238033 2897.1157743292
31876	1890594 5744 19467 25136 197.5 240.25 172 -4.2372169494629 2.5 43.687238693237 251.27717877468
31875	1896338 5730 19438 25136 197.25 240.25 173 5.6500000953674 16.677793502808 2187.8627605438 30156.144329295
31874	1902068 6084 19409 25136 197 240.25 174 486.7350769043 785.82187652588 99148.194725037 58236970.625503
31873	1908152 6070 19409 25136 197 240.25 174 236.62225341797 483.14999389648 76302.779022217 34378871.819673
vector 31957  IntersectionExampleScenario.node[64].veinsmobility  posx  ETV
vector 31958  IntersectionExampleScenario.node[64].veinsmobility  posy  ETV
vector 31959  IntersectionExampleScenario.node[64].veinsmobility  speed  ETV
vector 31960  IntersectionExampleScenario.node[64].veinsmobility  acceleration  ETV
vector 31961  IntersectionExampleScenario.node[64].veinsmobility  co2emission  ETV
31905	1914623 4907 20327 25474 204.75 242.75 153 0.973 12.099024792222 489.30383215034 2942.8518786604
31904	1919530 4812 20327 25474 204.75 242.75 153 -2.7806854248047 2.5 41.057416915894 245.88753072385
31903	1924342 5062 20292 25474 204.5 242.75 154 5.6500000953674 16.27499961853 2061.6953754425 29160.052866214
31902	1929404 5417 20257 25474 204.25 242.75 155 486.85000610352 753.92188262939 86765.164741516 49860692.131593
31901	1934821 5411 20257 25474 204.25 242.75 155 235.42694091797 483.14999389648 66933.346679688 29802420.871216
vector 31964  IntersectionExampleScenario.node[65].veinsmobility  posx  ETV
vector 31965  IntersectionExampleScenario.node[65].veinsmobility  posy  ETV
vector 31966  IntersectionExampleScenario.node[65].veinsmobility  speed  ETV
vector 31967  IntersectionExampleScenario.node[65].veinsmobility  acceleration  ETV
vector 31968  IntersectionExampleScenario.node[65].veinsmobility  co2emission  ETV
31891	1940633 5688 20061 25762 202.75 244.75 169 0.973 11.257993440526 517.22558720435 2679.5720855798
31890	1946321 5495 20061 25762 202.75 244.75 169 -4.7900695800781 2.5 35.625318527222 361.47268680822
31889	1951816 5728 20030 25762 202.5 244.75 170 4.8999996185303 15.105271339417 2217.6088452339 30102.539570533
31888	1957544 5970 19999 25762 202.25 244.75 171 236.22039794922 785.82187652588 90812.312026978 52936271.676384
31887	1963514 5987 19999 25762 202.25 244.75 171 483.14999389648 483.14999389648 82618.648956299 39917199.738971
vector 31971  IntersectionExampleScenario.node[66].veinsmobility  posx  ETV
vector 31972  IntersectionExampleScenario.node[66].veinsmobility  posy  ETV
vector 31973  IntersectionExampleScenario.node[66].veinsmobility  speed  ETV
31898	1969733 5612 20158 25912 203.5 245.75 170 0.973 11.850750972108 527.48691076415 2614.1664600498
31897	1975345 5840 20158 25912 203.5 245.75 170 -4.5 2.5 41.125677108765 217.22077910952
31896	1981185 5820 20125 25912 203.25 245.75 171 5.6500000953674 15.931419372559 2302.6327571869 31976.702352672
31895	1987005 6003 20092 25912 203 245.75 172 238.72955322266 808.82032012939 92795.683418274 55081805.950886
31894	1993008 6020 20092 25912 203 245.75 172 483.14999389648 483.14999389648 83101.798950195 40150633.655574
vector 31974  IntersectionExampleScenario.node[66].veinsmobility  acceleration  ETV
vector 31975  IntersectionExampleScenario.node[66].veinsmobility  co2emission  ETV
vector 31978  IntersectionExampleScenario.node[67].veinsmobility  posx  ETV
vector 31979  IntersectionExampleScenario.node[67].veinsmobility  posy  ETV
vector 31980  IntersectionExampleScenario.node[67].veinsmobility  speed  ETV
vector 31981  IntersectionExampleScenario.node[67].veinsmobility  acceleration  ETV
vector 31982  IntersectionExampleScenario.node[67].veinsmobility  co2emission  ETV
31779	1999598 12841 14205 27991 148.75 262.25 455 0.973 11.648172402475 820.62135187118 3214.6296654394
31778	2012439 11521 14205 27991 148.75 262.25 455 -9.1082611083984 4 38.341367721558 514.65564028584
31777	2023960 11652 14174 27991 148.5 262.25 456 0 15.64999961853 2211.2558965683 31446.078303673
31776	2035612 15996 14145 27991 148.25 262.25 457 486.85000610352 486.85000610352 222490.45278931 108319478.29845
31775	2051608 15980 14145 27991 148.25 262.25 457 236.58178710938 785.82187652588 231359.08438873 121322896.18497
vector 31985  IntersectionExampleScenario.node[68].veinsmobility  posx  ETV
vector 31986  IntersectionExampleScenario.node[68].veinsmobility  posy  ETV
vector 31987  IntersectionExampleScenario.node[68].veinsmobility  speed  ETV
vector 31988  IntersectionExampleScenario.node[68].veinsmobility  acceleration  ETV
vector 31989  IntersectionExampleScenario.node[68].veinsmobility  co2emission  ETV
31786	2067989 13477 14236 28163 149 263.75 460 0.973 11.450879080643 831.37415693792 3102.8712426687
31785	2081466 12485 14236 28163 149 263.75 460 -4.5 2.5 37.832105636597 443.6072545836
31784	2093951 12617 14205 28163 148.75 263.75 461 0 15.375 2307.4439633777 31611.529490056
31783	2106568 16151 14174 28163 148.5 263.75 462 236.25323486328 486.85000610352 216413.65176392 102639030.16725
31782	2122719 16144 14174 28163 148.5 263.75 462 483.13436889648 810.23281097412 246830.6427536 134824059.03254
31800	2138863 11627 16540 28475 170 266.5 387 0.973 11.648172402475 748.4050545386 3099.9756193137
31799	2150490 11507 16540 28475 170 266.5 387 -3.6910846233368 2.5000004768372 38.171613693237 355.33056223568
31798	2161997 11590 16517 28475 169.75 266.5 388 0 15.64999961853 2182.6301104613 28491.084532263
31797	2173587 13605 16494 28475 169.5 266.5 389 486.85000610352 732.36633300781 197539.80130005 101473528.29977
31796	2187192 13599 16494 28475 169.5 266.5 389 486.85000610352 785.82187652588 209436.89180756 114846283.52239
31814	2200791 11712 16946 28734 174.5 269 379 0.973 11.648172402475 751.92898646154 3112.5768825015
31813	2212503 11904 16946 28734 174.5 269 379 -4.5 2.5 39.699392318726 389.48632379754
31812	2224407 11798 16923 28734 174.25 269 380 0 15.64999961853 2189.3921422279 28630.309703807
31811	2236205 13329 16900 28734 174 269 381 486.85000610352 734.45658874512 193603.46574402 99538828.61348
31810	2249534 13311 16900 28734 174 269 381 486.85000610352 785.82187652588 206891.56847382 114341097.4799
31863	2262845 10019 18806 28909 191.75 270.75 317 0.973 11.648172402475 704.53222524438 3159.0108130525
31862	2272864 10524 18806 28909 191.75 270.75 317 -3.9191932678223 2.5 41.396924972534 350.73282736233
31861	2283388 10360 18777 28909 191.5 270.75 318 0 16.043130874634 2190.3606769098 29022.780278414
31860	2293748 11159 18748 28909 191.25 270.75 319 486.85000610352 734.07977294922 163198.23556519 84589175.731627
31859	2304907 11027 18748 28909 191.25 270.75 319 486.85000610352 785.82187652588 175552.46678925 98499990.509041
31870	2315934 10694 18926 29184 192.75 273.5 324 0.973 11.810082123732 710.76238717296 3188.616420878
31869	2326628 11038 18926 29184 192.75 273.5 324 -4.5 2.5 38.511121749878 466.60343661312
31868	2337666 10996 18895 29184 192.5 273.5 325 0 15.875 2269.6724640345 29349.592278203
31867	2348662 11403 18864 29184 192.25 273.5 326 486.85000610352 731.67916870117 166782.1759491 86438722.070617
31866	2360065 11384 18864 29184 192.25 273.5 326 486.71557617188 807.99687957764 182076.63937378 103980099.72132
31912	2371449 8410 20716 29359 207.5 275.25 272 0.973 11.200708441096 622.22705058311 2824.5247678888
31911	2379859 8672 20716 29359 207.5 275.25 272 -3.8258130550385 2.5000009536743 35.795072555542 368.11732488031
31910	2388531 8737 20679 29359 207.25 275.25 273 0 15.02499961853 2215.1413417757 27948.144143721
31909	2397268 9589 20642 29359 207 275.25 274 486.85000610352 486.85000610352 133396.90167236 64944282.39338
31908	2406857 9559 20642 29359 207 275.25 274 237.24078369141 785.82187652588 145206.08315277 81264485.755222
vector 31992  IntersectionExampleScenario.node[69].veinsmobility  posx  ETV
vector 31993  IntersectionExampleScenario.node[69].veinsmobility  posy  ETV
vector 31994  IntersectionExampleScenario.node[69].veinsmobility  speed  ETV
vector 31995  IntersectionExampleScenario.node[69].veinsmobility  acceleration  ETV
vector 31996  IntersectionExampleScenario.node[69].veinsmobility  co2emission  ETV
31961	2416817 5512 25404 30006 242.25 282.5 162 0.973 11.36141391502 496.22625263484 2632.4068637382
31960	2422329 5374 25404 30006 242.25 282.5 162 -3.6650657653809 2.5 36.813589096069 277.28581300829
31959	2427703 5385 25369 30006 242 282.5 163 5.6500000953674 15.25 2181.1818256378 30405.071599367
31958	2433088 5731 25334 30006 241.75 282.5 164 486.85000610352 732.68576049805 88196.162612915 48370355.684532
31957	2438819 5734 25334 30006 241.75 282.5 164 486.81814575195 785.82187652588 93881.777275085 55506412.932382
31968	2444553 5308 25688 30025 244.25 282.75 155 0.973 11.990504229548 543.24119372639 3098.2502674018
31967	2449861 4633 25688 30025 244.25 282.75 155 -4.5 2.5 41.566686630249 311.05666691755
31966	2454494 5184 25651 30025 244 282.75 156 5.6500000953674 16.125 2285.780122757 34343.273758046
31965	2459678 5496 25614 30025 243.75 282.75 157 486.85000610352 486.85000610352 76435.450958252 37212599.76555
31964	2465174 5473 25614 30025 243.75 282.75 157 238.50634765625 803.92188262939 83665.012268066 48954763.122721
vector 31999  IntersectionExampleScenario.node[70].veinsmobility  posx  ETV
vector 32000  IntersectionExampleScenario.node[70].veinsmobility  posy  ETV
vector 32001  IntersectionExampleScenario.node[70].veinsmobility  speed  ETV
vector 32002  IntersectionExampleScenario.node[70].veinsmobility  acceleration  ETV
vector 32003  IntersectionExampleScenario.node[70].veinsmobility  co2emission  ETV
31821	2471048 13106 17042 30764 175.5 292 467 0.973 11.90022389248 843.48957793759 3370.7413645604
31820	2484154 11713 17042 30764 175.5 292 467 -7.0115804672241 4 39.699392318726 488.96060846165
31819	2495867 11871 17017 30764 175.25 292 468 0 16 2217.6392970085 32059.248324444
31818	2507738 16382 16992 30764 175 292 469 184.17810058594 734.53973388672 217607.73828125 105126460.21828
31817	2524120 16413 16992 30764 175 292 469 486.85000610352 486.85000610352 228332.65286255 111163753.43976
31828	2540533 13398 17396 30890 179 293.5 459 0.973 11.648172402475 824.21017142408 3171.268944045
31827	2553931 12669 17396 30890 179 293.5 459 -4.168586730957 2.5 38.511121749878 396.2935299503
31826	2566600 12690 17369 30890 178.75 293.5 460 0 15.64999961853 2240.81386902 31008.11694082
31825	2579290 16105 17342 30890 178.5 293.5 461 174.53436279297 486.86563110352 202817.37506104 91670591.867893
31824	2595395 16114 17342 30890 178.5 293.5 461 237.92022705078 486.85000610352 216123.63284302 102550823.30296
31919	2611509 10290 21460 31058 212.5 295.5 333 0.973 11.648172402475 696.2972587068 3049.9070721827
31918	2621799 10415 21460 31058 212.5 295.5 333 -3.8630368709564 2.5000009536743 38.511121749878 341.03123756279
31917	2632214 10543 21421 31058 212.25 295.5 334 0 15.64999961853 2220.2393258009 29600.792660152
31916	2642757 11681 21382 31058 212 295.5 335 184.17810058594 734.14421081543 151506.56188965 72695180.596308
31915	2654438 11724 21382 31058 212 295.5 335 486.85000610352 486.85000610352 163094.75204468 79402681.028403
vector 32006  IntersectionExampleScenario.node[71].veinsmobility  posx  ETV
vector 32007  IntersectionExampleScenario.node[71].veinsmobility  posy  ETV
vector 32013  IntersectionExampleScenario.node[72].veinsmobility  posx  ETV
vector 32014  IntersectionExampleScenario.node[72].veinsmobility  posy  ETV
vector 32008  IntersectionExampleScenario.node[71].veinsmobility  speed  ETV
vector 32009  IntersectionExampleScenario.node[71].veinsmobility  acceleration  ETV
vector 32010  IntersectionExampleScenario.node[71].veinsmobility  co2emission  ETV
vector 32015  IntersectionExampleScenario.node[72].veinsmobility  speed  ETV
vector 32016  IntersectionExampleScenario.node[72].veinsmobility  acceleration  ETV
vector 32017  IntersectionExampleScenario.node[72].veinsmobility  co2emission  ETV
vector 32020  IntersectionExampleScenario.node[73].veinsmobility  posx  ETV
vector 32021  IntersectionExampleScenario.node[73].veinsmobility  posy  ETV
vector 32022  IntersectionExampleScenario.node[73].veinsmobility  speed  ETV
vector 32023  IntersectionExampleScenario.node[73].veinsmobility  acceleration  ETV
vector 32024  IntersectionExampleScenario.node[73].veinsmobility  co2emission  ETV
31975	2667365 6714 25951 31383 246 298.75 212 0.973 11.810082123732 587.71878586701 3111.5492166609
31974	2674079 6944 25951 31383 246 298.75 212 -3.922271490097 2.5000000447035 39.529638290405 395.85329391547
31973	2681023 7098 25912 31383 245.75 298.75 213 0 15.875 2192.2075132318 28862.027549068
31972	2688121 7465 25873 31383 245.5 298.75 214 184.17810058594 483.26412963867 87391.332885742 37509887.642544
31971	2695586 7488 25873 31383 245.5 298.75 214 486.85000610352 734.61604309082 112324.22097778 59985699.285289
vector 32027  IntersectionExampleScenario.node[74].veinsmobility  posx  ETV
vector 32028  IntersectionExampleScenario.node[74].veinsmobility  posy  ETV
vector 32029  IntersectionExampleScenario.node[74].veinsmobility  speed  ETV
vector 32030  IntersectionExampleScenario.node[74].veinsmobility  acceleration  ETV
vector 32031  IntersectionExampleScenario.node[74].veinsmobility  co2emission  ETV
vector 32034  IntersectionExampleScenario.node[75].veinsmobility  posx  ETV
vector 32035  IntersectionExampleScenario.node[75].veinsmobility  posy  ETV
vector 32041  IntersectionExampleScenario.node[76].veinsmobility  posx  ETV
vector 32042  IntersectionExampleScenario.node[76].veinsmobility  posy  ETV
vector 32036  IntersectionExampleScenario.node[75].veinsmobility  speed  ETV
vector 32037  IntersectionExampleScenario.node[75].veinsmobility  acceleration  ETV
vector 32038  IntersectionExampleScenario.node[75].veinsmobility  co2emission  ETV
vector 32043  IntersectionExampleScenario.node[76].veinsmobility  speed  ETV
vector 32048  IntersectionExampleScenario.node[77].veinsmobility  posx  ETV
vector 32049  IntersectionExampleScenario.node[77].veinsmobility  posy  ETV
vector 32044  IntersectionExampleScenario.node[76].veinsmobility  acceleration  ETV
vector 32045  IntersectionExampleScenario.node[76].veinsmobility  co2emission  ETV
vector 32050  IntersectionExampleScenario.node[77].veinsmobility  speed  ETV
vector 32051  IntersectionExampleScenario.node[77].veinsmobility  acceleration  ETV
vector 32052  IntersectionExampleScenario.node[77].veinsmobility  co2emission  ETV
vector 32055  IntersectionExampleScenario.node[78].veinsmobility  posx  ETV
vector 32056  IntersectionExampleScenario.node[78].veinsmobility  posy  ETV
vector 32057  IntersectionExampleScenario.node[78].veinsmobility  speed  ETV
vector 32058  IntersectionExampleScenario.node[78].veinsmobility  acceleration  ETV
vector 32059  IntersectionExampleScenario.node[78].veinsmobility  co2emission  ETV
vector 32062  IntersectionExampleScenario.node[79].veinsmobility  posx  ETV
vector 32063  IntersectionExampleScenario.node[79].veinsmobility  posy  ETV
vector 32064  IntersectionExampleScenario.node[79].veinsmobility  speed  ETV
vector 32065  IntersectionExampleScenario.node[79].veinsmobility  acceleration  ETV
vector 32066  IntersectionExampleScenario.node[79].veinsmobility  co2emission  ETV
vector 32069  IntersectionExampleScenario.node[80].veinsmobility  posx  ETV
vector 32070  IntersectionExampleScenario.node[80].veinsmobility  posy  ETV
vector 32071  IntersectionExampleScenario.node[80].veinsmobility  speed  ETV
vector 32072  IntersectionExampleScenario.node[80].veinsmobility  acceleration  ETV
vector 32073  IntersectionExampleScenario.node[80].veinsmobility  co2emission  ETV
31884	2705881 13639 19796 34103 200.5 322.25 488 0.97223939240464 11.810082123732 852.93175159457 3301.9031603661
31883	2719520 12094 19796 34103 200.5 322.25 488 -7.1630792617798 4 38.680875778198 476.878071193
31882	2731614 12284 19767 34103 200.25 322.25 489 0 15.875 2184.2048661709 30861.617094532
31881	2743898 17079 19738 34103 200 322.25 490 235.25335693359 483.14999389648 228503.4463501 107778323.25748
31880	2760977 17122 19738 34103 200 322.25 490 184.17810058594 483.36395263672 219130.37008667 100326680.72089
31926	2778099 12176 22833 34292 222 324 409 0.973 11.450879080643 759.68112204453 2967.9553413237
31925	2790275 12037 22833 34292 222 324 409 -3.820746421814 2.5 37.15309715271 335.875991416
31924	2802312 11992 22798 34292 221.75 324 410 0 15.375 2215.5748769278 28959.154801135
31923	2814304 14377 22763 34292 221.5 324 411 483.14999389648 735.32786560059 207281.87168884 105819469.01011
31922	2828681 14353 22763 34292 221.5 324 411 184.17810058594 486.86560058594 179729.59487915 80817348.049545
vector 32076  IntersectionExampleScenario.node[81].veinsmobility  posx  ETV
vector 32077  IntersectionExampleScenario.node[81].veinsmobility  posy  ETV
vector 32078  IntersectionExampleScenario.node[81].veinsmobility  speed  ETV
vector 32079  IntersectionExampleScenario.node[81].veinsmobility  acceleration  ETV
vector 32080  IntersectionExampleScenario.node[81].veinsmobility  co2emission  ETV
31933	2843435 12566 23293 34701 225.5 327.75 410 0.973 10.916047529558 743.81746752092 2711.7651099705
31932	2856001 12779 23293 34701 225.5 327.75 410 -4.1101875305176 2.5 33.927785873413 347.77085983452
31931	2868780 12599 23260 34701 225.25 327.75 411 0 14.625 2219.6445538308 27137.949995736
31930	2881379 14409 23227 34701 225 327.75 412 237.19311523438 483.14999389648 190300.52319336 89147812.060719
31929	2895788 14378 23227 34701 225 327.75 412 174.53436279297 483.14999389648 176898.45098877 78315043.274547
31947	2910166 11895 24219 34872 233.25 329.25 385 0.973 10.916047529558 743.24589221988 2843.6575120165
31946	2922061 12171 24219 34872 233.25 329.25 385 -3.3707046508789 2.5 39.529638290405 345.29772697358
31945	2934232 12022 24188 34872 233 329.25 386 0 15.544714927673 2179.9359970959 28458.860462772
31944	2946254 13540 24157 34872 232.75 329.25 387 238.01190185547 483.14999389648 178984.27294922 83912131.945748
31943	2959794 13500 24157 34872 232.75 329.25 387 184.17810058594 483.14999389648 165488.72583008 72794718.340622
31982	2973294 9630 27253 35061 255.75 331 302 0.97223939240464 11.648172402475 680.9847041321 3150.7536689311
31981	2982924 9896 27253 35061 255.75 331 302 -6.2665710449219 2.5 38.680875778198 392.7326371457
31980	2992820 9995 27222 35061 255.5 331 303 0 15.64999961853 2205.1421085596 28830.243165969
31979	3002815 10633 27191 35061 255.25 331 304 483.14999389648 732.74752807617 155213.30549622 80404831.228702
31978	3013448 10598 27191 35061 255.25 331 304 184.17810058594 487.02981567383 127281.36975098 55223752.718363
vector 32083  IntersectionExampleScenario.node[82].veinsmobility  posx  ETV
vector 32084  IntersectionExampleScenario.node[82].veinsmobility  posy  ETV
vector 32085  IntersectionExampleScenario.node[82].veinsmobility  speed  ETV
vector 32086  IntersectionExampleScenario.node[82].veinsmobility  acceleration  ETV
vector 32087  IntersectionExampleScenario.node[82].veinsmobility  co2emission  ETV
31989	3024447 9034 28076 35359 263 333.75 284 0.973 11.450879080643 625.30843650508 2799.5169884583
31988	3033481 9699 28076 35359 263 333.75 284 -3.75523853302 2.5 37.32285118103 311.32191063738
31987	3043180 9675 28047 35359 262.75 333.75 285 0 15.375 2209.3298480641 27719.937743467
31986	3052855 10000 28018 35359 262.5 333.75 286 483.14999389648 733.25157165527 146729.66288757 76447773.194939
31985	3062855 9963 28018 35359 262.5 333.75 286 184.17810058594 486.85000610352 118112.71844482 50686452.342154
vector 32090  IntersectionExampleScenario.node[83].veinsmobility  posx  ETV
vector 32091  IntersectionExampleScenario.node[83].veinsmobility  posy  ETV
vector 32092  IntersectionExampleScenario.node[83].veinsmobility  speed  ETV
vector 32093  IntersectionExampleScenario.node[83].veinsmobility  acceleration  ETV
vector 32094  IntersectionExampleScenario.node[83].veinsmobility  co2emission  ETV
31996	3073219 7165 29662 35527 278.5 335.25 228 0.973 11.54047740176 591.18243718089 2986.4718425652
31995	3080384 7504 29662 35527 278.5 335.25 228 -4.0041084289551 2.5000000596046 36.98334312439 361.7850478891
31994	3087888 7628 29639 35527 278.25 335.25 229 0 15.5 2215.0022515692 28532.689615667
31993	3095516 8049 29616 35527 278 335.25 230 483.14999389648 483.14999389648 111124.49859619 53689800.8185
31992	3103565 8006 29616 35527 278 335.25 230 184.17810058594 732.61535644531 101455.03764343 48995530.241472
vector 32097  IntersectionExampleScenario.node[84].veinsmobility  posx  ETV
vector 32098  IntersectionExampleScenario.node[84].veinsmobility  posy  ETV
vector 32099  IntersectionExampleScenario.node[84].veinsmobility  speed  ETV
vector 32100  IntersectionExampleScenario.node[84].veinsmobility  acceleration  ETV
vector 32101  IntersectionExampleScenario.node[84].veinsmobility  co2emission  ETV
vector 32104  IntersectionExampleScenario.node[85].veinsmobility  posx  ETV
vector 32105  IntersectionExampleScenario.node[85].veinsmobility  posy  ETV
vector 32106  IntersectionExampleScenario.node[85].veinsmobility  speed  ETV
vector 32107  IntersectionExampleScenario.node[85].veinsmobility  acceleration  ETV
vector 32108  IntersectionExampleScenario.node[85].veinsmobility  co2emission  ETV
vector 32111  IntersectionExampleScenario.node[86].veinsmobility  posx  ETV
vector 32112  IntersectionExampleScenario.node[86].veinsmobility  posy  ETV
vector 32113  IntersectionExampleScenario.node[86].veinsmobility  speed  ETV
vector 32114  IntersectionExampleScenario.node[86].veinsmobility  acceleration  ETV
vector 32115  IntersectionExampleScenario.node[86].veinsmobility  co2emission  ETV
vector 32118  IntersectionExampleScenario.node[87].veinsmobility  posx  ETV
vector 32119  IntersectionExampleScenario.node[87].veinsmobility  posy  ETV
vector 32120  IntersectionExampleScenario.node[87].veinsmobility  speed  ETV
vector 32121  IntersectionExampleScenario.node[87].veinsmobility  acceleration  ETV
vector 32122  IntersectionExampleScenario.node[87].veinsmobility  co2emission  ETV
vector 32125  IntersectionExampleScenario.node[88].veinsmobility  posx  ETV
vector 32126  IntersectionExampleScenario.node[88].veinsmobility  posy  ETV
vector 32132  IntersectionExampleScenario.node[89].veinsmobility  posx  ETV
vector 32133  IntersectionExampleScenario.node[89].veinsmobility  posy  ETV
vector 32127  IntersectionExampleScenario.node[88].veinsmobility  speed  ETV
vector 32128  IntersectionExampleScenario.node[88].veinsmobility  acceleration  ETV
vector 32129  IntersectionExampleScenario.node[88].veinsmobility  co2emission  ETV
vector 32134  IntersectionExampleScenario.node[89].veinsmobility  speed  ETV
vector 32135  IntersectionExampleScenario.node[89].veinsmobility  acceleration  ETV
vector 32136  IntersectionExampleScenario.node[89].veinsmobility  co2emission  ETV
vector 32139  IntersectionExampleScenario.node[90].veinsmobility  posx  ETV
vector 32140  IntersectionExampleScenario.node[90].veinsmobility  posy  ETV
vector 32141  IntersectionExampleScenario.node[90].veinsmobility  speed  ETV
32038	3114209 5336 32249 36660 306.25 345.25 157 0.973 11.810082123732 515.5618389407 2902.797720073
32037	3119545 5069 32249 36660 306.25 345.25 157 -3.5163917541504 2.5 39.869146347046 290.33844567859
32036	3124614 5217 32218 36660 306 345.25 158 5.6500000953674 15.875 2188.8623771667 31789.524308748
32035	3129831 5561 32189 36660 305.75 345.25 159 235.69256591797 483.14999389648 68752.60647583 30646030.028647
32034	3135392 5534 32189 36660 305.75 345.25 159 184.17810058594 483.14999389648 63198.927947998 26845023.496137
vector 32142  IntersectionExampleScenario.node[90].veinsmobility  acceleration  ETV
vector 32143  IntersectionExampleScenario.node[90].veinsmobility  co2emission  ETV
32052	3141095 5491 32346 36890 307 347 161 0.973 11.648172402475 517.80198700655 2861.2343466637
32051	3146586 4980 32346 36890 307 347 161 -4.5 2.5 38.850629806519 263.58890174647
32050	3151566 5430 32313 36890 306.75 347 162 5.6500000953674 15.64999961853 2307.928024292 33579.429656399
32049	3156996 5704 32280 36890 306.5 347 163 483.14999389648 483.14999389648 78753.449005127 38049728.406154
32048	3162700 5676 32280 36890 306.5 347 163 161.1796875 732.50053405762 71210.696289062 35730983.009957
vector 32146  IntersectionExampleScenario.node[91].veinsmobility  posx  ETV
vector 32147  IntersectionExampleScenario.node[91].veinsmobility  posy  ETV
31940	3168530 13499 23954 37479 231 351.75 484 0.973 12.099024792222 861.9216179323 3455.1417808202
31939	3182029 12027 23954 37479 231 351.75 484 -8.5031824111938 4 40.378400802612 506.18578224067
31938	3194056 12154 23925 37479 230.75 351.75 485 0 16.27499961853 2172.7720918655 31377.315816368
31937	3206210 16996 23896 37479 230.5 351.75 486 486.63604736328 785.82187652588 253978.35118866 135026111.25454
31936	3223206 16943 23896 37479 230.5 351.75 486 238.07672119141 483.14999389648 226949.44100952 107131179.56059
vector 32148  IntersectionExampleScenario.node[91].veinsmobility  speed  ETV
vector 32149  IntersectionExampleScenario.node[91].veinsmobility  acceleration  ETV
vector 32150  IntersectionExampleScenario.node[91].veinsmobility  co2emission  ETV
vector 32153  IntersectionExampleScenario.node[92].veinsmobility  posx  ETV
vector 32154  IntersectionExampleScenario.node[92].veinsmobility  posy  ETV
vector 32155  IntersectionExampleScenario.node[92].veinsmobility  speed  ETV
vector 32156  IntersectionExampleScenario.node[92].veinsmobility  acceleration  ETV
vector 32157  IntersectionExampleScenario.node[92].veinsmobility  co2emission  ETV
31954	3240797 13680 24409 37648 234.75 353 474 0.973 12.099024792222 858.6944989317 3388.8962436725
31953	3254477 12975 24409 37648 234.75 353 474 -4.5 2.5 41.057416915894 430.05379046233
31952	3267452 12852 24376 37648 234.5 353 475 0 16.27499961853 2234.6313212831 32099.911385412
31951	3280304 16640 24343 37648 234.25 353 476 483.13439941406 793.78281402588 251471.9229126 135228820.60493
31950	3296944 16655 24343 37648 234.25 353 476 483.14999389648 732.05174255371 237985.52552795 120176102.55909
32003	3313599 8845 30428 38138 288 356.5 275 0.973 11.36141391502 626.73418705403 2832.6612803173
32002	3322444 9271 30428 38138 288 356.5 275 -3.7037620544434 2.5000004768372 37.15309715271 330.99349753565
32001	3331715 9249 30407 38138 287.75 356.5 276 0 15.25 2186.2792117689 28151.859653863
32000	3340964 9660 30386 38138 287.5 356.5 277 486.85000610352 785.82187652588 152284.2689743 85705208.093665
31999	3350624 9687 30386 38138 287.5 356.5 277 236.64208984375 483.14999389648 125482.90939331 57962005.840737
vector 32160  IntersectionExampleScenario.node[93].veinsmobility  posx  ETV
vector 32161  IntersectionExampleScenario.node[93].veinsmobility  posy  ETV
vector 32162  IntersectionExampleScenario.node[93].veinsmobility  speed  ETV
vector 32163  IntersectionExampleScenario.node[93].veinsmobility  acceleration  ETV
vector 32164  IntersectionExampleScenario.node[93].veinsmobility  co2emission  ETV
32045	3360712 6621 32280 38393 306.5 358.25 208 0.973 11.648172402475 572.05602944302 2962.4041918456
32044	3367333 6761 32280 38393 306.5 358.25 208 -3.9000718593597 2.5 38.511121749878 350.83273539346
32043	3374094 7007 32249 38393 306.25 358.25 209 0 15.64999961853 2211.6930839121 29012.331218388
32042	3381101 7337 32218 38393 306 358.25 210 483.14999389648 785.82187652588 117965.6478653 68123254.155071
32041	3388438 7337 32218 38393 306 358.25 210 483.14999389648 733.4253692627 109869.91729736 58547465.954401
vector 32167  IntersectionExampleScenario.node[94].veinsmobility  posx  ETV
vector 32168  IntersectionExampleScenario.node[94].veinsmobility  posy  ETV
vector 32169  IntersectionExampleScenario.node[94].veinsmobility  speed  ETV
vector 32170  IntersectionExampleScenario.node[94].veinsmobility  acceleration  ETV
vector 32171  IntersectionExampleScenario.node[94].veinsmobility  co2emission  ETV
32059	3396176 6144 33045 38694 312.75 360.25 191 0.973 11.648172402475 572.68061890629 3089.7731202533
32058	3402320 6233 33045 38694 312.75 360.25 191 -3.429594039917 2.5 39.869146347046 376.47431035267
32057	3408553 6405 33014 38694 312.5 360.25 192 3.7182333469391 15.678112983704 2186.8946125507 28710.390982099
32056	3414958 6730 32983 38694 312.25 360.25 193 486.85000610352 785.82187652588 109621.87459564 64024160.172235
32055	3421688 6749 32983 38694 312.25 360.25 193 236.20080566406 483.14999389648 85206.605804443 38601021.075507
vector 32174  IntersectionExampleScenario.node[95].veinsmobility  posx  ETV
vector 32175  IntersectionExampleScenario.node[95].veinsmobility  posy  ETV
vector 32176  IntersectionExampleScenario.node[95].veinsmobility  speed  ETV
vector 32177  IntersectionExampleScenario.node[95].veinsmobility  acceleration  ETV
vector 32178  IntersectionExampleScenario.node[95].veinsmobility  co2emission  ETV
vector 32181  IntersectionExampleScenario.node[96].veinsmobility  posx  ETV
vector 32182  IntersectionExampleScenario.node[96].veinsmobility  posy  ETV
32073	3428992 5567 34076 39293 322 364.25 170 0.973 10.916047529558 511.66745562783 2813.2864870814
32072	3434559 5453 34076 39293 322 364.25 170 -3.360538482666 2.5 34.606801986694 271.48452290634
32071	3440012 5656 34049 39293 321.75 364.25 171 5.6500000953674 14.625 2178.4237918854 28764.078009817
32070	3445668 6009 34022 39293 321.5 364.25 172 486.85000610352 785.82187652588 98393.978485107 58091090.235568
32069	3451677 6013 34022 39293 321.5 364.25 172 237.77435302734 483.14999389648 74475.270233154 33223734.711685
vector 32183  IntersectionExampleScenario.node[96].veinsmobility  speed  ETV
[...]
vector 35387  IntersectionExampleScenario.node[554].veinsmobility  posx  ETV
vector 35388  IntersectionExampleScenario.node[554].veinsmobility  posy  ETV
vector 35394  IntersectionExampleScenario.node[555].veinsmobility  posx  ETV
vector 35395  IntersectionExampleScenario.node[555].veinsmobility  posy  ETV
vector 35389  IntersectionExampleScenario.node[554].veinsmobility  speed  ETV
vector 35396  IntersectionExampleScenario.node[555].veinsmobility  speed  ETV
vector 35390  IntersectionExampleScenario.node[554].veinsmobility  acceleration  ETV
vector 35391  IntersectionExampleScenario.node[554].veinsmobility  co2emission  ETV
vector 35397  IntersectionExampleScenario.node[555].veinsmobility  acceleration  ETV
vector 35398  IntersectionExampleScenario.node[555].veinsmobility  co2emission  ETV
vector 35401  IntersectionExampleScenario.node[556].veinsmobility  posx  ETV
vector 35402  IntersectionExampleScenario.node[556].veinsmobility  posy  ETV
vector 35403  IntersectionExampleScenario.node[556].veinsmobility  speed  ETV
vector 35404  IntersectionExampleScenario.node[556].veinsmobility  acceleration  ETV
vector 35405  IntersectionExampleScenario.node[556].veinsmobility  co2emission  ETV
35027	29122225 19235 266767 304472 1640.25 1800 640 0.973 11.450879080643 1040.6575125937 3521.7384218309
35026	29141460 18038 266767 304472 1640.25 1800 640 -35.081283569336 4 38.341367721558 1843.9065718599
35025	29159498 17852 266704 304472 1640 1800 641 0 15.375 1957.0990742147 23946.469365207
35024	29177350 23726 266641 304472 1639.75 1800 642 301.33197021484 785.82187652588 340428.63372803 184432850.78049
35023	29201076 23753 266641 304472 1639.75 1800 642 483.14999389648 483.14999389648 310182.29608154 149864574.4586
35069	29224829 17204 270332 304472 1655.25 1800 580 0.973 11.648172402475 969.82899179635 3562.3014674818
35068	29242033 15807 270332 304472 1655.25 1800 580 -4.5 2.5 38.171682357788 692.92748721058
35067	29257840 16078 270268 304472 1655 1800 581 0 15.64999961853 1862.6793558002 21208.524756893
35066	29273918 21483 270203 304472 1654.75 1800 582 482.95608520508 785.82187652588 313175.93430328 171208194.51644
35065	29295401 21530 270203 304472 1654.75 1800 582 483.14999389648 648.02769470215 284934.29470825 139881957.82478
35118	29316931 15049 275717 304472 1675.75 1800 498 0.973 11.648172402475 874.0935013833 3678.832133949
35117	29331980 14147 275717 304472 1675.75 1800 498 -4.5 2.5 38.341547012329 492.01791410826
35116	29346127 14280 275650 304472 1675.5 1800 499 0 15.64999961853 1681.0216803644 20271.725013064
35115	29360407 18471 275585 304472 1675.25 1800 500 486.85000610352 785.82187652588 267392.36716461 145156797.67179
35114	29378878 18499 275585 304472 1675.25 1800 500 362.79534912109 483.14999389648 239514.47845459 114887691.1376
35125	29397377 15377 275784 304472 1676 1800 497 0.973 11.693836101826 843.85234677282 3225.2180569381
35124	29412754 14638 275784 304472 1676 1800 497 -4.5 2.5000019073486 38.188024520874 510.07067243641
35123	29427392 14794 275717 304472 1675.75 1800 498 0 15.713519096375 1693.9494937342 20676.626788361
35122	29442186 18438 275650 304472 1675.5 1800 499 391.5505065918 810.23281097412 270538.73938751 149507648.51195
35121	29460624 18462 275650 304472 1675.5 1800 499 483.14999389648 483.14999389648 241091.84695435 116483524.38449
35132	29479086 14723 277462 304472 1682.5 1800 471 0.973 11.575212654765 785.4749660365 2919.0642173983
35131	29493809 14325 277462 304472 1682.5 1800 471 -4.5 2.5 38.718328475952 408.26473203346
35130	29508134 14249 277399 304472 1682.25 1800 472 0 15.548409461975 1470.5681200763 18050.703483972
35129	29522383 17481 277335 304472 1682 1800 473 423.10675048828 785.82187652588 257682.56138611 142336158.4369
35128	29539864 17499 277335 304472 1682 1800 473 483.14999389648 483.14999389648 228529.94711304 110414242.55283
35146	29557363 14513 278300 304472 1685.75 1800 458 0.973 11.438582314955 721.99770030525 2363.3739080631
35145	29571876 14304 278300 304472 1685.75 1800 458 -4.5 2.5 15.89999961853 416.16044702075
35144	29586180 14165 278235 304472 1685.5 1800 459 0 15.357830047607 1312.5261208992 15668.636193116
35143	29600345 16984 278170 304472 1685.25 1800 460 486.85000610352 797.07032012939 254750.36127472 143000985.46805
35142	29617329 17020 278170 304472 1685.25 1800 460 464.47412109375 483.14999389648 222141.47470093 107277015.2023
35167	29634349 12086 281107 304472 1697.25 1800 412 0.973 12.099024792222 652.19516925143 2438.2411277573
35166	29646435 11837 281107 304472 1697.25 1800 412 -4.425163269043 2.5 13.39999961853 426.51363220907
35165	29658272 11724 281044 304472 1697 1800 413 0 16.27499961853 1224.6767828763 14078.674839301
35164	29669996 15297 280983 304472 1696.75 1800 414 484.78747558594 785.82187652588 232441.96794891 132038708.51261
35163	29685293 15311 280983 304472 1696.75 1800 414 483.14999389648 490.03125 200045.59909058 96662517.665467
35174	29700604 12038 281170 304472 1697.5 1800 411 0.973 11.965450581672 649.67520025009 2310.8998219566
35173	29712642 11322 281170 304472 1697.5 1800 411 -4.5 4 7.8748931884766 472.1159401182
35172	29723964 11440 281107 304472 1697.25 1800 412 0 16.090351104736 1244.4205818772 14798.697405664
35171	29735404 15242 281044 304472 1697 1800 413 501.63018798828 810.23281097412 236569.39557648 137352665.53441
35170	29750646 15279 281044 304472 1697 1800 413 483.14999389648 483.14999389648 199540.94747925 96408207.556698
35202	29765925 10375 286050 304472 1718.5 1800 327 0.973 11.648172402475 548.21314217115 1952.8762724942
35201	29776300 13009 286050 304472 1718.5 1800 327 -2.172679901123 2.5 14.653219223022 247.31402633836
35200	29789309 12879 285995 304472 1718.25 1800 328 0 15.64999961853 1064.8365337959 12127.340238341
35199	29802188 12156 285940 304472 1718 1800 329 522.2392578125 785.82187652588 190638.21639252 111706799.78576
35198	29814344 12171 285940 304472 1718 1800 329 483.14999389648 483.14999389648 158956.34799194 76799758.562115
35209	29826515 9120 286972 304472 1722.75 1800 310 0.973 11.648172402475 486.18927383777 1732.7223361259
35208	29835635 8916 286972 304472 1722.75 1800 310 -3.7044262886047 2.5 8.7932167053223 256.36266885911
35207	29844551 8923 286917 304472 1722.5 1800 311 0 15.64999961853 1008.4922825312 12301.507426166
35206	29853474 11528 286862 304472 1722.25 1800 312 540.23577880859 790.18281555176 182685.34677887 108175843.62744
35205	29865002 11544 286862 304472 1722.25 1800 312 483.14999389648 483.14999389648 150742.7980957 72831381.979878
35216	29876546 9016 287911 304472 1727 1800 293 0.973 10.315404520939 446.91677338661 1430.1747747312
35215	29885562 9326 287911 304472 1727 1800 293 -3.9075117111206 2.5 -4.0257511138916 207.85465379871
35214	29894888 9174 287854 304472 1726.75 1800 294 0 15.275863647461 951.08147378545 10925.857106207
35213	29904062 10887 287797 304472 1726.5 1800 295 555.70516967773 792.36328887939 175306.89743042 105323065.63595
35212	29914949 10914 287797 304472 1726.5 1800 295 483.14999389648 483.14999389648 142529.24819946 68863005.397641
35237	29925863 8335 289542 304472 1734.25 1800 264 0.973 10.756497587458 401.25548914067 1305.3410281289
35236	29934198 8777 289542 304472 1734.25 1800 264 -3.6955049037933 2.5 -9.9760818481445 210.20853210362
35235	29942975 8625 289486 304472 1734 1800 265 0 14.904058456421 882.32416003663 10199.181447585
35234	29951600 9817 289429 304472 1733.75 1800 266 565.91952514648 785.82187652588 159821.27577972 96985108.410277
35233	29961417 9841 289429 304472 1733.75 1800 266 483.14999389648 483.14999389648 128517.89837646 62093421.816178
35244	29971258 7433 290362 304472 1738 1800 249 0.973 11.200708441096 410.8748854592 1459.0457817087
35243	29978691 6760 290362 304472 1738 1800 249 -7.5492124557495 2.5 -22.60000038147 314.92414055974
35242	29985451 6997 290307 304472 1737.75 1800 250 0 15.02499961853 1146.4610667229 15594.13089504
35241	29992448 9256 290252 304472 1737.5 1800 251 184.17810058594 471.60000610352 105224.02377319 46095605.833634
35240	30001704 9286 290252 304472 1737.5 1800 251 486.85000610352 486.85000610352 122199.35153198 59492755.039191
35251	30010990 7193 291567 304472 1743.75 1800 226 0.973 11.200708441096 395.76091848081 1478.2643624505
35250	30018183 7590 291567 304472 1743.75 1800 226 -3.6675980091095 2.5 -22.60000038147 224.71261820605
35249	30025773 7410 291516 304472 1743.5 1800 227 0 15.598775863647 1122.3012505369 15206.798051958
35248	30033183 8405 291464 304472 1743.25 1800 228 184.17810058594 465.20138549805 93663.181610107 40250253.768569
35247	30041588 8436 291464 304472 1743.25 1800 228 486.85000610352 486.85000610352 111001.8013916 54041227.685002
35258	30050024 6584 291927 304472 1745.5 1800 219 0.973 11.648172402475 390.29886122345 1562.8545875017
35257	30056608 6121 291927 304472 1745.5 1800 219 -7.7750473022461 2.5 -22.60000038147 320.25519313237
35256	30062729 6274 291875 304472 1745.25 1800 220 0 15.64999961853 1146.6267495155 16088.567755537
35255	30069003 8175 291822 304472 1745 1800 221 486.85000610352 486.85000610352 107593.85134888 52382067.185901
35254	30077178 8164 291822 304472 1745 1800 221 498.39999389648 785.82187652588 122963.04129791 70288274.040412
35265	30085342 6617 292135 304472 1746.5 1800 215 0.973 11.648172402475 395.97226217879 1590.1205187992
35264	30091959 6060 292135 304472 1746.5 1800 215 -4.5 2.5 -22.60000038147 330.28872610156
35263	30098019 6396 292082 304472 1746.25 1800 216 0 15.64999961853 1212.7992245415 17138.666004742
35262	30104415 8027 292029 304472 1746 1800 217 486.85000610352 486.85000610352 105646.45132446 51433975.472129
35261	30112442 8002 292029 304472 1746 1800 217 504.79995727539 807.99687957764 123580.54727936 72485065.683345
35272	30120444 6791 292499 304472 1748.25 1800 208 0.973 11.648172402475 372.35505171667 1521.4901020357
35271	30127235 7555 292499 304472 1748.25 1800 208 -3.8548543453217 2.5 -22.60000038147 207.78032396815
35270	30134790 7392 292446 304472 1748 1800 209 0 15.64999961853 1096.4393757116 13270.743930432
35269	30142182 7727 292393 304472 1747.75 1800 210 184.17810058594 458.80224609375 83707.239532471 34945493.0296
35268	30149909 7769 292393 304472 1747.75 1800 210 486.85000610352 486.85000610352 102238.50128174 49774814.973028
35279	30157678 6393 293068 304472 1751 1800 197 0.973 11.648172402475 337.44630425006 1430.0858810135
35278	30164071 7317 293068 304472 1751 1800 197 -3.8800354003906 2.5 -18.049987792969 199.40842409881
35277	30171388 7132 293014 304472 1750.75 1800 198 0 15.64999961853 840.37191556767 9331.2046445222
35276	30178520 7331 292961 304472 1750.5 1800 199 575.74472045898 785.82187652588 122759.94246674 76521908.752324
35275	30185851 7362 292961 304472 1750.5 1800 199 483.14999389648 483.14999389648 96146.8487854 46453349.403832
35286	30193213 6712 293121 304472 1751.25 1800 196 0.973 10.151545557476 374.20285245899 1440.0267757825
35285	30199925 7236 293121 304472 1751.25 1800 196 -4.5 2.5 -22.60000038147 290.87293673506
35284	30207161 7271 293068 304472 1751 1800 197 0 15.348852157593 1092.443010319 12409.78020423
35283	30214432 7298 293014 304472 1750.75 1800 198 171.40313720703 445.04345703125 74217.454101562 29417391.477494
35282	30221730 7325 293014 304472 1750.75 1800 198 486.85000610352 486.85000610352 96396.301208496 46930539.831713
35293	30229055 6380 293443 304472 1752.75 1800 190 0.973 11.648172402475 359.64995484601 1524.6245162289
35292	30235435 7001 293443 304472 1752.75 1800 190 -4.5 2.5 -22.60000038147 291.82630887671
35291	30242436 7018 293388 304472 1752.5 1800 191 0 15.720183372498 975.57751070894 11714.462636485
35290	30249454 7072 293333 304472 1752.25 1800 192 207.49688720703 452.27844238281 76411.373657227 31530080.158013
35289	30256526 7104 293333 304472 1752.25 1800 192 486.85000610352 486.85000610352 93475.201171875 45508402.261055
35307	30263630 6032 294047 304472 1755.5 1800 179 0.973 11.648172402475 322.74525151407 1420.0225469623
35306	30269662 6675 294047 304472 1755.5 1800 179 -4.5 2.5 -21.537750482559 256.28826819863
35305	30276337 6625 293988 304472 1755.25 1800 180 0 15.64999961853 809.87508226186 9622.1064323634
35304	30282962 6678 293931 304472 1755 1800 181 582.73443603516 785.82187652588 112881.47533417 71105786.819808
35303	30289640 6695 293931 304472 1755 1800 181 483.14999389648 483.14999389648 87450.148895264 42251538.904993
35314	30296335 5913 294108 304472 1755.75 1800 178 0.973 11.648172402475 347.45547801139 1515.098498287
35313	30302248 6349 294108 304472 1755.75 1800 178 -4.5 2.5 -21.610822379589 282.78541748448
35312	30308597 6331 294047 304472 1755.5 1800 179 0 15.863304138184 1068.0917250477 13481.343453658
35311	30314928 6634 293988 304472 1755.25 1800 180 170.58929443359 437.84503173828 67112.015106201 26393522.829515
35310	30321562 6660 293988 304472 1755.25 1800 180 486.84994506836 486.85003662109 87633.001037598 42664127.060309
35321	30328222 5610 294169 304472 1756 1800 177 0.973 10.760297496426 338.4960975465 1331.0230941353
35320	30333832 5778 294169 304472 1756 1800 177 -4.5 2.5 -21.403712630272 284.52505993364
35319	30339610 5734 294108 304472 1755.75 1800 178 0 15.058779716492 1106.6418838203 13817.517822135
35318	30345344 6616 294047 304472 1755.5 1800 179 152.97277832031 429.78948974609 63808.038574219 24340938.7685
35317	30351960 6616 294047 304472 1755.5 1800 179 486.8498840332 486.85000610352 87146.149841309 42427102.972982
35328	30358576 5164 294841 304472 1758.75 1800 166 0.973 10.723336142934 293.58451823827 1139.6626148535
35327	30363740 5412 294841 304472 1758.75 1800 166 -4.2284259796143 2.5 -21.683218598366 206.06645743977
35326	30369152 5479 294780 304472 1758.5 1800 167 0 14.538380622864 827.49246238172 9324.1103058667
35325	30374631 6204 294718 304472 1758.25 1800 168 590.06002807617 797.07032012939 107083.39319611 69011134.475126
35324	30380835 6216 294718 304472 1758.25 1800 168 483.14999389648 483.14999389648 81169.198974609 39216897.989165
35335	30387051 5558 295555 304472 1761.75 1800 154 0.973 11.450879080643 474.11306951594 2485.329426142
35334	30392609 4973 295555 304472 1761.75 1800 154 -3.1659812927246 2.5 37.492597579956 221.06141420256
35333	30397582 5448 295495 304472 1761.5 1800 155 5.6500000953674 15.375 2133.746430397 30232.507819327
35332	30403030 5761 295434 304472 1761.25 1800 156 483.14999389648 714.6820526123 82696.905410767 44624062.320728
35331	30408791 5745 295434 304472 1761.25 1800 156 184.17810058594 486.85000610352 61678.961151123 26136955.906394
35342	30414536 4882 295736 304472 1762.5 1800 151 0.973 11.439239982207 335.00855593889 1464.4768285669
35341	30419418 4377 295736 304472 1762.5 1800 151 -35.978542327881 2.5 -22.60000038147 1493.6612227426
35340	30423795 4750 295675 304472 1762.25 1800 152 0 15.358748435974 1237.2411375046 17552.583113483
35339	30428545 5659 295614 304472 1762 1800 153 483.14999389648 483.14999389648 73921.949066162 35715389.240132
35338	30434204 5635 295614 304472 1762 1800 153 161.1796875 471.60000610352 57237.744628906 23244273.396562
35349	30439839 4964 296286 304472 1764.75 1800 142 0.973 11.200708441096 322.64443848289 1410.6244512808
35348	30444803 5101 296286 304472 1764.75 1800 142 -4.5 2.5 -22.60000038147 311.13177493807
35347	30449904 5234 296225 304472 1764.5 1800 143 0 15.02499961853 1235.2829591716 17052.543900356
35346	30455138 5328 296163 304472 1764.25 1800 144 483.14999389648 483.14999389648 69573.599121094 33614483.990713
35345	30460466 5297 296163 304472 1764.25 1800 144 155.79296875 465.16390991211 52011.853607178 20496490.174581
35356	30465763 2904 299523 304472 1778.75 1800 86 0.973 10.756497587458 227.62505244058 1133.8527619637
35355	30468667 3110 299523 304472 1778.75 1800 86 -2.0815734863281 2.5 -3.6627063751221 145.29305008146
35354	30471777 3202 299466 304472 1778.5 1800 87 4.7343235015869 14.39999961853 1017.1029410362 12788.25587818
35353	30474979 3256 299409 304472 1778.25 1800 88 483.14999389648 483.14999389648 42517.199462891 20542184.660991
35352	30478235 3231 299409 304472 1778.25 1800 88 184.17810058594 436.92205810547 27766.823669434 9360229.8859503
35363	30481466 2347 300097 304472 1781.25 1800 76 0.973 11.648172402475 207.81891715349 1292.3083294776
35362	30483813 2664 300097 304472 1781.25 1800 76 -2.0024566650391 2.5 -12.254120826721 169.38673015288
35361	30486477 2831 300038 304472 1781 1800 77 2.5864698886871 15.64999961853 721.69771361351 8183.0074017973
35360	30489308 2877 299979 304472 1780.75 1800 78 605.75524902344 785.82187652588 53172.281532288 36530936.255817
35359	30492185 2885 299979 304472 1780.75 1800 78 483.14999389648 483.14999389648 37685.699523926 18207845.494969
35370	30495070 2022 301270 304472 1786.25 1800 56 0.973 11.648172402475 212.97405417469 1364.0821283476
35369	30497092 1988 301270 304472 1786.25 1800 56 -2.1220779418945 2.5 30.644014358521 118.35715375444
35368	30499080 2094 301211 304472 1786 1800 57 5.6500000953674 15.64999961853 791.09319210052 11399.951551363
35367	30501174 2145 301152 304472 1785.75 1800 58 486.85000610352 486.85000610352 28237.300354004 13747329.849694
35366	30503319 2139 301152 304472 1785.75 1800 58 592.6286315918 785.82187652588 40528.517478943 28533414.709674
35377	30505458 1529 302031 304472 1789.5 1800 43 0.973 10.967095276611 181.01957163115 1193.7266273352
35376	30506987 1513 302031 304472 1789.5 1800 43 -3.1033134460449 2.5 36.836797714233 109.1352624748
35375	30508500 1621 301973 304472 1789.25 1800 44 5.6500000953674 15.287757873535 501.23956871033 6184.6288000883
35374	30510121 1663 301914 304472 1789 1800 45 486.85000610352 486.85000610352 21908.250274658 10666031.779935
35373	30511784 1659 301914 304472 1789 1800 45 676.41285705566 797.07032012939 33638.308425903 25205803.511583
35384	30513443 1343 302377 304472 1791 1800 37 0.973 11.648172402475 173.67646046676 1265.9355922402
35383	30514786 1251 302377 304472 1791 1800 37 -0.45709991455078 2.5 38.175954818726 100.47756309252
35382	30516037 1391 302318 304472 1790.75 1800 38 5.6500000953674 15.64999961853 501.46895599365 6976.7040576717
35381	30517428 1442 302259 304472 1790.5 1800 39 486.85000610352 486.85000610352 18987.150238037 9243894.2092767
35380	30518870 1441 302259 304472 1790.5 1800 39 641.12976074219 761.73985290527 27685.107658386 19709926.898743
35391	30520311 880 303131 304472 1794.25 1800 24 1.9568337185 11.200708441096 146.82311636572 1121.5339726879
35390	30521191 734 303131 304472 1794.25 1800 24 -0.062015533447266 2.5 38.759359359741 94.166278186403
35389	30521925 913 303070 304472 1794 1800 25 5.6500000953674 15.382231712341 303.00724601746 3946.6869798906
35388	30522838 961 303009 304472 1793.75 1800 26 486.85000610352 486.85000610352 12658.100158691 6162596.1395178
35387	30523799 958 303009 304472 1793.75 1800 26 727.80624389648 798.43727111816 20013.917564392 15418945.588485
35398	30524757 884 303131 304472 1794.25 1800 24 1.8321577376031 11.200708441096 140.71777306971 1089.7074352338
35397	30525641 748 303131 304472 1794.25 1800 24 -0.086727142333984 2.5 37.179136276245 93.767085724572
35396	30526389 913 303070 304472 1794 1800 25 5.6500000953674 15.02499961853 300.08509349823 3858.2020296049
35395	30527302 961 303009 304472 1793.75 1800 26 483.14999389648 483.14999389648 12561.899841309 6069281.8316565
35394	30528263 944 303009 304472 1793.75 1800 26 184.17810058594 254.21832275391 5531.9739379883 1189792.0424698
35405	30529207 329 304008 304472 1798 1800 9 5.2162187258585 8.5795037135332 62.00095089838 437.72442123158
35404	30529536 235 304008 304472 1798 1800 9 2.4999980926514 2.5 22.499998092651 56.24999046326
35403	30529771 366 303949 304472 1797.75 1800 10 5.6500000953674 11.27499961853 84.624998092651 748.36558556557
35402	30530137 406 303890 304472 1797.5 1800 11 483.14999389648 483.14999389648 5314.6499328613 2567773.0826239
35401	30530543 398 303890 304472 1797.5 1800 11 176.21716308594 193.8515625 2017.1857910156 370288.99003167
31505	30530941 643 0 304471 0 1800 31 0 38 791 22055
31506	30531584 662 0 304471 0 1800 31 0 346 4875 1113703
