file 29848750 1591426306                                        
version 2
run nodebug-42-20200606-02:45:55-22484
attr configname nodebug
attr datetime 20200606-02:45:55
attr experiment nodebug
attr inifile omnetpp.ini
attr iterationvars ""
attr iterationvars2 $repetition=42
attr measurement ""
attr network "\"org.car2x.veins.modules.application.ExtTraCIScenarioManagerLaunchd.IntersectionExampleScenario\""
attr processid 22484
attr repetition 42
attr replication #42
attr resultdir results
attr runnumber 42
attr seedset 42
param **.coreDebug false
param **.debug false
param *.**.nic.mac1609_4.bitrate 18Mbps
param *.**.nic.mac1609_4.txPower 20mW
param *.**.nic.mac1609_4.useServiceChannel false
param *.**.nic.phy80211p.analogueModels "xmldoc(\"config.xml\")"
param *.**.nic.phy80211p.decider "xmldoc(\"config.xml\")"
param *.**.nic.phy80211p.sensitivity -89dBm
param *.**.nic.phy80211p.thermalNoise -110dBm
param *.**.nic.phy80211p.usePropagationDelay true
param *.**.nic.phy80211p.useThermalNoise true
param *.annotations.draw false
param *.connectionManager.alpha 2.0
param *.connectionManager.carrierFrequency "5.890e9 Hz"
param *.connectionManager.pMax 20mW
param *.connectionManager.sat -89dBm
param *.connectionManager.sendDirect true
param *.manager.autoShutdown true
param *.manager.host "\"localhost\""
param *.manager.launchConfig "xmldoc(\"paramics.launchd.xml\")"
param *.manager.margin 25
param *.manager.moduleDisplayString "\"\""
param *.manager.moduleName "\"node\""
param *.manager.moduleType "\"org.car2x.veins.nodes.Car\""
param *.manager.port 9999
param *.manager.updateInterval 250ms
param *.node[*0].veinsmobility.accidentCount 0
param *.node[*0].veinsmobility.accidentDuration 30s
param *.node[*0].veinsmobility.accidentStart 75s
param *.node[*].appl.LiderSelectZoneRadio 55.0
param *.node[*].appl.ShareDataZoneRadio 110.0
param *.node[*].appl.TiempoSemaforo 30.0
param *.node[*].appl.beaconInterval 1s
param *.node[*].appl.beaconPriority 3
param *.node[*].appl.dataOnSch false
param *.node[*].appl.dataPriority 2
param *.node[*].appl.debug false
param *.node[*].appl.headerLength "256 bit"
param *.node[*].appl.maxOffset 0.005s
param *.node[*].appl.sendBeacons false
param *.node[*].appl.sendData true
param *.node[*].applType "\"Dummy\""
param *.node[*].mobilityType "\"TraCIMobility\""
param *.node[*].mobilityType.debug true
param *.node[*].veinsmobility.x 0
param *.node[*].veinsmobility.y 0
param *.node[*].veinsmobility.z 1.895
param *.node[*].veinsmobilityType "\"org.car2x.veins.modules.mobility.traci.TraCIMobility\""
param *.node[*].veinsmobilityType.debug true
param *.playgroundSizeX 8500m
param *.playgroundSizeY 8500m
param *.playgroundSizeZ 50m
param *.world.use2D false
param *.world.useTorus false

vector 47614  IntersectionExampleScenario.manager  vehiclesinsim  ETV
attr type  int
vector 47615  IntersectionExampleScenario.manager  realtime  ETV
attr type  int
attr unit  s
vector 47618  IntersectionExampleScenario.node[0].veinsmobility  posx  ETV
vector 47619  IntersectionExampleScenario.node[0].veinsmobility  posy  ETV
vector 47620  IntersectionExampleScenario.node[0].veinsmobility  speed  ETV
vector 47621  IntersectionExampleScenario.node[0].veinsmobility  acceleration  ETV
vector 47622  IntersectionExampleScenario.node[0].veinsmobility  co2emission  ETV
vector 47625  IntersectionExampleScenario.node[1].veinsmobility  posx  ETV
vector 47626  IntersectionExampleScenario.node[1].veinsmobility  posy  ETV
vector 47627  IntersectionExampleScenario.node[1].veinsmobility  speed  ETV
vector 47628  IntersectionExampleScenario.node[1].veinsmobility  acceleration  ETV
vector 47629  IntersectionExampleScenario.node[1].veinsmobility  co2emission  ETV
vector 47632  IntersectionExampleScenario.node[2].veinsmobility  posx  ETV
vector 47633  IntersectionExampleScenario.node[2].veinsmobility  posy  ETV
vector 47639  IntersectionExampleScenario.node[3].veinsmobility  posx  ETV
vector 47640  IntersectionExampleScenario.node[3].veinsmobility  posy  ETV
vector 47634  IntersectionExampleScenario.node[2].veinsmobility  speed  ETV
vector 47635  IntersectionExampleScenario.node[2].veinsmobility  acceleration  ETV
vector 47636  IntersectionExampleScenario.node[2].veinsmobility  co2emission  ETV
vector 47641  IntersectionExampleScenario.node[3].veinsmobility  speed  ETV
vector 47642  IntersectionExampleScenario.node[3].veinsmobility  acceleration  ETV
vector 47643  IntersectionExampleScenario.node[3].veinsmobility  co2emission  ETV
vector 47646  IntersectionExampleScenario.node[4].veinsmobility  posx  ETV
vector 47647  IntersectionExampleScenario.node[4].veinsmobility  posy  ETV
vector 47648  IntersectionExampleScenario.node[4].veinsmobility  speed  ETV
vector 47649  IntersectionExampleScenario.node[4].veinsmobility  acceleration  ETV
vector 47650  IntersectionExampleScenario.node[4].veinsmobility  co2emission  ETV
vector 47653  IntersectionExampleScenario.node[5].veinsmobility  posx  ETV
vector 47654  IntersectionExampleScenario.node[5].veinsmobility  posy  ETV
vector 47655  IntersectionExampleScenario.node[5].veinsmobility  speed  ETV
vector 47656  IntersectionExampleScenario.node[5].veinsmobility  acceleration  ETV
vector 47657  IntersectionExampleScenario.node[5].veinsmobility  co2emission  ETV
vector 47660  IntersectionExampleScenario.node[6].veinsmobility  posx  ETV
vector 47661  IntersectionExampleScenario.node[6].veinsmobility  posy  ETV
vector 47662  IntersectionExampleScenario.node[6].veinsmobility  speed  ETV
vector 47663  IntersectionExampleScenario.node[6].veinsmobility  acceleration  ETV
vector 47664  IntersectionExampleScenario.node[6].veinsmobility  co2emission  ETV
vector 47667  IntersectionExampleScenario.node[7].veinsmobility  posx  ETV
vector 47668  IntersectionExampleScenario.node[7].veinsmobility  posy  ETV
vector 47669  IntersectionExampleScenario.node[7].veinsmobility  speed  ETV
vector 47670  IntersectionExampleScenario.node[7].veinsmobility  acceleration  ETV
vector 47671  IntersectionExampleScenario.node[7].veinsmobility  co2emission  ETV
vector 47674  IntersectionExampleScenario.node[8].veinsmobility  posx  ETV
vector 47675  IntersectionExampleScenario.node[8].veinsmobility  posy  ETV
vector 47676  IntersectionExampleScenario.node[8].veinsmobility  speed  ETV
vector 47677  IntersectionExampleScenario.node[8].veinsmobility  acceleration  ETV
vector 47678  IntersectionExampleScenario.node[8].veinsmobility  co2emission  ETV
vector 47681  IntersectionExampleScenario.node[9].veinsmobility  posx  ETV
vector 47682  IntersectionExampleScenario.node[9].veinsmobility  posy  ETV
vector 47683  IntersectionExampleScenario.node[9].veinsmobility  speed  ETV
vector 47688  IntersectionExampleScenario.node[10].veinsmobility  posx  ETV
vector 47689  IntersectionExampleScenario.node[10].veinsmobility  posy  ETV
vector 47684  IntersectionExampleScenario.node[9].veinsmobility  acceleration  ETV
vector 47685  IntersectionExampleScenario.node[9].veinsmobility  co2emission  ETV
vector 47690  IntersectionExampleScenario.node[10].veinsmobility  speed  ETV
vector 47691  IntersectionExampleScenario.node[10].veinsmobility  acceleration  ETV
vector 47692  IntersectionExampleScenario.node[10].veinsmobility  co2emission  ETV
vector 47695  IntersectionExampleScenario.node[11].veinsmobility  posx  ETV
vector 47696  IntersectionExampleScenario.node[11].veinsmobility  posy  ETV
vector 47697  IntersectionExampleScenario.node[11].veinsmobility  speed  ETV
vector 47698  IntersectionExampleScenario.node[11].veinsmobility  acceleration  ETV
vector 47699  IntersectionExampleScenario.node[11].veinsmobility  co2emission  ETV
vector 47702  IntersectionExampleScenario.node[12].veinsmobility  posx  ETV
vector 47703  IntersectionExampleScenario.node[12].veinsmobility  posy  ETV
vector 47704  IntersectionExampleScenario.node[12].veinsmobility  speed  ETV
vector 47705  IntersectionExampleScenario.node[12].veinsmobility  acceleration  ETV
vector 47706  IntersectionExampleScenario.node[12].veinsmobility  co2emission  ETV
vector 47709  IntersectionExampleScenario.node[13].veinsmobility  posx  ETV
vector 47710  IntersectionExampleScenario.node[13].veinsmobility  posy  ETV
vector 47711  IntersectionExampleScenario.node[13].veinsmobility  speed  ETV
vector 47712  IntersectionExampleScenario.node[13].veinsmobility  acceleration  ETV
vector 47713  IntersectionExampleScenario.node[13].veinsmobility  co2emission  ETV
vector 47716  IntersectionExampleScenario.node[14].veinsmobility  posx  ETV
vector 47717  IntersectionExampleScenario.node[14].veinsmobility  posy  ETV
vector 47718  IntersectionExampleScenario.node[14].veinsmobility  speed  ETV
vector 47719  IntersectionExampleScenario.node[14].veinsmobility  acceleration  ETV
vector 47720  IntersectionExampleScenario.node[14].veinsmobility  co2emission  ETV
vector 47723  IntersectionExampleScenario.node[15].veinsmobility  posx  ETV
vector 47724  IntersectionExampleScenario.node[15].veinsmobility  posy  ETV
vector 47725  IntersectionExampleScenario.node[15].veinsmobility  speed  ETV
vector 47726  IntersectionExampleScenario.node[15].veinsmobility  acceleration  ETV
vector 47727  IntersectionExampleScenario.node[15].veinsmobility  co2emission  ETV
vector 47730  IntersectionExampleScenario.node[16].veinsmobility  posx  ETV
vector 47731  IntersectionExampleScenario.node[16].veinsmobility  posy  ETV
vector 47732  IntersectionExampleScenario.node[16].veinsmobility  speed  ETV
vector 47733  IntersectionExampleScenario.node[16].veinsmobility  acceleration  ETV
vector 47734  IntersectionExampleScenario.node[16].veinsmobility  co2emission  ETV
vector 47737  IntersectionExampleScenario.node[17].veinsmobility  posx  ETV
vector 47738  IntersectionExampleScenario.node[17].veinsmobility  posy  ETV
vector 47744  IntersectionExampleScenario.node[18].veinsmobility  posx  ETV
vector 47745  IntersectionExampleScenario.node[18].veinsmobility  posy  ETV
vector 47739  IntersectionExampleScenario.node[17].veinsmobility  speed  ETV
vector 47740  IntersectionExampleScenario.node[17].veinsmobility  acceleration  ETV
vector 47741  IntersectionExampleScenario.node[17].veinsmobility  co2emission  ETV
vector 47746  IntersectionExampleScenario.node[18].veinsmobility  speed  ETV
vector 47747  IntersectionExampleScenario.node[18].veinsmobility  acceleration  ETV
vector 47748  IntersectionExampleScenario.node[18].veinsmobility  co2emission  ETV
47636	10505 4845 50 3169 2.75 41.5 156 0.973 12.099024792222 517.37835945647 3003.4060516599
47635	15350 4565 50 3169 2.75 41.5 156 -3.4799156188965 2.5 40.038900375366 302.93197667599
47634	19915 4747 41 3169 2.5 41.5 157 5.6500000953674 16.27499961853 2177.531452179 31700.575766228
47633	24662 5097 34 3169 2.25 41.5 158 486.85000610352 731.59959411621 84805.979980469 46406498.045001
47632	29759 5088 34 3169 2.25 41.5 158 486.85000610352 785.82187652588 90491.108894348 53542308.505041
47643	34847 5153 59 3417 3 43.5 163 0.973 11.54047740176 518.40618334563 2854.5777468889
47642	40000 4731 59 3417 3 43.5 163 -4.5 2.5 38.341367721558 248.90010173226
47641	44731 5088 50 3417 2.75 43.5 164 5.6500000953674 15.5 2315.1914482117 33416.933012276
47640	49819 5341 41 3417 2.5 43.5 165 486.85000610352 486.85000610352 80330.25100708 39108783.193094
47639	55160 5324 41 3417 2.5 43.5 165 236.94598388672 810.23281097412 88425.695259094 52180261.652157
vector 47751  IntersectionExampleScenario.node[19].veinsmobility  posx  ETV
vector 47752  IntersectionExampleScenario.node[19].veinsmobility  posy  ETV
vector 47753  IntersectionExampleScenario.node[19].veinsmobility  speed  ETV
vector 47754  IntersectionExampleScenario.node[19].veinsmobility  acceleration  ETV
vector 47755  IntersectionExampleScenario.node[19].veinsmobility  co2emission  ETV
vector 47758  IntersectionExampleScenario.node[20].veinsmobility  posx  ETV
vector 47759  IntersectionExampleScenario.node[20].veinsmobility  posy  ETV
vector 47760  IntersectionExampleScenario.node[20].veinsmobility  speed  ETV
vector 47765  IntersectionExampleScenario.node[21].veinsmobility  posx  ETV
vector 47766  IntersectionExampleScenario.node[21].veinsmobility  posy  ETV
vector 47761  IntersectionExampleScenario.node[20].veinsmobility  acceleration  ETV
vector 47762  IntersectionExampleScenario.node[20].veinsmobility  co2emission  ETV
vector 47772  IntersectionExampleScenario.node[22].veinsmobility  posx  ETV
vector 47773  IntersectionExampleScenario.node[22].veinsmobility  posy  ETV
vector 47767  IntersectionExampleScenario.node[21].veinsmobility  speed  ETV
vector 47768  IntersectionExampleScenario.node[21].veinsmobility  acceleration  ETV
vector 47769  IntersectionExampleScenario.node[21].veinsmobility  co2emission  ETV
vector 47774  IntersectionExampleScenario.node[22].veinsmobility  speed  ETV
vector 47775  IntersectionExampleScenario.node[22].veinsmobility  acceleration  ETV
vector 47776  IntersectionExampleScenario.node[22].veinsmobility  co2emission  ETV
vector 47779  IntersectionExampleScenario.node[23].veinsmobility  posx  ETV
vector 47780  IntersectionExampleScenario.node[23].veinsmobility  posy  ETV
vector 47781  IntersectionExampleScenario.node[23].veinsmobility  speed  ETV
vector 47782  IntersectionExampleScenario.node[23].veinsmobility  acceleration  ETV
vector 47783  IntersectionExampleScenario.node[23].veinsmobility  co2emission  ETV
47657	62489 5274 257 4318 8 50 169 0.973 11.648172402475 551.08797965633 2952.8137998741
47656	67763 4804 257 4318 8 50 169 -7.26416015625 4 39.699392318726 478.84449973493
47655	72567 5208 244 4318 7.75 50 170 0 15.64999961853 2202.4759087563 31658.546142018
47654	77775 5557 231 4318 7.5 50 171 184.17810058594 486.85000610352 69036.688262939 29694782.673301
47653	83332 5575 231 4318 7.5 50 171 236.75091552734 486.85000610352 75011.966033936 33880291.232911
47664	88907 5406 365 4747 10 52.75 172 0.973 11.450879080643 515.49053691514 2630.8087856432
47663	94313 5120 365 4747 10 52.75 172 -4.5 2.5 37.15309715271 288.30354897468
47662	99433 5473 350 4747 9.75 52.75 173 5.6500000953674 15.375 2270.8669848442 31362.137954138
47661	104906 5665 335 4747 9.5 52.75 174 166.078125 487.03198242188 68516.351837158 29089778.899709
47660	110571 5700 335 4747 9.5 52.75 174 238.33288574219 486.85000610352 76253.399108887 34407911.335044
vector 47786  IntersectionExampleScenario.node[24].veinsmobility  posx  ETV
vector 47787  IntersectionExampleScenario.node[24].veinsmobility  posy  ETV
vector 47788  IntersectionExampleScenario.node[24].veinsmobility  speed  ETV
vector 47789  IntersectionExampleScenario.node[24].veinsmobility  acceleration  ETV
vector 47790  IntersectionExampleScenario.node[24].veinsmobility  co2emission  ETV
vector 47793  IntersectionExampleScenario.node[25].veinsmobility  posx  ETV
vector 47794  IntersectionExampleScenario.node[25].veinsmobility  posy  ETV
vector 47795  IntersectionExampleScenario.node[25].veinsmobility  speed  ETV
vector 47796  IntersectionExampleScenario.node[25].veinsmobility  acceleration  ETV
vector 47797  IntersectionExampleScenario.node[25].veinsmobility  co2emission  ETV
47685	117073 4973 1438 6392 24.75 63 154 0.973 11.648172402475 472.37063277033 2468.6221642102
47684	122046 4501 1438 6392 24.75 63 154 -3.3639030456543 2.5 38.511121749878 193.75141553485
47683	126547 4879 1417 6392 24.5 63 155 5.6500000953674 15.64999961853 2221.424943924 32483.242225398
47682	131426 5119 1396 6392 24.25 63 156 184.17810058594 734.3458404541 70055.718383789 35615242.946009
47681	136545 5148 1396 6392 24.25 63 156 486.85000610352 486.85000610352 75948.600952148 36975576.837107
vector 47800  IntersectionExampleScenario.node[26].veinsmobility  posx  ETV
vector 47801  IntersectionExampleScenario.node[26].veinsmobility  posy  ETV
vector 47802  IntersectionExampleScenario.node[26].veinsmobility  speed  ETV
vector 47807  IntersectionExampleScenario.node[27].veinsmobility  posx  ETV
vector 47808  IntersectionExampleScenario.node[27].veinsmobility  posy  ETV
vector 47803  IntersectionExampleScenario.node[26].veinsmobility  acceleration  ETV
vector 47804  IntersectionExampleScenario.node[26].veinsmobility  co2emission  ETV
vector 47809  IntersectionExampleScenario.node[27].veinsmobility  speed  ETV
vector 47810  IntersectionExampleScenario.node[27].veinsmobility  acceleration  ETV
vector 47811  IntersectionExampleScenario.node[27].veinsmobility  co2emission  ETV
47734	142495 5281 2468 8395 35.5 76.5 165 0.973 11.200708441096 489.53123084703 2471.7711966845
47733	147776 4743 2468 8395 35.5 76.5 165 -3.5762786865234 2.5 35.455564498901 261.22151650358
47732	152519 5186 2439 8395 35.25 76.5 166 5.6500000953674 15.02499961853 2187.5217628479 29919.224123365
47731	157705 5479 2410 8395 35 76.5 167 184.17810058594 483.32922363281 66449.597473145 28225566.674603
47730	163184 5499 2410 8395 35 76.5 167 486.85000610352 734.1283416748 89937.700820923 49410720.855207
vector 47814  IntersectionExampleScenario.node[28].veinsmobility  posx  ETV
vector 47815  IntersectionExampleScenario.node[28].veinsmobility  posy  ETV
vector 47816  IntersectionExampleScenario.node[28].veinsmobility  speed  ETV
vector 47817  IntersectionExampleScenario.node[28].veinsmobility  acceleration  ETV
vector 47818  IntersectionExampleScenario.node[28].veinsmobility  co2emission  ETV
47692	169084 6588 1484 8946 25.25 80.5 222 0.973 11.36141391502 578.22806206791 2789.0052997201
47691	175672 6004 1484 8946 25.25 80.5 222 -8.2128305435181 4 36.813589096069 481.09835472119
47690	181676 6301 1461 8946 25 80.5 223 0 15.25 2172.3116796017 29932.914039771
47689	187977 7328 1438 8946 24.75 80.5 224 237.89813232422 483.14999389648 99915.237915039 45614670.311577
47688	195305 7362 1438 8946 24.75 80.5 224 184.17810058594 483.36395263672 93451.012573242 40988888.595918
47706	202667 6521 1863 9121 29.5 81.75 210 0.973 11.200708441096 566.01842007749 2699.7337420225
47705	209188 6397 1863 9121 29.5 81.75 210 -4.1828651428223 2.5 36.98334312439 381.11264189069
47704	215585 6818 1840 9121 29.25 81.75 211 0 15.02499961853 2237.549427608 30531.693852756
47703	222403 6996 1817 9121 29 81.75 212 483.14999389648 483.14999389648 102427.79870605 49487990.31966
47702	229399 6957 1817 9121 29 81.75 212 179.81719970703 734.76295471191 95634.540328979 47493761.476933
47741	236356 5476 2859 9331 39 83.25 178 0.973 11.648172402475 542.34385111443 2838.9152330402
47740	241832 5492 2859 9331 39 83.25 178 -2.1636352539062 2.5 39.699392318726 274.96847944186
47739	247324 5729 2828 9331 38.75 83.25 179 3.9450747966766 15.64999961853 2224.1587421894 30307.052324798
47738	253053 5940 2799 9331 38.5 83.25 180 483.14999389648 483.14999389648 86966.998901367 42018104.988391
47737	258993 5909 2799 9331 38.5 83.25 180 184.17810058594 734.97755432129 80431.345001221 40073004.357353
vector 47821  IntersectionExampleScenario.node[29].veinsmobility  posx  ETV
vector 47822  IntersectionExampleScenario.node[29].veinsmobility  posy  ETV
vector 47823  IntersectionExampleScenario.node[29].veinsmobility  speed  ETV
vector 47824  IntersectionExampleScenario.node[29].veinsmobility  acceleration  ETV
vector 47825  IntersectionExampleScenario.node[29].veinsmobility  co2emission  ETV
vector 47828  IntersectionExampleScenario.node[30].veinsmobility  posx  ETV
vector 47829  IntersectionExampleScenario.node[30].veinsmobility  posy  ETV
vector 47830  IntersectionExampleScenario.node[30].veinsmobility  speed  ETV
vector 47831  IntersectionExampleScenario.node[30].veinsmobility  acceleration  ETV
vector 47832  IntersectionExampleScenario.node[30].veinsmobility  co2emission  ETV
47769	265704 4938 4014 9964 48 87.5 159 0.973 11.683791946581 532.98322627639 3332.3817878189
47768	270642 4745 4014 9964 48 87.5 159 -3.5784149169922 2.5 38.171613693237 303.84469607796
47767	275387 4992 3977 9964 47.75 87.5 160 5.6500000953674 15.699551582336 2214.1067829132 31529.79436688
47766	280379 5306 3942 9964 47.5 87.5 161 483.14999389648 735.06771850586 86343.994598389 47287670.35749
47765	285685 5284 3942 9964 47.5 87.5 161 184.17810058594 486.87738037109 64089.286621094 27293185.663488
47783	290969 4979 4240 10042 49.5 88 155 0.973 11.990504229548 533.79860428706 3058.7684330194
47782	295948 4734 4240 10042 49.5 88 155 -4.5 2.5 41.396924972534 269.90171013869
47781	300682 4895 4201 10042 49.25 88 156 5.6500000953674 16.125 2299.8746871948 34707.247838804
47780	305577 5181 4162 10042 49 88 157 483.14999389648 483.14999389648 75854.549041748 36649124.906541
47779	310758 5150 4162 10042 49 88 157 163.88433837891 733.01176452637 68638.8959198 34455872.566211
vector 47835  IntersectionExampleScenario.node[31].veinsmobility  posx  ETV
vector 47836  IntersectionExampleScenario.node[31].veinsmobility  posy  ETV
vector 47837  IntersectionExampleScenario.node[31].veinsmobility  speed  ETV
vector 47838  IntersectionExampleScenario.node[31].veinsmobility  acceleration  ETV
vector 47839  IntersectionExampleScenario.node[31].veinsmobility  co2emission  ETV
47790	316309 5059 5297 11132 56.25 95 156 0.97223939240464 11.648172402475 492.14756265096 2642.1924718167
47789	321368 4524 5297 11132 56.25 95 156 -4.0569152832031 2.5 38.680875778198 242.46457769804
47788	325892 4926 5256 11132 56 95 157 5.6500000953674 15.64999961853 2203.1433601379 31848.468064158
47787	330818 5234 5215 11132 55.75 95 158 483.14999389648 732.75762939453 84674.011520386 46324230.979592
47786	336052 5220 5215 11132 55.75 95 158 184.17810058594 487.02737426758 62846.969909668 26764852.304686
vector 47842  IntersectionExampleScenario.node[32].veinsmobility  posx  ETV
vector 47843  IntersectionExampleScenario.node[32].veinsmobility  posy  ETV
vector 47844  IntersectionExampleScenario.node[32].veinsmobility  speed  ETV
vector 47845  IntersectionExampleScenario.node[32].veinsmobility  acceleration  ETV
vector 47846  IntersectionExampleScenario.node[32].veinsmobility  co2emission  ETV
vector 47849  IntersectionExampleScenario.node[33].veinsmobility  posx  ETV
vector 47850  IntersectionExampleScenario.node[33].veinsmobility  posy  ETV
vector 47851  IntersectionExampleScenario.node[33].veinsmobility  speed  ETV
vector 47852  IntersectionExampleScenario.node[33].veinsmobility  acceleration  ETV
vector 47853  IntersectionExampleScenario.node[33].veinsmobility  co2emission  ETV
47811	342074 5005 7375 12870 69.5 107.75 154 0.973 12.099024792222 503.06032169341 2900.0431997035
47810	347079 4727 7375 12870 69.5 107.75 154 -3.2763252258301 2.5 40.038900375366 253.89157325251
47809	351806 4930 7336 12870 69.25 107.75 155 5.6500000953674 16.27499961853 2209.5418395996 32542.583874545
47808	356736 5250 7297 12870 69 107.75 156 483.14999389648 733.59259033203 83589.823303223 45727610.559691
47807	361986 5233 7297 12870 69 107.75 156 184.17810058594 486.88021850586 62083.112121582 26456249.551934
47622	367219 11464 8 13105 0.75 109.75 437 0.96333723109819 12.099024792222 817.9557790223 3451.921376436
47621	378683 10174 8 13105 0.75 109.75 437 -6.7176246643066 4 40.208654403687 485.26706844698
47620	388857 10359 5 13105 0.5 109.75 438 0 16.27499961853 2208.9459319115 32116.439878733
47619	399216 14466 2 13105 0.25 109.75 439 237.77221679688 785.82187652588 222507.5432663 116863557.65986
47618	413682 14484 2 13105 0.25 109.75 439 483.14999389648 483.14999389648 212102.84732056 102477489.38835
vector 47856  IntersectionExampleScenario.node[34].veinsmobility  posx  ETV
vector 47857  IntersectionExampleScenario.node[34].veinsmobility  posy  ETV
vector 47858  IntersectionExampleScenario.node[34].veinsmobility  speed  ETV
vector 47859  IntersectionExampleScenario.node[34].veinsmobility  acceleration  ETV
vector 47860  IntersectionExampleScenario.node[34].veinsmobility  co2emission  ETV
47629	428567 11791 24 13326 1.75 111.75 441 0.973 12.099024792222 835.82954075565 3490.6106517612
47628	440358 10618 24 13326 1.75 111.75 441 -4.5 2.5000019073486 41.057416915894 497.96181427771
47627	450976 10922 19 13326 1.5 111.75 442 0 16.27499961853 2307.1984237963 33767.162301851
47626	461898 14626 14 13326 1.25 111.75 443 236.37567138672 807.99687957764 228110.05644226 122052231.80712
47625	476524 14647 14 13326 1.25 111.75 443 483.14999389648 483.14999389648 214035.44729614 103411225.05476
47650	491171 12055 198 13646 6.75 114.75 433 0.973 11.90022389248 809.33247141075 3304.4161568024
47649	503226 11874 198 13646 6.75 114.75 433 -3.76868724823 2.5 39.699392318726 362.95866597196
47648	515100 11780 187 13646 6.5 114.75 434 0 16 2247.8520053374 30592.783160244
47647	526880 14439 176 13646 6.25 114.75 435 483.14999389648 795.32908630371 233158.58034515 127286477.37179
47646	541319 14454 176 13646 6.25 114.75 435 483.14999389648 733.50595092773 218425.9415741 110897490.30116
47671	555773 11838 549 13839 13 116.75 416 0.973 11.648172402475 772.92409584388 3104.2705138364
47670	567611 11877 549 13839 13 116.75 416 -3.7806887626648 2.5000009536743 38.511121749878 339.0643449246
47669	579488 11925 532 13839 12.75 116.75 417 0 15.64999961853 2218.7965746308 28900.001187527
47668	591413 13913 515 13839 12.5 116.75 418 236.16845703125 785.82187652588 217910.14208221 117783863.34888
47667	605326 13953 515 13839 12.5 116.75 418 483.14999389648 483.14999389648 201956.69744873 97575377.139709
vector 47863  IntersectionExampleScenario.node[35].veinsmobility  posx  ETV
vector 47864  IntersectionExampleScenario.node[35].veinsmobility  posy  ETV
vector 47865  IntersectionExampleScenario.node[35].veinsmobility  speed  ETV
vector 47866  IntersectionExampleScenario.node[35].veinsmobility  acceleration  ETV
vector 47867  IntersectionExampleScenario.node[35].veinsmobility  co2emission  ETV
47678	619680 12575 655 14247 14.5 121 427 0.973 10.916047529558 784.42087037548 2882.6451442519
47677	632255 12653 655 14247 14.5 121 427 -4.5 2.5 34.437047958374 445.4460094635
47676	644908 12571 636 14247 14.25 121 428 0 14.625 2261.1077438416 28060.614016718
47675	657479 14315 617 14247 14 121 429 486.83209228516 806.11563110352 235224.25714874 131422505.25161
47674	671794 14342 617 14247 14 121 429 237.79522705078 483.14999389648 198619.57479858 93195623.852867
47727	686136 10401 2356 14272 34.5 121.25 348 0.973 11.648172402475 728.13113273299 3195.9178954894
47726	696537 10667 2356 14272 34.5 121.25 348 -3.8777616024017 2.5000009536743 39.529638290405 355.06134097719
47725	707204 10730 2328 14272 34.25 121.25 349 0 15.64999961853 2224.3942368431 29502.730089495
47724	717934 11736 2299 14272 34 121.25 350 235.37030029297 785.82187652588 184933.27715302 101871289.82449
47723	729670 11770 2299 14272 34 121.25 350 483.14999389648 483.14999389648 169102.49786377 81701870.810761
47748	741440 9852 2890 14636 39.25 125 344 0.973 11.200708441096 722.54666684389 3153.3227898332
47747	751292 9608 2890 14636 39.25 125 344 -4.3059787750244 2.5 37.15309715271 500.10450235782
47746	760900 9673 2859 14636 39 125 345 0 15.02499961853 2186.268160522 28020.427392054
47745	770573 11650 2828 14636 38.75 125 346 486.85000610352 785.82187652588 192163.40816498 108589447.54597
47744	782223 11653 2828 14636 38.75 125 346 236.32348632812 483.14999389648 158786.50079346 74042080.543991
vector 47870  IntersectionExampleScenario.node[36].veinsmobility  posx  ETV
vector 47871  IntersectionExampleScenario.node[36].veinsmobility  posy  ETV
vector 47872  IntersectionExampleScenario.node[36].veinsmobility  speed  ETV
47797	794108 7701 6105 14704 61.25 125.75 259 0.973 11.54047740176 629.82394473096 3041.1293099427
47796	801809 7643 6105 14704 61.25 125.75 259 -4.5 4 37.492597579956 394.30500416391
47795	809452 7881 6064 14704 61 125.75 260 0 15.5 2207.6606457233 28561.379029474
47794	817333 8483 6023 14704 60.75 125.75 261 238.62469482422 785.82187652588 139105.50406647 78348521.236761
47793	825816 8871 6023 14704 60.75 125.75 261 483.14999389648 483.14999389648 126102.14840698 60926252.233167
vector 47877  IntersectionExampleScenario.node[37].veinsmobility  posx  ETV
vector 47878  IntersectionExampleScenario.node[37].veinsmobility  posy  ETV
vector 47873  IntersectionExampleScenario.node[36].veinsmobility  acceleration  ETV
vector 47874  IntersectionExampleScenario.node[36].veinsmobility  co2emission  ETV
vector 47879  IntersectionExampleScenario.node[37].veinsmobility  speed  ETV
vector 47880  IntersectionExampleScenario.node[37].veinsmobility  acceleration  ETV
vector 47881  IntersectionExampleScenario.node[37].veinsmobility  co2emission  ETV
vector 47884  IntersectionExampleScenario.node[38].veinsmobility  posx  ETV
vector 47885  IntersectionExampleScenario.node[38].veinsmobility  posy  ETV
vector 47886  IntersectionExampleScenario.node[38].veinsmobility  speed  ETV
47818	835489 6134 8946 14972 80.5 128.5 193 0.973 11.450879080643 574.8819858039 3076.3317535309
47817	841623 6187 8946 14972 80.5 128.5 193 -3.7041816711426 2.5 37.32285118103 349.33588238667
47816	847810 6394 8911 14972 80.25 128.5 194 3.8563787937164 15.375 2208.5038409233 27983.219578364
47815	854204 6703 8876 14972 80 128.5 195 483.14999389648 785.82187652588 111351.28136444 65400794.766114
47814	860907 6706 8876 14972 80 128.5 195 483.14999389648 733.42613220215 102775.36933899 55220209.687797
vector 47887  IntersectionExampleScenario.node[38].veinsmobility  acceleration  ETV
vector 47888  IntersectionExampleScenario.node[38].veinsmobility  co2emission  ETV
47832	867782 5514 9925 15144 87.25 130.25 173 0.973 11.36141391502 549.82370779633 3029.830722464
47831	873296 5444 9925 15144 87.25 130.25 173 -4.5974082946777 2.5 40.038900375366 316.50056559671
47830	878740 5712 9886 15144 87 130.25 174 5.6500000953674 15.684136390686 2190.0073184967 29285.448334075
47829	884452 6052 9847 15144 86.75 130.25 175 486.83056640625 785.82187652588 100189.21601105 59106603.793943
47828	890504 6063 9847 15144 86.75 130.25 175 235.30407714844 483.14999389648 76466.70111084 34368457.803233
vector 47891  IntersectionExampleScenario.node[39].veinsmobility  posx  ETV
vector 47892  IntersectionExampleScenario.node[39].veinsmobility  posy  ETV
vector 47893  IntersectionExampleScenario.node[39].veinsmobility  speed  ETV
vector 47894  IntersectionExampleScenario.node[39].veinsmobility  acceleration  ETV
vector 47895  IntersectionExampleScenario.node[39].veinsmobility  co2emission  ETV
vector 47898  IntersectionExampleScenario.node[40].veinsmobility  posx  ETV
vector 47899  IntersectionExampleScenario.node[40].veinsmobility  posy  ETV
vector 47900  IntersectionExampleScenario.node[40].veinsmobility  speed  ETV
vector 47901  IntersectionExampleScenario.node[40].veinsmobility  acceleration  ETV
vector 47902  IntersectionExampleScenario.node[40].veinsmobility  co2emission  ETV
47839	897369 5394 10669 15342 92 132.25 162 0.973 11.093806525473 481.4657318602 2553.7898290911
47838	902763 5256 10669 15342 92 132.25 162 -3.5934944152832 2.5 36.134572982788 208.22429172745
47837	908019 5459 10629 15342 91.75 132.25 163 5.6500000953674 14.875 2213.9537601471 30585.871145239
47836	913478 5684 10588 15342 91.5 132.25 164 237.26354980469 785.82187652588 85775.329391479 49156112.910851
47835	919162 5706 10588 15342 91.5 132.25 164 483.14999389648 483.14999389648 79236.598999023 38283162.322756
47846	924868 5453 11904 16077 100.5 140.25 160 0.973 11.450879080643 483.55874724144 2498.9327372035
47845	930321 4970 11904 16077 100.5 140.25 160 -3.2029113769531 2.5 36.98334312439 225.31289334086
47844	935291 5352 11869 16077 100.25 140.25 161 5.6500000953674 15.375 2213.4105415344 31255.671254689
47843	940643 5661 11834 16077 100 140.25 162 483.11968994141 785.82187652588 92608.073554993 54738492.660881
47842	946304 5664 11834 16077 100 140.25 162 483.14999389648 734.82073974609 86966.614944458 47679136.209281
47699	951968 12502 1552 16182 26 141.5 463 0.973 11.450879080643 816.65336947008 3065.3637973342
47698	964470 10980 1552 16182 26 141.5 463 -6.7711477279663 4 36.98334312439 456.08212473492
47697	975450 11331 1529 16182 25.75 141.5 464 0 15.375 2209.3353545666 30725.485793837
47696	986781 15728 1506 16182 25.5 141.5 465 486.85000610352 486.85000610352 226385.25283813 110215661.72599
47695	1002509 15721 1506 16182 25.5 141.5 465 237.32635498047 785.82187652588 235420.65442657 123440571.71529
47713	1018230 12506 2143 16308 32.5 143 443 0.973 11.54047740176 824.56010486165 3170.1625150794
47712	1030736 12038 2143 16308 32.5 143 443 -3.9604957103729 2.5000009536743 40.887662887573 368.58625044343
47711	1042774 12148 2118 16308 32.25 143 444 0 15.89402961731 2217.3869654359 31255.261115493
47710	1054922 15078 2093 16308 32 143 445 486.85000610352 486.85000610352 216648.25271606 105475203.15713
47709	1070000 15044 2093 16308 32 143 445 236.34240722656 785.82187652588 227663.31797028 120555575.00628
vector 47905  IntersectionExampleScenario.node[41].veinsmobility  posx  ETV
vector 47906  IntersectionExampleScenario.node[41].veinsmobility  posy  ETV
vector 47907  IntersectionExampleScenario.node[41].veinsmobility  speed  ETV
vector 47908  IntersectionExampleScenario.node[41].veinsmobility  acceleration  ETV
vector 47909  IntersectionExampleScenario.node[41].veinsmobility  co2emission  ETV
47720	1085445 13020 2272 16576 33.75 146 450 0.973 11.810082123732 840.96357070347 3373.4634856599
47719	1098465 12695 2272 16576 33.75 146 450 -4.5 2.5000004768372 39.869146347046 430.26419725519
47718	1111160 12791 2245 16576 33.5 146 451 0 15.875 2265.4354590178 29809.092001609
47717	1123951 15331 2218 16576 33.25 146 452 486.85000610352 731.7222442627 227971.05595398 116126949.43699
47716	1139282 15302 2218 16576 33.25 146 452 486.70593261719 807.09531402588 243618.03839874 133852258.03724
vector 47912  IntersectionExampleScenario.node[42].veinsmobility  posx  ETV
vector 47913  IntersectionExampleScenario.node[42].veinsmobility  posy  ETV
vector 47914  IntersectionExampleScenario.node[42].veinsmobility  speed  ETV
vector 47915  IntersectionExampleScenario.node[42].veinsmobility  acceleration  ETV
vector 47916  IntersectionExampleScenario.node[42].veinsmobility  co2emission  ETV
47755	1154985 12306 3545 16899 44.5 149.25 420 0.973 11.200708441096 752.4215599784 2823.6406365241
47754	1167291 12309 3545 16899 44.5 149.25 420 -3.8992128372192 2.5 35.285810470581 319.61346477072
47753	1179600 12365 3512 16899 44.25 149.25 421 0 15.02499961853 2219.5218283497 28350.739719038
47752	1191965 14370 3479 16899 44 149.25 422 486.85000610352 486.85000610352 205450.70257568 100023675.80294
47751	1206335 14340 3479 16899 44 149.25 422 235.87170410156 785.82187652588 219380.94608307 118382887.79663
vector 47919  IntersectionExampleScenario.node[43].veinsmobility  posx  ETV
vector 47920  IntersectionExampleScenario.node[43].veinsmobility  posy  ETV
vector 47921  IntersectionExampleScenario.node[43].veinsmobility  speed  ETV
vector 47922  IntersectionExampleScenario.node[43].veinsmobility  acceleration  ETV
vector 47923  IntersectionExampleScenario.node[43].veinsmobility  co2emission  ETV
47762	1221076 12530 3942 17080 47.5 151 415 0.973 11.810082123732 817.69369751631 3346.2120856578
47761	1233606 12650 3942 17080 47.5 151 415 -4.5 2.5000009536743 40.208654403687 453.67448433977
47760	1246256 12580 3909 17080 47.25 151 416 0 15.875 2232.7700888431 29297.321883551
47759	1258836 14209 3875 17080 47 151 417 486.85000610352 732.09620666504 210912.34051514 107811744.58407
47758	1273045 14172 3875 17080 47 151 417 486.84432983398 798.59687805176 228206.57944489 127082002.7516
vector 47926  IntersectionExampleScenario.node[44].veinsmobility  posx  ETV
vector 47927  IntersectionExampleScenario.node[44].veinsmobility  posy  ETV
47860	1287371 5484 13326 17296 111.75 153 166 0.973 11.90022389248 565.05335494949 3442.4804413695
47859	1292855 5296 13326 17296 111.75 153 166 -4.0672607421875 2.5 39.699392318726 347.88048349726
47858	1298151 5546 13297 17296 111.5 153 167 5.6500000953674 16 2207.291721344 30470.768977956
47857	1303697 5873 13268 17296 111.25 153 168 237.48333740234 486.85000610352 73601.475402832 33205975.802617
47856	1309570 5871 13268 17296 111.25 153 168 483.11901855469 785.82187652588 96007.005729675 56630724.671743
vector 47928  IntersectionExampleScenario.node[44].veinsmobility  speed  ETV
vector 47929  IntersectionExampleScenario.node[44].veinsmobility  acceleration  ETV
vector 47930  IntersectionExampleScenario.node[44].veinsmobility  co2emission  ETV
vector 47933  IntersectionExampleScenario.node[45].veinsmobility  posx  ETV
vector 47934  IntersectionExampleScenario.node[45].veinsmobility  posy  ETV
vector 47935  IntersectionExampleScenario.node[45].veinsmobility  speed  ETV
vector 47936  IntersectionExampleScenario.node[45].veinsmobility  acceleration  ETV
vector 47937  IntersectionExampleScenario.node[45].veinsmobility  co2emission  ETV
vector 47940  IntersectionExampleScenario.node[46].veinsmobility  posx  ETV
vector 47941  IntersectionExampleScenario.node[46].veinsmobility  posy  ETV
vector 47942  IntersectionExampleScenario.node[46].veinsmobility  speed  ETV
vector 47943  IntersectionExampleScenario.node[46].veinsmobility  acceleration  ETV
vector 47944  IntersectionExampleScenario.node[46].veinsmobility  co2emission  ETV
47776	1316490 13364 4051 19035 48.25 171 492 0.973 11.90022389248 866.12324356163 3356.986195711
47775	1329854 11734 4051 19035 48.25 171 492 -7.26416015625 4 39.699392318726 485.24838165171
47774	1341588 12006 4014 19035 48 171 493 0 16 2204.2749772072 31714.979998966
47773	1353594 16892 3977 19035 47.75 171 494 184.17810058594 486.85000610352 221363.49023438 101532103.41276
47772	1370486 16920 3977 19035 47.75 171 494 236.35540771484 486.85000610352 232244.85443115 110425645.06035
47804	1387406 11958 7297 19104 69 171.75 412 0.973 12.099024792222 794.09103677856 3412.3724799355
47803	1399364 11823 7297 19104 69 171.75 412 -3.8457043170929 2.5 41.227170944214 363.47187794516
47802	1411187 11763 7260 19104 68.75 171.75 413 0 16.27499961853 2220.8031266015 30686.659861764
47801	1422950 14246 7223 19104 68.5 171.75 414 184.17810058594 734.27587890625 189257.93730164 90592071.448613
47800	1437196 14288 7223 19104 68.5 171.75 414 486.85000610352 486.85000610352 201555.90252686 98127492.3754
47867	1451484 6988 14096 19288 119.5 173.75 218 0.973 12.099024792222 600.3560333982 3232.6635152627
47866	1458472 7206 14096 19288 119.5 173.75 218 -3.7738831043243 2.5 41.227170944214 354.24540673787
47865	1465678 7480 14071 19288 119.25 173.75 219 0 16.27499961853 2221.381573068 30608.444198739
47864	1473158 7668 14046 19288 119 173.75 220 184.17810058594 734.14749145508 98587.614868164 48224357.571905
47863	1480826 7700 14046 19288 119 173.75 220 486.85000610352 486.85000610352 107107.00134277 52145044.257458
vector 47947  IntersectionExampleScenario.node[47].veinsmobility  posx  ETV
vector 47948  IntersectionExampleScenario.node[47].veinsmobility  posy  ETV
vector 47949  IntersectionExampleScenario.node[47].veinsmobility  speed  ETV
vector 47950  IntersectionExampleScenario.node[47].veinsmobility  acceleration  ETV
vector 47951  IntersectionExampleScenario.node[47].veinsmobility  co2emission  ETV
vector 47954  IntersectionExampleScenario.node[48].veinsmobility  posx  ETV
vector 47955  IntersectionExampleScenario.node[48].veinsmobility  posy  ETV
vector 47956  IntersectionExampleScenario.node[48].veinsmobility  speed  ETV
vector 47957  IntersectionExampleScenario.node[48].veinsmobility  acceleration  ETV
vector 47958  IntersectionExampleScenario.node[48].veinsmobility  co2emission  ETV
47874	1489328 6416 14727 19548 126 176.25 202 0.973 11.648172402475 559.44597527864 2886.1707775617
47873	1495744 6547 14727 19548 126 176.25 202 -2.4671020507812 2.5 38.850629806519 316.08254125342
47872	1502291 6912 14704 19548 125.75 176.25 203 1.8545093536377 15.64999961853 2222.3098293543 29008.791639506
47871	1509203 7107 14681 19548 125.5 176.25 204 184.17810058594 734.63444519043 90762.440139771 44568045.423548
47870	1516310 7140 14681 19548 125.5 176.25 204 486.85000610352 486.85000610352 99317.401245117 48352677.40237
47895	1523450 6024 15263 19764 131.5 178.25 188 0.973 12.26218747632 585.7100554539 3352.1068584188
47894	1529474 6057 15263 19764 131.5 178.25 188 -4.5 2.5000019073486 42.585195541382 431.80603659953
47893	1535531 6271 15238 19764 131.25 178.25 189 1.4433431625366 16.5 2179.6301431656 29871.008154976
47892	1541802 6618 15213 19764 131 178.25 190 184.17810058594 483.14999389648 76674.686157227 32688688.342505
47891	1548420 6639 15213 19764 131 178.25 190 486.85000610352 731.58116149902 100100.16159058 53665178.815164
vector 47961  IntersectionExampleScenario.node[49].veinsmobility  posx  ETV
vector 47962  IntersectionExampleScenario.node[49].veinsmobility  posy  ETV
vector 47963  IntersectionExampleScenario.node[49].veinsmobility  speed  ETV
vector 47964  IntersectionExampleScenario.node[49].veinsmobility  acceleration  ETV
vector 47965  IntersectionExampleScenario.node[49].veinsmobility  co2emission  ETV
vector 47968  IntersectionExampleScenario.node[50].veinsmobility  posx  ETV
vector 47969  IntersectionExampleScenario.node[50].veinsmobility  posy  ETV
vector 47970  IntersectionExampleScenario.node[50].veinsmobility  speed  ETV
vector 47971  IntersectionExampleScenario.node[50].veinsmobility  acceleration  ETV
vector 47972  IntersectionExampleScenario.node[50].veinsmobility  co2emission  ETV
vector 47975  IntersectionExampleScenario.node[51].veinsmobility  posx  ETV
vector 47976  IntersectionExampleScenario.node[51].veinsmobility  posy  ETV
vector 47982  IntersectionExampleScenario.node[52].veinsmobility  posx  ETV
vector 47983  IntersectionExampleScenario.node[52].veinsmobility  posy  ETV
vector 47977  IntersectionExampleScenario.node[51].veinsmobility  speed  ETV
vector 47978  IntersectionExampleScenario.node[51].veinsmobility  acceleration  ETV
vector 47979  IntersectionExampleScenario.node[51].veinsmobility  co2emission  ETV
vector 47984  IntersectionExampleScenario.node[52].veinsmobility  speed  ETV
vector 47985  IntersectionExampleScenario.node[52].veinsmobility  acceleration  ETV
vector 47986  IntersectionExampleScenario.node[52].veinsmobility  co2emission  ETV
vector 47989  IntersectionExampleScenario.node[53].veinsmobility  posx  ETV
vector 47990  IntersectionExampleScenario.node[53].veinsmobility  posy  ETV
vector 47991  IntersectionExampleScenario.node[53].veinsmobility  speed  ETV
vector 47992  IntersectionExampleScenario.node[53].veinsmobility  acceleration  ETV
vector 47993  IntersectionExampleScenario.node[53].veinsmobility  co2emission  ETV
47825	1557064 13250 9440 22042 84 202 473 0.973 11.200708441096 812.4813390446 2896.0856377063
47824	1570314 11600 9440 22042 84 202 473 -7.2451009750366 4 35.455564498901 448.19107443402
47823	1581914 12003 9403 22042 83.75 202 474 0 15.02499961853 2181.8694725037 29453.478786619
47822	1593917 16477 9366 22042 83.5 202 475 235.55383300781 483.14999389648 220837.09899902 103940468.07574
47821	1610394 16511 9366 22042 83.5 202 475 184.17810058594 483.36395263672 211667.7791748 96694733.103423
vector 47996  IntersectionExampleScenario.node[54].veinsmobility  posx  ETV
vector 47997  IntersectionExampleScenario.node[54].veinsmobility  posy  ETV
vector 47998  IntersectionExampleScenario.node[54].veinsmobility  speed  ETV
vector 47999  IntersectionExampleScenario.node[54].veinsmobility  acceleration  ETV
vector 48000  IntersectionExampleScenario.node[54].veinsmobility  co2emission  ETV
47881	1627306 9817 14777 22279 126.5 204.25 312 0.973 11.200708441096 660.50267909715 2747.6053766855
47880	1637123 10020 14777 22279 126.5 204.25 312 -3.8910021781921 2.5 36.98334312439 315.51095151074
47879	1647143 10082 14752 22279 126.25 204.25 313 0 15.02499961853 2180.9036724856 28196.479344686
47878	1657225 10979 14727 22279 126 204.25 314 237.35583496094 483.14999389648 143374.97845459 66606471.733624
47877	1668204 10947 14727 22279 126 204.25 314 184.17810058594 483.15682983398 134330.27062988 59562081.409241
47888	1679151 10094 14997 22468 128.75 206 310 0.973 11.450879080643 686.64809048853 2955.9710550571
47887	1689245 10427 14997 22468 128.75 206 310 -4.5 2.5 38.511121749878 402.37599875456
47886	1699672 10558 14972 22468 128.5 206 311 0 15.375 2274.1676597549 29736.340687606
47885	1710230 10910 14947 22468 128.25 206 312 483.14999389648 732.90386962891 159114.80593872 82313800.848936
47884	1721140 10885 14947 22468 128.25 206 312 167.29217529297 486.85000610352 130983.38967896 57335988.159281
vector 48003  IntersectionExampleScenario.node[55].veinsmobility  posx  ETV
vector 48004  IntersectionExampleScenario.node[55].veinsmobility  posy  ETV
vector 48005  IntersectionExampleScenario.node[55].veinsmobility  speed  ETV
vector 48006  IntersectionExampleScenario.node[55].veinsmobility  acceleration  ETV
vector 48007  IntersectionExampleScenario.node[55].veinsmobility  co2emission  ETV
47923	1732426 7423 17053 22746 150.75 208.5 232 0.97223939240464 11.648172402475 598.84890913463 2991.350895941
47922	1739849 7470 17053 22746 150.75 208.5 232 -3.8460500240326 2.5 38.680875778198 354.2221741225
47921	1747319 7828 17026 22746 150.5 208.5 233 0 15.64999961853 2179.6319026761 28279.252773747
47920	1755147 8186 16999 22746 150.25 208.5 234 238.5146484375 483.14999389648 105010.9342041 48155042.188081
47919	1763333 8156 16999 22746 150.25 208.5 234 184.17810058594 483.22210693359 96304.31262207 41493902.089734
47937	1771489 6590 17821 22804 157.75 209 206 0.973 11.990504229548 575.36303925909 3070.6262496698
47936	1778079 6762 17821 22804 157.75 209 206 -3.6431231498718 2.5 41.227170944214 344.29796432302
47935	1784841 6995 17794 22804 157.5 209 207 0 16.125 2214.196833957 30249.364701362
47934	1791836 7280 17767 22804 157.25 209 208 483.14999389648 483.14999389648 100495.19873047 48554254.653252
47933	1799116 7253 17767 22804 157.25 209 208 184.17810058594 732.11730957031 92308.441604614 44981245.697016
vector 48010  IntersectionExampleScenario.node[56].veinsmobility  posx  ETV
vector 48011  IntersectionExampleScenario.node[56].veinsmobility  posy  ETV
vector 48012  IntersectionExampleScenario.node[56].veinsmobility  speed  ETV
vector 48013  IntersectionExampleScenario.node[56].veinsmobility  acceleration  ETV
vector 48014  IntersectionExampleScenario.node[56].veinsmobility  co2emission  ETV
47944	1806770 5716 18667 23071 167 211.25 178 0.973 11.648172402475 546.35280437595 3050.8993206512
47943	1812486 5896 18667 23071 167 211.25 178 -2.3457832336426 2.5 39.869146347046 288.72321637771
47942	1818382 6032 18644 23071 166.75 211.25 179 4.8245935440063 16.100963592529 2213.0968089104 29872.403525171
47941	1824414 6300 18621 23071 166.5 211.25 180 483.14999389648 483.14999389648 86966.998901367 42018104.988391
47940	1830714 6273 18621 23071 166.5 211.25 180 184.17810058594 732.37622070312 79785.586502075 39452909.104291
vector 48017  IntersectionExampleScenario.node[57].veinsmobility  posx  ETV
vector 48018  IntersectionExampleScenario.node[57].veinsmobility  posy  ETV
vector 48019  IntersectionExampleScenario.node[57].veinsmobility  speed  ETV
vector 48024  IntersectionExampleScenario.node[58].veinsmobility  posx  ETV
vector 48025  IntersectionExampleScenario.node[58].veinsmobility  posy  ETV
vector 48020  IntersectionExampleScenario.node[57].veinsmobility  acceleration  ETV
vector 48021  IntersectionExampleScenario.node[57].veinsmobility  co2emission  ETV
vector 48026  IntersectionExampleScenario.node[58].veinsmobility  speed  ETV
vector 48027  IntersectionExampleScenario.node[58].veinsmobility  acceleration  ETV
vector 48028  IntersectionExampleScenario.node[58].veinsmobility  co2emission  ETV
vector 48031  IntersectionExampleScenario.node[59].veinsmobility  posx  ETV
vector 48032  IntersectionExampleScenario.node[59].veinsmobility  posy  ETV
vector 48038  IntersectionExampleScenario.node[60].veinsmobility  posx  ETV
vector 48039  IntersectionExampleScenario.node[60].veinsmobility  posy  ETV
vector 48033  IntersectionExampleScenario.node[59].veinsmobility  speed  ETV
vector 48034  IntersectionExampleScenario.node[59].veinsmobility  acceleration  ETV
vector 48035  IntersectionExampleScenario.node[59].veinsmobility  co2emission  ETV
vector 48040  IntersectionExampleScenario.node[60].veinsmobility  speed  ETV
vector 48041  IntersectionExampleScenario.node[60].veinsmobility  acceleration  ETV
vector 48042  IntersectionExampleScenario.node[60].veinsmobility  co2emission  ETV
vector 48045  IntersectionExampleScenario.node[61].veinsmobility  posx  ETV
vector 48046  IntersectionExampleScenario.node[61].veinsmobility  posy  ETV
vector 48047  IntersectionExampleScenario.node[61].veinsmobility  speed  ETV
vector 48048  IntersectionExampleScenario.node[61].veinsmobility  acceleration  ETV
vector 48049  IntersectionExampleScenario.node[61].veinsmobility  co2emission  ETV
vector 48052  IntersectionExampleScenario.node[62].veinsmobility  posx  ETV
vector 48053  IntersectionExampleScenario.node[62].veinsmobility  posy  ETV
vector 48054  IntersectionExampleScenario.node[62].veinsmobility  speed  ETV
vector 48055  IntersectionExampleScenario.node[62].veinsmobility  acceleration  ETV
vector 48056  IntersectionExampleScenario.node[62].veinsmobility  co2emission  ETV
vector 48059  IntersectionExampleScenario.node[63].veinsmobility  posx  ETV
vector 48060  IntersectionExampleScenario.node[63].veinsmobility  posy  ETV
vector 48061  IntersectionExampleScenario.node[63].veinsmobility  speed  ETV
vector 48062  IntersectionExampleScenario.node[63].veinsmobility  acceleration  ETV
vector 48063  IntersectionExampleScenario.node[63].veinsmobility  co2emission  ETV
vector 48066  IntersectionExampleScenario.node[64].veinsmobility  posx  ETV
vector 48067  IntersectionExampleScenario.node[64].veinsmobility  posy  ETV
vector 48073  IntersectionExampleScenario.node[65].veinsmobility  posx  ETV
vector 48074  IntersectionExampleScenario.node[65].veinsmobility  posy  ETV
vector 48068  IntersectionExampleScenario.node[64].veinsmobility  speed  ETV
vector 48069  IntersectionExampleScenario.node[64].veinsmobility  acceleration  ETV
vector 48070  IntersectionExampleScenario.node[64].veinsmobility  co2emission  ETV
vector 48075  IntersectionExampleScenario.node[65].veinsmobility  speed  ETV
vector 48076  IntersectionExampleScenario.node[65].veinsmobility  acceleration  ETV
vector 48077  IntersectionExampleScenario.node[65].veinsmobility  co2emission  ETV
47853	1840596 14679 12010 25975 101.25 232.25 525 0.973 10.916047529558 862.4019044125 2826.9895677872
47852	1855275 12945 12010 25975 101.25 232.25 525 -7.2349882125854 4 34.437047958374 439.93428101347
47851	1868220 13306 11975 25975 101 232.25 526 0 14.699697494507 2274.3867909908 30273.903900142
47850	1881526 18437 11939 25975 100.75 232.25 527 486.63604736328 808.82032012939 277404.67644501 149044004.50526
47849	1899963 18376 11939 25975 100.75 232.25 527 235.35296630859 483.14999389648 245804.09014893 115955572.8063
47916	1918339 10653 16649 26160 146.75 233.5 348 0.973 11.648172402475 711.59269041151 2993.1975193421
47915	1928992 11122 16649 26160 146.75 233.5 348 -3.7703127861023 2.5 39.137083053589 326.51261788277
47914	1940114 10833 16624 26160 146.5 233.5 349 0 15.64999961853 2185.4872031221 28882.714591893
47913	1950947 12232 16599 26160 146.25 233.5 350 486.66497802734 785.82187652588 188232.46949005 103348193.37193
47912	1963179 12247 16599 26160 146.25 233.5 350 236.87640380859 483.14999389648 160952.55712891 75159825.290253
vector 48080  IntersectionExampleScenario.node[66].veinsmobility  posx  ETV
vector 48081  IntersectionExampleScenario.node[66].veinsmobility  posy  ETV
vector 48082  IntersectionExampleScenario.node[66].veinsmobility  speed  ETV
vector 48083  IntersectionExampleScenario.node[66].veinsmobility  acceleration  ETV
vector 48084  IntersectionExampleScenario.node[66].veinsmobility  co2emission  ETV
47930	1975827 10471 17354 26634 153.5 236.75 334 0.973 11.00486315618 670.59131414878 2686.3101357019
47929	1986298 10754 17354 26634 153.5 236.75 334 -3.7996220588684 2.5 34.267293930054 318.31861997951
47928	1997052 10846 17325 26634 153.25 236.75 335 0 14.75 2204.2132047229 27102.276643034
47927	2007898 11739 17296 26634 153 236.75 336 483.14068603516 785.82187652588 182734.34660339 101508958.24231
47926	2019637 11749 17296 26634 153 236.75 336 483.14999389648 732.80905151367 171286.92710876 88572130.570348
47951	2031386 8289 19361 26893 174.5 238.5 257 0.973 11.36141391502 615.77062146679 2870.8647120583
47950	2039675 8529 19361 26893 174.5 238.5 257 -3.8227872848511 2.5 37.492597579956 342.50455100179
47949	2048204 8695 19336 26893 174.25 238.5 258 0 15.25 2178.9074980319 27901.35199707
47948	2056899 9042 19311 26893 174 238.5 259 486.83129882812 785.82187652588 143678.3068924 81618072.355509
47947	2065941 9052 19311 26893 174 238.5 259 238.41687011719 483.14999389648 116938.56533813 53871223.768785
47986	2074993 5558 21633 27069 197.75 239.75 169 0.973 12.099024792222 568.15780582745 3256.2770600765
47985	2080551 5509 21633 27069 197.75 239.75 169 -2.941707611084 2.5 41.227170944214 326.85356369766
47984	2086060 5671 21610 27069 197.5 239.75 170 5.6500000953674 16.27499961853 2215.7774772644 30645.827693211
47983	2091731 5979 21587 27069 197.25 239.75 171 483.13119506836 785.82187652588 97479.743019104 57327010.891902
47982	2097710 5970 21587 27069 197.25 239.75 171 483.14999389648 734.99095153809 90826.990371704 49220205.655165
vector 48087  IntersectionExampleScenario.node[67].veinsmobility  posx  ETV
vector 48088  IntersectionExampleScenario.node[67].veinsmobility  posy  ETV
vector 48089  IntersectionExampleScenario.node[67].veinsmobility  speed  ETV
vector 48090  IntersectionExampleScenario.node[67].veinsmobility  acceleration  ETV
vector 48091  IntersectionExampleScenario.node[67].veinsmobility  co2emission  ETV
47993	2104081 5670 21867 27499 200.25 242.75 171 0.973 11.648172402475 514.71598924205 2798.9946224649
47992	2109751 5472 21867 27499 200.25 242.75 171 -4.5 2.5 38.341367721558 273.89309441474
47991	2115223 5698 21842 27499 200 242.75 172 5.6500000953674 15.64999961853 2249.2234892845 30811.603710104
47990	2120921 6047 21817 27499 199.75 242.75 173 486.84130859375 801.41563415527 99903.069740295 59683864.278402
47989	2126968 6045 21817 27499 199.75 242.75 173 236.28863525391 483.14999389648 75355.650878906 33781383.650095
vector 48094  IntersectionExampleScenario.node[68].veinsmobility  posx  ETV
vector 48095  IntersectionExampleScenario.node[68].veinsmobility  posy  ETV
vector 48101  IntersectionExampleScenario.node[69].veinsmobility  posx  ETV
vector 48102  IntersectionExampleScenario.node[69].veinsmobility  posy  ETV
vector 48096  IntersectionExampleScenario.node[68].veinsmobility  speed  ETV
vector 48097  IntersectionExampleScenario.node[68].veinsmobility  acceleration  ETV
vector 48098  IntersectionExampleScenario.node[68].veinsmobility  co2emission  ETV
vector 48103  IntersectionExampleScenario.node[69].veinsmobility  speed  ETV
vector 48104  IntersectionExampleScenario.node[69].veinsmobility  acceleration  ETV
vector 48105  IntersectionExampleScenario.node[69].veinsmobility  co2emission  ETV
vector 48108  IntersectionExampleScenario.node[70].veinsmobility  posx  ETV
vector 48109  IntersectionExampleScenario.node[70].veinsmobility  posy  ETV
vector 48110  IntersectionExampleScenario.node[70].veinsmobility  speed  ETV
vector 48111  IntersectionExampleScenario.node[70].veinsmobility  acceleration  ETV
vector 48112  IntersectionExampleScenario.node[70].veinsmobility  co2emission  ETV
vector 48115  IntersectionExampleScenario.node[71].veinsmobility  posx  ETV
vector 48116  IntersectionExampleScenario.node[71].veinsmobility  posy  ETV
vector 48117  IntersectionExampleScenario.node[71].veinsmobility  speed  ETV
vector 48118  IntersectionExampleScenario.node[71].veinsmobility  acceleration  ETV
vector 48119  IntersectionExampleScenario.node[71].veinsmobility  co2emission  ETV
48014	2134617 5483 23040 28655 211 250.75 160 0.973 11.200708441096 454.78650599077 2190.3074413497
48013	2140100 4966 23040 28655 211 250.75 160 -3.1778335571289 2.5 35.455564498901 171.03101740571
48012	2145066 5420 23009 28655 210.75 250.75 161 5.6500000953674 15.02499961853 2219.631685257 31094.052777967
48011	2150486 5655 22978 28655 210.5 250.75 162 235.83654785156 785.82187652588 84224.071556091 48093965.194114
48010	2156141 5671 22978 28655 210.5 250.75 162 483.14999389648 483.14999389648 78270.29901123 37816294.489552
vector 48122  IntersectionExampleScenario.node[72].veinsmobility  posx  ETV
vector 48123  IntersectionExampleScenario.node[72].veinsmobility  posy  ETV
vector 48124  IntersectionExampleScenario.node[72].veinsmobility  speed  ETV
48021	2162044 5341 23653 29206 216 254.75 156 0.973 11.450879080643 493.52996881065 2560.5732658263
48020	2167385 4614 23653 29206 216 254.75 156 -3.8509559631348 2.5 38.850629806519 237.03885883422
48019	2171999 5213 23622 29206 215.75 254.75 157 5.6500000953674 15.380670547485 2205.814207077 31931.344906717
48018	2177212 5523 23591 29206 215.5 254.75 158 482.94818115234 785.82187652588 90415.59198761 53509006.811872
48017	2182735 5526 23591 29206 215.5 254.75 158 483.14999389648 733.18492126465 84681.514144897 46334851.757573
vector 48125  IntersectionExampleScenario.node[72].veinsmobility  acceleration  ETV
vector 48126  IntersectionExampleScenario.node[72].veinsmobility  co2emission  ETV
vector 48129  IntersectionExampleScenario.node[73].veinsmobility  posx  ETV
vector 48130  IntersectionExampleScenario.node[73].veinsmobility  posy  ETV
vector 48131  IntersectionExampleScenario.node[73].veinsmobility  speed  ETV
vector 48132  IntersectionExampleScenario.node[73].veinsmobility  acceleration  ETV
vector 48133  IntersectionExampleScenario.node[73].veinsmobility  co2emission  ETV
48028	2188831 5971 23719 29917 216.5 260.25 176 0.973 10.916047529558 497.6183896915 2357.8966209437
48027	2194802 5545 23719 29917 216.5 260.25 176 -4.0145378112793 2.5 34.267293930054 241.12774673369
48026	2200347 5895 23686 29917 216.25 260.25 177 5.6500000953674 14.704748153687 2281.8184719086 30507.48054223
48025	2206242 6220 23653 29917 216 260.25 178 486.81008911133 809.56562805176 103779.53910065 62764895.524605
48024	2212462 6225 23653 29917 216 260.25 178 235.67486572266 483.14999389648 77181.68170166 34482782.991258
48042	2218687 5795 24011 29979 218.75 260.75 169 0.973 11.093806525473 501.55621103869 2408.2908486518
48041	2224482 5153 24011 29979 218.75 260.75 169 -4.5 2.5 35.964826583862 229.04167383496
48040	2229635 5734 23976 29979 218.5 260.75 170 5.6500000953674 14.875 2328.1836709976 32473.005266766
48039	2235369 5976 23941 29979 218.25 260.75 171 237.89630126953 814.72562408447 91565.259597778 53962574.190081
48038	2241345 5987 23941 29979 218.25 260.75 171 483.14999389648 483.14999389648 82618.648956299 39917199.738971
47902	2247332 14369 15342 30103 132.25 261.75 519 0.973 12.26218747632 906.62740813207 3637.5058554709
47901	2261701 12620 15342 30103 132.25 261.75 519 -23.675277709961 4 41.227170944214 977.06850332913
47900	2274321 12796 15315 30103 132 261.75 520 0 16.5 2184.4966421127 32228.634781764
47899	2287117 18157 15288 30103 131.75 261.75 521 486.85000610352 735.02058410645 261598.11572266 132538953.93901
47898	2305274 18230 15288 30103 131.75 261.75 521 486.63604736328 785.82187652588 271298.71216583 143583170.58657
vector 48136  IntersectionExampleScenario.node[74].veinsmobility  posx  ETV
vector 48137  IntersectionExampleScenario.node[74].veinsmobility  posy  ETV
47909	2323658 13913 16438 30413 144.5 264.25 480 0.93438186594183 12.26218747632 858.795915078 3552.4581143129
47908	2337571 13669 16438 30413 144.5 264.25 480 -3.9311535358429 2.5 41.057416915894 363.22993835842
47907	2351240 13513 16415 30413 144.25 264.25 481 0 16.5 2190.2900493555 29838.726960093
47906	2364753 16863 16392 30413 144 264.25 482 486.85000610352 734.44497680664 242590.69088745 123269574.90452
47905	2381616 16844 16392 30413 144 264.25 482 486.85000610352 785.82187652588 254685.25402069 136762627.73215
vector 48138  IntersectionExampleScenario.node[74].veinsmobility  speed  ETV
vector 48139  IntersectionExampleScenario.node[74].veinsmobility  acceleration  ETV
vector 48140  IntersectionExampleScenario.node[74].veinsmobility  co2emission  ETV
47965	2398707 9542 21078 30668 191.25 266.25 301 0.97223939240464 11.648172402475 665.26843262171 2931.8871883535
47964	2408249 9954 21078 30668 191.25 266.25 301 -3.7719831466675 2.5 38.680875778198 330.87324090444
47963	2418203 9982 21055 30668 191 266.25 302 0 15.64999961853 2209.1048728283 29410.858991139
47962	2428185 10605 21032 30668 190.75 266.25 303 486.85000610352 486.85000610352 147515.55184937 71817947.318227
47961	2438790 10589 21032 30668 190.75 266.25 303 238.63549804688 785.82187652588 157304.45246124 85774788.087949
vector 48143  IntersectionExampleScenario.node[75].veinsmobility  posx  ETV
vector 48144  IntersectionExampleScenario.node[75].veinsmobility  posy  ETV
vector 48145  IntersectionExampleScenario.node[75].veinsmobility  speed  ETV
vector 48146  IntersectionExampleScenario.node[75].veinsmobility  acceleration  ETV
vector 48147  IntersectionExampleScenario.node[75].veinsmobility  co2emission  ETV
48035	2449780 6670 23976 31180 218.5 270.25 208 0.973 11.36141391502 568.28561732221 2864.900114648
48034	2456450 6825 23976 31180 218.5 270.25 208 -4.5 2.5 36.813589096069 397.358628985
48033	2463275 6995 23941 31180 218.25 270.25 209 0.32102477550507 15.25 2184.0850141346 27876.179250525
48032	2470270 7343 23908 31180 218 270.25 210 486.85000610352 732.94071960449 110609.66775513 59295590.046895
48031	2477613 7334 23908 31180 218 270.25 210 486.85000610352 785.82187652588 118301.17658234 68484285.320198
vector 48150  IntersectionExampleScenario.node[76].veinsmobility  posx  ETV
vector 48151  IntersectionExampleScenario.node[76].veinsmobility  posy  ETV
vector 48152  IntersectionExampleScenario.node[76].veinsmobility  speed  ETV
vector 48153  IntersectionExampleScenario.node[76].veinsmobility  acceleration  ETV
vector 48154  IntersectionExampleScenario.node[76].veinsmobility  co2emission  ETV
48077	2485348 5900 25087 31381 226.25 271.75 183 0.973 11.450879080643 531.891190507 2836.2525088614
48076	2491248 5973 25087 31381 226.25 271.75 183 -3.5846672058105 2.5 37.32285118103 347.2221035991
48075	2497221 6152 25049 31381 226 271.75 184 3.8340165615082 15.375 2069.9798650742 26474.715067731
48074	2503373 6467 25010 31381 225.75 271.75 185 237.61083984375 486.85000610352 81579.472015381 36995009.665727
48073	2509840 6456 25010 31381 225.75 271.75 185 483.12329101562 752.70781707764 102901.71598816 58586203.905144
vector 48157  IntersectionExampleScenario.node[77].veinsmobility  posx  ETV
vector 48158  IntersectionExampleScenario.node[77].veinsmobility  posy  ETV
vector 48159  IntersectionExampleScenario.node[77].veinsmobility  speed  ETV
48063	2516528 6428 24763 31548 224 273 197 0.973 11.54047740176 580.98976333341 2948.4437579796
48062	2522956 6480 24763 31548 224 273 197 -4.5 2.5 37.492597579956 421.29583270289
48061	2529436 6701 24727 31548 223.75 273 198 3.6794776916504 15.5 2210.6798996925 27845.85593099
48060	2536137 6964 24690 31548 223.5 273 199 486.85000610352 486.85000610352 96883.1512146 47167562.760155
48059	2543101 6949 24690 31548 223.5 273 199 238.22302246094 785.82187652588 106393.13287354 61404452.118449
vector 48160  IntersectionExampleScenario.node[77].veinsmobility  acceleration  ETV
vector 48161  IntersectionExampleScenario.node[77].veinsmobility  co2emission  ETV
vector 48164  IntersectionExampleScenario.node[78].veinsmobility  posx  ETV
vector 48165  IntersectionExampleScenario.node[78].veinsmobility  posy  ETV
vector 48166  IntersectionExampleScenario.node[78].veinsmobility  speed  ETV
vector 48167  IntersectionExampleScenario.node[78].veinsmobility  acceleration  ETV
vector 48168  IntersectionExampleScenario.node[78].veinsmobility  co2emission  ETV
48070	2550620 6572 25049 31871 226 275.25 198 0.973 11.36141391502 617.74999024346 3086.746367964
48069	2557192 6398 25049 31871 226 275.25 198 -4.5 2.5 41.396924972534 449.41912364051
48068	2563590 6659 25010 31871 225.75 275.25 199 2.9673871994019 16.048252105713 2260.8558392525 29617.006706668
48067	2570249 6975 24973 31871 225.5 275.25 200 486.85000610352 734.0944519043 105263.8356781 56384386.86279
48066	2577224 6984 24973 31871 225.5 275.25 200 486.85000610352 803.92188262939 115750.35681152 69135567.52392
vector 48171  IntersectionExampleScenario.node[79].veinsmobility  posx  ETV
vector 48172  IntersectionExampleScenario.node[79].veinsmobility  posy  ETV
vector 48178  IntersectionExampleScenario.node[80].veinsmobility  posx  ETV
vector 48179  IntersectionExampleScenario.node[80].veinsmobility  posy  ETV
vector 48173  IntersectionExampleScenario.node[79].veinsmobility  speed  ETV
vector 48174  IntersectionExampleScenario.node[79].veinsmobility  acceleration  ETV
vector 48175  IntersectionExampleScenario.node[79].veinsmobility  co2emission  ETV
vector 48180  IntersectionExampleScenario.node[80].veinsmobility  speed  ETV
vector 48181  IntersectionExampleScenario.node[80].veinsmobility  acceleration  ETV
vector 48182  IntersectionExampleScenario.node[80].veinsmobility  co2emission  ETV
48091	2585010 5441 27389 32723 242 281.5 159 0.973 11.200708441096 454.44115847746 2201.1716716901
48090	2590451 5291 27389 32723 242 281.5 159 -3.1100654602051 2.5 35.795072555542 169.08547054191
48089	2595742 5383 27352 32723 241.75 281.5 160 5.6500000953674 15.02499961853 2213.6661729813 31138.058745982
48088	2601125 5635 27315 32723 241.5 281.5 161 486.85000610352 486.85000610352 78382.850982666 38160691.479322
48087	2606760 5614 27315 32723 241.5 281.5 161 237.31512451172 785.82187652588 83835.557746887 47910407.586171
vector 48185  IntersectionExampleScenario.node[81].veinsmobility  posx  ETV
vector 48186  IntersectionExampleScenario.node[81].veinsmobility  posy  ETV
vector 48192  IntersectionExampleScenario.node[82].veinsmobility  posx  ETV
vector 48193  IntersectionExampleScenario.node[82].veinsmobility  posy  ETV
vector 48187  IntersectionExampleScenario.node[81].veinsmobility  speed  ETV
48112	2612760 5651 28256 33637 248 288.75 164 0.973 10.756497587458 443.54112049176 1957.4547978789
48111	2618411 5069 28256 33637 248 288.75 164 -3.2279281616211 2.5 33.588277816772 155.07748401861
48110	2623480 5570 28219 33637 247.75 288.75 165 5.6500000953674 14.39999961853 2216.0168819427 30169.806260245
48109	2629050 5811 28182 33637 247.5 288.75 166 486.85000610352 486.85000610352 80817.101013184 39345806.121537
48108	2634861 5788 28182 33637 247.5 288.75 166 236.56817626953 785.82187652588 86263.655250549 49224757.692492
vector 48188  IntersectionExampleScenario.node[81].veinsmobility  acceleration  ETV
vector 48189  IntersectionExampleScenario.node[81].veinsmobility  co2emission  ETV
vector 48194  IntersectionExampleScenario.node[82].veinsmobility  speed  ETV
vector 48195  IntersectionExampleScenario.node[82].veinsmobility  acceleration  ETV
vector 48196  IntersectionExampleScenario.node[82].veinsmobility  co2emission  ETV
vector 48199  IntersectionExampleScenario.node[83].veinsmobility  posx  ETV
vector 48200  IntersectionExampleScenario.node[83].veinsmobility  posy  ETV
vector 48201  IntersectionExampleScenario.node[83].veinsmobility  speed  ETV
vector 48202  IntersectionExampleScenario.node[83].veinsmobility  acceleration  ETV
vector 48203  IntersectionExampleScenario.node[83].veinsmobility  co2emission  ETV
47958	2641466 13276 19440 34147 175.25 292.75 471 0.973 11.200708441096 822.81515283268 2886.3196925522
47957	2654742 11676 19440 34147 175.25 292.75 471 -6.771110534668 4 36.98334312439 440.45763132055
47956	2666418 12051 19413 34147 175 292.75 472 0 15.02499961853 2207.111852169 30506.735961682
47955	2678469 16528 19386 34147 174.75 292.75 473 184.17810058594 486.85000610352 211159.14172363 96635824.125414
47954	2694997 16554 19386 34147 174.75 292.75 473 235.46081542969 486.85000610352 221586.31439209 105102244.13283
47972	2711551 11917 21278 34237 193.5 293.5 401 0.973 11.810082123732 768.41648200022 3210.7993104108
47971	2723468 11853 21278 34237 193.5 293.5 401 -3.6947984695435 2.5 39.699392318726 349.60517158564
47970	2735321 11705 21255 34237 193.25 293.5 402 0 15.875 2188.1945395702 29294.506518108
47969	2747026 14070 21232 34237 193 293.5 403 184.17810058594 483.14999389648 175971.93304443 78994866.64958
47968	2761096 14098 21232 34237 193 293.5 403 486.85000610352 733.87828063965 204261.48916626 104692172.57419
47979	2775194 12234 21610 34643 197.5 297 399 0.973 10.756497587458 730.28400457834 2611.7029545086
47978	2787428 12200 21610 34643 197.5 297 399 -3.8064932823181 2.5000019073486 34.097539901733 318.32546076844
47977	2799628 12367 21587 34643 197.25 297 400 0 14.39999961853 2240.0626921961 27642.08646855
47976	2811995 13980 21566 34643 197 297 401 177.97814941406 733.71278381348 181063.69656372 86318373.35598
47975	2825975 14033 21566 34643 197 297 401 486.85000610352 486.85000610352 195226.85244751 95046194.305641
48049	2840008 9846 24120 34788 219.5 298.25 316 0.973 12.099024792222 710.84046477694 3365.9152789879
48048	2849854 10336 24120 34788 219.5 298.25 316 -3.7915592193604 2.5 42.119848251343 358.7523279171
48047	2860190 10290 24083 34788 219.25 298.25 317 0 16.27499961853 2225.0830407422 29666.987488172
48046	2870480 11089 24046 34788 219 298.25 318 184.17810058594 735.11003112793 143099.12442017 68590254.416947
48045	2881569 11129 24046 34788 219 298.25 318 486.85000610352 486.85000610352 154818.30194092 75373291.244872
vector 48206  IntersectionExampleScenario.node[84].veinsmobility  posx  ETV
vector 48207  IntersectionExampleScenario.node[84].veinsmobility  posy  ETV
vector 48213  IntersectionExampleScenario.node[85].veinsmobility  posx  ETV
vector 48214  IntersectionExampleScenario.node[85].veinsmobility  posy  ETV
vector 48208  IntersectionExampleScenario.node[84].veinsmobility  speed  ETV
vector 48209  IntersectionExampleScenario.node[84].veinsmobility  acceleration  ETV
vector 48210  IntersectionExampleScenario.node[84].veinsmobility  co2emission  ETV
vector 48215  IntersectionExampleScenario.node[85].veinsmobility  speed  ETV
vector 48216  IntersectionExampleScenario.node[85].veinsmobility  acceleration  ETV
vector 48217  IntersectionExampleScenario.node[85].veinsmobility  co2emission  ETV
vector 48220  IntersectionExampleScenario.node[86].veinsmobility  posx  ETV
vector 48221  IntersectionExampleScenario.node[86].veinsmobility  posy  ETV
vector 48222  IntersectionExampleScenario.node[86].veinsmobility  speed  ETV
48084	2893732 8476 26449 35214 235.5 301.5 265 0.973 11.36141391502 625.2949351952 2937.5399071326
48083	2902208 9057 26449 35214 235.5 301.5 265 -3.7018761634827 2.5000019073486 36.134572982788 368.92008160379
48082	2911265 8960 26412 35214 235.25 301.5 266 0 15.25 2186.4347541537 27465.029860523
48081	2920225 9312 26375 35214 235 301.5 267 184.17810058594 483.14999389648 110437.25982666 47582271.88385
48080	2929537 9334 26375 35214 235 301.5 267 486.85000610352 733.55212402344 138481.93035889 72949782.254169
vector 48223  IntersectionExampleScenario.node[86].veinsmobility  acceleration  ETV
vector 48224  IntersectionExampleScenario.node[86].veinsmobility  co2emission  ETV
vector 48227  IntersectionExampleScenario.node[87].veinsmobility  posx  ETV
vector 48228  IntersectionExampleScenario.node[87].veinsmobility  posy  ETV
vector 48229  IntersectionExampleScenario.node[87].veinsmobility  speed  ETV
vector 48230  IntersectionExampleScenario.node[87].veinsmobility  acceleration  ETV
vector 48231  IntersectionExampleScenario.node[87].veinsmobility  co2emission  ETV
vector 48234  IntersectionExampleScenario.node[88].veinsmobility  posx  ETV
vector 48235  IntersectionExampleScenario.node[88].veinsmobility  posy  ETV
vector 48236  IntersectionExampleScenario.node[88].veinsmobility  speed  ETV
48098	2939673 7579 27715 35544 244.25 303.75 239 0.973 11.200708441096 583.55788078891 2790.5471421942
48097	2947252 7909 27715 35544 244.25 303.75 239 -3.9600174427032 2.5 37.32285118103 329.89020558805
48096	2955161 8087 27676 35544 244 303.75 240 0 15.214815139771 2188.9889128357 27211.406138798
48095	2963248 8400 27639 35544 243.75 303.75 241 184.17810058594 483.14999389648 98200.122589111 41855471.977605
48094	2971648 8429 27639 35544 243.75 303.75 241 486.85000610352 734.2932434082 125726.53511047 66678336.410693
vector 48241  IntersectionExampleScenario.node[89].veinsmobility  posx  ETV
vector 48242  IntersectionExampleScenario.node[89].veinsmobility  posy  ETV
vector 48237  IntersectionExampleScenario.node[88].veinsmobility  acceleration  ETV
vector 48238  IntersectionExampleScenario.node[88].veinsmobility  co2emission  ETV
vector 48248  IntersectionExampleScenario.node[90].veinsmobility  posx  ETV
vector 48249  IntersectionExampleScenario.node[90].veinsmobility  posy  ETV
vector 48243  IntersectionExampleScenario.node[89].veinsmobility  speed  ETV
vector 48244  IntersectionExampleScenario.node[89].veinsmobility  acceleration  ETV
vector 48245  IntersectionExampleScenario.node[89].veinsmobility  co2emission  ETV
vector 48250  IntersectionExampleScenario.node[90].veinsmobility  speed  ETV
vector 48251  IntersectionExampleScenario.node[90].veinsmobility  acceleration  ETV
vector 48252  IntersectionExampleScenario.node[90].veinsmobility  co2emission  ETV
48133	2981048 6178 29761 35907 259 306 189 0.973 11.200708441096 545.2301379666 2771.1142501545
48132	2987226 6182 29761 35907 259 306 189 -2.9529113769531 2.5000019073486 37.15309715271 303.76494959375
48131	2993408 6339 29728 35907 258.75 306 190 4.7921867370605 15.124521255493 2186.1368904114 27749.10371895
48130	2999747 6655 29695 35907 258.5 306 191 184.17810058594 483.14999389648 76434.449127197 32373583.457882
48129	3006402 6677 29695 35907 258.5 306 191 486.85000610352 733.5843963623 101359.22608948 54795107.495681
48140	3013079 5614 30479 36180 264.75 307.75 173 0.973 11.200708441096 501.21190582141 2597.5555064837
48139	3018693 5599 30479 36180 264.75 307.75 173 -3.9433212280273 2.5 38.511121749878 223.41529329615
48138	3024292 5889 30446 36180 264.5 307.75 174 5.6500000953674 15.317095756531 2188.2641534805 29151.538097681
48137	3030181 6100 30413 36180 264.25 307.75 175 184.17810058594 483.14999389648 69841.940093994 29637946.159124
48136	3036281 6107 30413 36180 264.25 307.75 175 486.85000610352 734.24505615234 93444.804855347 50862676.243608
48147	3042388 5481 30982 36512 268.75 310 166 0.973 11.093806525473 480.72948182395 2494.9781453462
48146	3047869 5435 30982 36512 268.75 310 166 -3.443000793457 2.5 34.437047958374 209.42747608479
48145	3053304 5614 30949 36512 268.5 310 167 5.6500000953674 14.875 2244.7989082336 30615.169648177
48144	3058918 5842 30916 36512 268.25 310 168 177.97814941406 734.22247314453 75024.235717773 38031772.696108
48143	3064760 5880 30916 36512 268.25 310 168 486.85000610352 486.85000610352 81790.801025391 39819851.978423
vector 48255  IntersectionExampleScenario.node[91].veinsmobility  posx  ETV
vector 48256  IntersectionExampleScenario.node[91].veinsmobility  posy  ETV
vector 48257  IntersectionExampleScenario.node[91].veinsmobility  speed  ETV
vector 48258  IntersectionExampleScenario.node[91].veinsmobility  acceleration  ETV
vector 48259  IntersectionExampleScenario.node[91].veinsmobility  co2emission  ETV
vector 48262  IntersectionExampleScenario.node[92].veinsmobility  posx  ETV
vector 48263  IntersectionExampleScenario.node[92].veinsmobility  posy  ETV
vector 48269  IntersectionExampleScenario.node[93].veinsmobility  posx  ETV
vector 48270  IntersectionExampleScenario.node[93].veinsmobility  posy  ETV
vector 48264  IntersectionExampleScenario.node[92].veinsmobility  speed  ETV
vector 48265  IntersectionExampleScenario.node[92].veinsmobility  acceleration  ETV
vector 48266  IntersectionExampleScenario.node[92].veinsmobility  co2emission  ETV
vector 48271  IntersectionExampleScenario.node[93].veinsmobility  speed  ETV
vector 48272  IntersectionExampleScenario.node[93].veinsmobility  acceleration  ETV
vector 48273  IntersectionExampleScenario.node[93].veinsmobility  co2emission  ETV
48175	3071843 5295 32653 37840 281 319.5 155 0.973 11.648172402475 469.58057745547 2455.5999638002
48174	3077138 4959 32653 37840 281 319.5 155 -3.1871070861816 2.5 38.001859664917 189.58778524466
48173	3082097 5214 32618 37840 280.75 319.5 156 5.6500000953674 15.64999961853 2219.4500265121 32203.742242535
48172	3087311 5468 32585 37840 280.5 319.5 157 184.17810058594 733.83720397949 70507.44039917 35831871.179075
48171	3092779 5495 32585 37840 280.5 319.5 157 486.85000610352 486.85000610352 76435.450958252 37212599.76555
vector 48276  IntersectionExampleScenario.node[94].veinsmobility  posx  ETV
vector 48277  IntersectionExampleScenario.node[94].veinsmobility  posy  ETV
vector 48278  IntersectionExampleScenario.node[94].veinsmobility  speed  ETV
vector 48279  IntersectionExampleScenario.node[94].veinsmobility  acceleration  ETV
vector 48280  IntersectionExampleScenario.node[94].veinsmobility  co2emission  ETV
48000	3098675 13183 22171 38078 203.25 321.25 473 0.973 12.553400930962 875.96914424916 3803.2860717073
47999	3111858 11716 22171 38078 203.25 321.25 473 -8.9823045730591 4 42.924703598022 535.86682261088
47998	3123574 11910 22144 38078 203 321.25 474 0 16.89999961853 2211.4192602634 33293.560566254
47997	3135484 16625 22117 38078 202.75 321.25 475 483.14999389648 483.14999389648 229496.24710083 110881110.38603
47996	3152109 16596 22117 38078 202.75 321.25 475 184.17810058594 732.97071838379 220300.24310303 106162929.78759
vector 48283  IntersectionExampleScenario.node[95].veinsmobility  posx  ETV
vector 48284  IntersectionExampleScenario.node[95].veinsmobility  posy  ETV
vector 48290  IntersectionExampleScenario.node[96].veinsmobility  posx  ETV
vector 48291  IntersectionExampleScenario.node[96].veinsmobility  posy  ETV
vector 48285  IntersectionExampleScenario.node[95].veinsmobility  speed  ETV
48007	3169091 13529 22688 38436 208 324 465 0.973 11.450879080643 813.18261757812 3019.1701582593
48006	3182620 13078 22688 38436 208 324 465 -3.6902053356171 2.5 37.15309715271 343.19553321929
48005	3195698 13030 22659 38436 207.75 324 466 0 15.375 2215.4617587309 29432.151228124
48004	3208728 16338 22630 38436 207.5 324 467 483.14999389648 735.32911682129 234338.36065674 118891876.42057
48003	3225066 16310 22630 38436 207.5 324 467 184.17810058594 486.86566162109 206015.14816284 93143212.06755
vector 48286  IntersectionExampleScenario.node[95].veinsmobility  acceleration  ETV
vector 48287  IntersectionExampleScenario.node[95].veinsmobility  co2emission  ETV
vector 48292  IntersectionExampleScenario.node[96].veinsmobility  speed  ETV
vector 48293  IntersectionExampleScenario.node[96].veinsmobility  acceleration  ETV
vector 48294  IntersectionExampleScenario.node[96].veinsmobility  co2emission  ETV
vector 48297  IntersectionExampleScenario.node[97].veinsmobility  posx  ETV
vector 48298  IntersectionExampleScenario.node[97].veinsmobility  posy  ETV
vector 48299  IntersectionExampleScenario.node[97].veinsmobility  speed  ETV
vector 48300  IntersectionExampleScenario.node[97].veinsmobility  acceleration  ETV
vector 48301  IntersectionExampleScenario.node[97].veinsmobility  co2emission  ETV
48056	3242193 12560 24370 38746 221.25 326.25 421 0.973 11.200708441096 769.1902967117 2931.5409179081
48055	3254753 12546 24370 38746 221.25 326.25 421 -3.9078588485718 2.5 37.15309715271 319.855190479
48054	3267299 12488 24333 38746 221 326.25 422 0 15.327354431152 2207.5477949297 28573.309806318
48053	3279787 14794 24296 38746 220.75 326.25 423 483.14999389648 732.75065612793 212910.60757446 108413419.05048
48052	3294581 14767 24296 38746 220.75 326.25 423 184.17810058594 486.85000610352 183604.1036377 81846089.621566
vector 48304  IntersectionExampleScenario.node[98].veinsmobility  posx  ETV
vector 48305  IntersectionExampleScenario.node[98].veinsmobility  posy  ETV
vector 48306  IntersectionExampleScenario.node[98].veinsmobility  speed  ETV
48105	3309580 10404 27753 38988 244.5 328 335 0.973 11.54047740176 690.16728739949 2914.5288385545
[...]
51386	28382971 5389 282743 290063 1733 1771.25 154 5.6500000953674 16.452499389648 2204.7272167206 32647.080890043
51385	28388360 5709 282688 290063 1732.75 1771.25 155 184.17810058594 487.01486206055 61555.753753662 26185468.936014
51384	28394069 5722 282688 290063 1732.75 1771.25 155 236.81439208984 486.85000610352 67410.89541626 30238941.110049
vector 51464  IntersectionExampleScenario.node[549].veinsmobility  acceleration  ETV
vector 51465  IntersectionExampleScenario.node[549].veinsmobility  co2emission  ETV
51178	28399962 15440 263998 290466 1644 1773.75 520 0.973 12.099024792222 897.66886829167 3489.7921195177
51177	28415402 13648 263998 290466 1644 1773.75 520 -23.539325714111 4 40.038900375366 966.66412502231
51176	28429050 13895 263951 290466 1643.75 1773.75 521 0 16.27499961853 2170.763841629 31540.891373115
51175	28442945 19244 263904 290466 1643.5 1773.75 522 239.04711914062 483.14999389648 244365.65292358 115548386.52682
51174	28462189 19292 263904 290466 1643.5 1773.75 522 184.17810058594 483.36395263672 234429.79391479 107606272.8245
vector 51468  IntersectionExampleScenario.node[550].veinsmobility  posx  ETV
vector 51469  IntersectionExampleScenario.node[550].veinsmobility  posy  ETV
vector 51470  IntersectionExampleScenario.node[550].veinsmobility  speed  ETV
vector 51471  IntersectionExampleScenario.node[550].veinsmobility  acceleration  ETV
vector 51472  IntersectionExampleScenario.node[550].veinsmobility  co2emission  ETV
51206	28481887 14214 267247 290812 1662.75 1776 454 0.973 11.200708441096 793.32309119009 2887.0784114163
51205	28496101 13966 267247 290812 1662.75 1776 454 -3.8773746490479 2.5 35.795072555542 327.74793080499
51204	28510067 13904 267200 290812 1662.5 1776 455 0 15.02499961853 2219.3636160549 28713.802013611
51203	28523971 16872 267153 290812 1662.25 1776 456 483.14999389648 483.14999389648 220316.3972168 106445865.97059
51202	28540843 16829 267153 290812 1662.25 1776 456 184.17810058594 734.5174407959 209069.46318054 100188754.58697
51220	28557672 14716 267494 291115 1664 1778 457 0.973 11.810082123732 853.20525574987 3315.1766654751
51219	28572388 14477 267494 291115 1664 1778 457 -4.5 2.5000004768372 39.699392318726 495.75153136422
51218	28586865 14534 267443 291115 1663.75 1778 458 0 15.875 2262.5310263233 30049.042529677
51217	28601399 16974 267392 291115 1663.5 1778 459 238.76416015625 483.14999389648 213862.70516968 100790987.23867
51216	28618373 16945 267392 291115 1663.5 1778 459 162.90466308594 483.28262329102 198090.70257568 88043306.642984
vector 51475  IntersectionExampleScenario.node[551].veinsmobility  posx  ETV
vector 51476  IntersectionExampleScenario.node[551].veinsmobility  posy  ETV
vector 51477  IntersectionExampleScenario.node[551].veinsmobility  speed  ETV
vector 51478  IntersectionExampleScenario.node[551].veinsmobility  acceleration  ETV
vector 51479  IntersectionExampleScenario.node[551].veinsmobility  co2emission  ETV
vector 51482  IntersectionExampleScenario.node[552].veinsmobility  posx  ETV
vector 51483  IntersectionExampleScenario.node[552].veinsmobility  posy  ETV
51276	28635880 12398 272115 291618 1687 1781.25 378 0.973 12.099024792222 763.60206657975 3210.567031161
51275	28648278 12734 272115 291618 1687 1781.25 378 -3.8640887737274 2.5 41.396924972534 340.69076067643
51274	28661012 12641 272058 291618 1686.75 1781.25 379 0 16.27499961853 2219.1683687158 29956.902583583
51273	28673653 14060 272003 291618 1686.5 1781.25 380 483.14999389648 483.14999389648 183596.99768066 88704888.308826
51272	28687713 14013 272003 291618 1686.5 1781.25 380 184.17810058594 733.28427124023 168893.66304016 79104389.466326
51234	28701726 14815 268571 291618 1669.25 1781.25 449 0.973 11.36141391502 816.13543690344 3083.3255973823
51233	28716541 14715 268571 291618 1669.25 1781.25 449 -4.5 2.5000009536743 37.15309715271 417.97782856395
51232	28731256 14620 268520 291618 1669 1781.25 450 0 15.25 2219.6413918175 28723.644077845
51231	28745876 16670 268469 291618 1668.75 1781.25 451 235.80688476562 483.14999389648 209488.34103394 98532947.454038
51230	28762546 16537 268469 291618 1668.75 1781.25 451 176.76312255859 483.14999389648 193796.3442688 85487661.483533
vector 51489  IntersectionExampleScenario.node[553].veinsmobility  posx  ETV
vector 51490  IntersectionExampleScenario.node[553].veinsmobility  posy  ETV
vector 51484  IntersectionExampleScenario.node[552].veinsmobility  speed  ETV
vector 51485  IntersectionExampleScenario.node[552].veinsmobility  acceleration  ETV
vector 51486  IntersectionExampleScenario.node[552].veinsmobility  co2emission  ETV
vector 51491  IntersectionExampleScenario.node[553].veinsmobility  speed  ETV
vector 51492  IntersectionExampleScenario.node[553].veinsmobility  acceleration  ETV
vector 51493  IntersectionExampleScenario.node[553].veinsmobility  co2emission  ETV
51297	28779739 12807 272935 292261 1690.5 1785 379 0.973 11.648172402475 771.20247323777 3320.5034400389
51296	28792546 12967 272935 292261 1690.5 1785 379 -4.5 2.5000019073486 38.511121749878 466.95580994941
51295	28805513 12986 272874 292261 1690.25 1785 380 0 15.64999961853 2228.7132441085 29241.137043121
51294	28818499 14091 272813 292261 1690 1785 381 235.74047851562 483.14999389648 175837.31225586 82327783.287811
51293	28832590 14042 272813 292261 1690 1785 381 174.53436279297 483.14999389648 159489.3626709 68840898.244752
51346	28846632 9784 277480 292562 1709.5 1786.75 310 0.973 12.099024792222 691.88554541457 3288.1517657779
51345	28856416 9803 277480 292562 1709.5 1786.75 310 -3.6910684108734 2.5 40.038900375366 404.17627215387
51344	28866219 9937 277419 292562 1709.25 1786.75 311 0 16.27499961853 2178.9693570435 28197.996142316
51343	28876156 11541 277358 292562 1709 1786.75 312 238.42877197266 483.14999389648 142850.40640259 66485620.803403
51342	28887697 11516 277358 292562 1709 1786.75 312 184.17810058594 483.16418457031 128662.6517334 54872917.043516
vector 51496  IntersectionExampleScenario.node[554].veinsmobility  posx  ETV
vector 51497  IntersectionExampleScenario.node[554].veinsmobility  posy  ETV
vector 51498  IntersectionExampleScenario.node[554].veinsmobility  speed  ETV
vector 51499  IntersectionExampleScenario.node[554].veinsmobility  acceleration  ETV
vector 51500  IntersectionExampleScenario.node[554].veinsmobility  co2emission  ETV
51367	28899619 8490 280915 293031 1724.75 1789.5 260 0.973 11.648172402475 631.32685527041 3059.6030293614
51366	28908109 8389 280915 293031 1724.75 1789.5 260 -3.6306393146515 4 38.341367721558 417.31222939112
51365	28916498 8686 280860 293031 1724.5 1789.5 261 0 15.64999961853 2184.452105701 27692.429323326
51364	28925184 9682 280805 293031 1724.25 1789.5 262 236.2529296875 483.14999389648 118353.42303467 54555098.796846
51363	28934866 9327 280805 293031 1724.25 1789.5 262 184.17810058594 483.17791748047 106390.33374023 44998322.044429
51409	28944193 6833 284269 293236 1740 1790.75 204 0.973 12.099024792222 606.91698594792 3301.7328763886
51408	28951026 7158 284269 293236 1740 1790.75 204 -2.8454666137695 2.5000009536743 42.245687484741 374.18202560542
51407	28958184 7252 284213 293236 1739.75 1790.75 205 2.4823009967804 16.27499961853 2181.7766261101 28184.12286992
51406	28965436 7623 284158 293236 1739.5 1790.75 206 237.27191162109 483.14999389648 91793.931671143 41870720.51546
51405	28973059 7588 284158 293236 1739.5 1790.75 206 184.17810058594 483.14999389648 82166.508056641 34506169.451597
51416	28980647 7040 284814 293672 1742.5 1793.5 205 0.973 11.648172402475 584.95438916709 3079.1237516742
51415	28987687 7224 284814 293672 1742.5 1793.5 205 -4.5 2.5 38.511121749878 380.69988200921
51414	28994911 7302 284759 293672 1742.25 1793.5 206 4.3413901329041 15.64999961853 2248.2570705414 28053.667390071
51413	29002213 7652 284704 293672 1742 1793.5 207 235.69213867188 483.14999389648 91773.585845947 41714868.24432
51412	29009865 7625 284704 293672 1742 1793.5 207 168.58435058594 483.15084838867 81157.548156738 33840946.942182
51269	29017490 13600 272003 294600 1686.5 1800 455 0.973 11.200708441096 780.09969618941 2882.3037546888
51268	29031090 12503 272003 294600 1686.5 1800 455 -7.8081068992615 4 36.134572982788 464.42749703799
51267	29043593 12378 271950 294600 1686.25 1800 456 0 15.02499961853 1929.6392270327 26277.39072394
51266	29055971 16891 271897 294600 1686 1800 457 306.86669921875 785.82187652588 235717.88443756 124770271.09962
51265	29072862 16907 271897 294600 1686 1800 457 483.14999389648 483.14999389648 220799.54721069 106679299.88719
51304	29089769 13454 273122 294600 1691.25 1800 436 0.973 11.200708441096 749.7200011456 2781.7941710673
51303	29103223 13048 273122 294600 1691.25 1800 436 -3.6133534908295 2.5 35.964849472046 355.50771917699
51302	29116271 12808 273059 294600 1691 1800 437 0 15.02499961853 1845.4257143037 24006.95545149
51301	29129079 15966 272996 294600 1690.75 1800 438 483.13433837891 785.82187652588 232794.67201996 125951823.09223
51300	29145045 16199 272996 294600 1690.75 1800 438 483.14999389648 643.02476501465 215257.89709473 106145809.78067
51318	29161244 11176 276008 294600 1703.25 1800 388 0.973 11.648172402475 562.34276597231 1756.3440460509
51317	29172420 10113 276008 294600 1703.25 1800 388 -24.990856170654 2.5 -22.60000038147 845.37170923141
51316	29182533 10158 275949 294600 1703 1800 389 0 15.64999961853 1223.0918292999 17681.108885914
51315	29192691 14429 275890 294600 1702.75 1800 390 486.85000610352 486.85000610352 189871.50238037 92438942.092768
51314	29207120 14414 275890 294600 1702.75 1800 390 498.39999389648 805.05782318115 208644.42920685 114208366.71211
51332	29221534 11609 276708 294600 1706.25 1800 376 0.973 10.583739557712 581.33379955277 1793.0806890738
51331	29233143 11427 276708 294600 1706.25 1800 376 -4.5 2.5 -22.60000038147 376.4885424453
51330	29244570 11348 276649 294600 1706 1800 377 0 15.323160171509 1184.5749149146 14903.427606602
51329	29255918 13985 276590 294600 1705.75 1800 378 486.85000610352 486.85000610352 184029.30230713 89594666.951452
51328	29269903 13755 276590 294600 1705.75 1800 378 511.1962890625 808.21485900879 208932.69019318 118166333.37216
51339	29283658 11081 277181 294600 1708.25 1800 368 0.973 11.200708441096 528.90451321747 1572.9073975537
51338	29294739 10534 277181 294600 1708.25 1800 368 -4.5 2.5 -22.60000038147 281.85273081671
51337	29305273 10551 277122 294600 1708 1800 369 0 15.02499961853 1071.3170979368 14367.262496496
51336	29315824 13689 277062 294600 1707.75 1800 370 486.85000610352 486.85000610352 180134.5022583 87698483.523908
51335	29329513 13665 277062 294600 1707.75 1800 370 504.79873657227 773.26952362061 198331.54818726 108138458.76014
51353	29343178 10813 278359 294600 1713.25 1800 348 0.973 11.648172402475 520.49172312534 1757.0444605451
51352	29353991 10956 278359 294600 1713.25 1800 348 -3.6430592536926 2.5 -22.60000038147 234.34628036321
51351	29364947 10733 278300 294600 1713 1800 349 0 15.64999961853 1097.3132861564 14273.332999211
51350	29375680 12949 278241 294600 1712.75 1800 350 486.85000610352 486.85000610352 170397.50213623 82958024.955048
51349	29388629 12919 278241 294600 1712.75 1800 350 517.59497070312 792.42406463623 193354.19174194 108710809.20549
51374	29401548 9603 281359 294600 1726.75 1800 294 0.973 11.648172402475 621.87315131124 2814.6249153427
51373	29411151 9982 281359 294600 1726.75 1800 294 -3.863401889801 2.5000004768372 38.511308670044 335.14884319288
51372	29421133 9909 281302 294600 1726.5 1800 295 0 15.64999961853 1760.1560704345 22544.972409493
51371	29431042 10927 281245 294600 1726.25 1800 296 350.84020996094 785.82187652588 160114.76056671 89051888.739007
51370	29441969 10952 281245 294600 1726.25 1800 296 483.14999389648 483.14999389648 143012.39819336 69096439.314243
51381	29452921 9547 281980 294600 1729.5 1800 283 0.973 11.648172402475 608.40071901789 2821.1052504559
51380	29462468 10058 281980 294600 1729.5 1800 283 -4.5 2.5 38.545431137085 394.00397486477
51379	29472526 9963 281924 294600 1729.25 1800 284 0 15.64999961853 1638.625070489 19846.22033524
51378	29482489 10508 281867 294600 1729 1800 285 483.14999389648 800.04531860352 159747.64174652 91581342.070992
51377	29492997 10542 281867 294600 1729 1800 285 483.14999389648 576.29104614258 138969.01193237 67833971.368374
51395	29503539 8090 283286 294600 1735.5 1800 259 0.973 11.200708441096 406.64776473903 1416.6536142553
51394	29511629 8586 283286 294600 1735.5 1800 259 -3.7641000747681 2.5 -22.60000038147 182.50940079563
51393	29520215 8424 283231 294600 1735.25 1800 260 0 15.02499961853 1046.5913158394 12539.81632861
51392	29528639 9655 283176 294600 1735 1800 261 486.85000610352 486.85000610352 127067.85159302 61862984.323621
51391	29538294 9626 283176 294600 1735 1800 261 523.99472045898 785.82187652588 148439.90706635 85977002.729715
51402	29547920 7528 283613 294600 1737 1800 253 0.97223939240464 11.648172402475 427.23370898495 1634.9982207122
51401	29555448 7074 283613 294600 1737 1800 253 -6.9821109771729 2.5 -22.60000038147 317.65833560111
51400	29562522 7079 283558 294600 1736.75 1800 254 0 15.64999961853 1179.121748209 16652.160208524
51399	29569601 9411 283503 294600 1736.5 1800 255 176.21716308594 471.60000610352 106807.06832886 46847181.07353
51398	29579012 9434 283503 294600 1736.5 1800 255 486.85000610352 486.85000610352 124146.7515564 60440846.752963
51423	29588446 6470 286489 294600 1750.75 1800 198 0.973 10.756497587458 341.19559016524 1271.5169594946
51422	29594916 7268 286489 294600 1750.75 1800 198 -3.8727512359619 2.5 -22.60000038147 175.68589916232
51421	29602184 7076 286440 294600 1750.5 1800 199 0 14.498780250549 1021.1090877382 11915.983807211
51420	29609260 7400 286391 294600 1750.25 1800 200 486.85000610352 486.85000610352 97370.001220703 47404585.688598
51419	29616660 7364 286391 294600 1750.25 1800 200 530.3923034668 785.82187652588 117448.14051819 70289171.330728
51430	29624024 6008 286867 294600 1752.75 1800 190 0.973 10.756497587458 345.40876714768 1298.4643483023
51429	29630032 6286 286867 294600 1752.75 1800 190 -4.5 2.5 -22.60000038147 314.39916379031
51428	29636318 6212 286820 294600 1752.5 1800 191 0 14.961979866028 1061.7713910937 13232.047367179
51427	29642530 7104 286772 294600 1752.25 1800 192 486.85000610352 486.85000610352 93475.201171875 45508402.261055
51426	29649634 7079 286772 294600 1752.25 1800 192 538.37857055664 803.92188262939 115153.26171875 70484647.687443
51437	29656713 5922 287388 294600 1755.5 1800 179 0.973 11.648172402475 492.82767902306 2822.5445185433
51436	29662635 6257 287388 294600 1755.5 1800 179 -3.8047339916229 2.5 38.385339736938 381.7574771366
51435	29668892 6348 287339 294600 1755.25 1800 180 0 15.64999961853 1392.8074094914 16109.098587529
51434	29675240 6680 287290 294600 1755 1800 181 486.85000610352 785.82187652588 105275.72090912 62704967.916937
51433	29681920 6695 287290 294600 1755 1800 181 435.07553100586 483.14999389648 87023.12286377 41851764.578442
51444	29688615 4471 289241 294600 1766.25 1800 136 0.973 11.648172402475 363.84115675507 1882.2241629224
51443	29693086 4707 289241 294600 1766.25 1800 136 -2.1390075683594 2.5000009536743 18.39999961853 260.20440053848
51442	29697793 4829 289200 294600 1766 1800 137 2.6870996952057 15.64999961853 1275.2170879841 14289.394490715
51441	29702622 5088 289158 294600 1765.75 1800 138 486.85000610352 785.82187652588 83280.846046448 51462345.455557
51440	29707710 5105 289158 294600 1765.75 1800 138 462.10693359375 483.14999389648 66545.735656738 32091026.398622
51451	29712815 4407 289241 294600 1766.25 1800 136 0.973 11.200708441096 286.2577627052 1303.575141904
51450	29717222 5106 289241 294600 1766.25 1800 136 -3.9874153137207 2.5 -21.91387784481 181.08339991303
51449	29722328 5044 289200 294600 1766 1800 137 0 15.02499961853 1119.697841756 13613.203185252
51448	29727372 5086 289158 294600 1765.75 1800 138 184.17810058594 464.31573486328 50944.913421631 20068877.46263
51447	29732458 5105 289158 294600 1765.75 1800 138 486.85000610352 486.85000610352 67185.300842285 32709164.125133
51458	29737563 3988 289573 294600 1768.25 1800 128 0.973 11.200708441096 269.06464582712 1268.863403852
51457	29741551 4176 289573 294600 1768.25 1800 128 -3.717592716217 2.5 -22.60000038147 184.61234143112
51456	29745727 4332 289530 294600 1768 1800 129 0 15.02499961853 957.89561796188 11540.500665504
51455	29750059 4809 289487 294600 1767.75 1800 130 486.85000610352 486.85000610352 63290.500793457 30812980.697589
51454	29754868 4797 289487 294600 1767.75 1800 130 546.06396484375 785.82187652588 80775.759483337 51068135.324368
51465	29759665 3789 290104 294600 1771.5 1800 115 0.973 11.648172402475 289.60341764437 1465.7105138582
51464	29763454 3711 290104 294600 1771.5 1800 115 -7.0929417610168 2.5 -22.60000038147 322.24078740908
51463	29767165 3885 290063 294600 1771.25 1800 116 0 15.64999961853 1147.3596698046 16111.715776408
51462	29771050 4327 290022 294600 1771 1800 117 483.14999389648 483.14999389648 56528.549285889 27311768.242454
51461	29775377 4301 290022 294600 1771 1800 117 184.17810058594 471.60000610352 42350.121429443 16541545.882375
51472	29779678 2972 290812 294600 1776 1800 97 0.973 11.648172402475 227.65165209013 1306.7200595996
51471	29782650 3548 290812 294600 1776 1800 97 -2.3749580383301 2.5 -20.574422359467 169.44960060878
51470	29786198 3617 290773 294600 1775.75 1800 98 0.50639450550079 15.64999961853 930.20903837681 11516.963508821
51469	29789815 3662 290734 294600 1775.5 1800 99 486.85000610352 486.85000610352 48198.150604248 23465269.915856
51468	29793477 3651 290734 294600 1775.5 1800 99 553.00399780273 785.82187652588 63845.086021423 41808857.132105
51479	29797128 2796 291267 294600 1779 1800 85 0.973 11.200708441096 225.62811340237 1223.6972476654
51478	29799924 3122 291267 294600 1779 1800 85 -2.8002471923828 2.5 -8.6583690643311 168.73766632258
51477	29803046 3167 291228 294600 1778.75 1800 86 3.4854078292847 15.02499961853 941.61388111115 11382.673551858
51476	29806213 3218 291189 294600 1778.5 1800 87 486.85000610352 486.85000610352 42355.950531006 20620994.77454
51475	29809431 3194 291189 294600 1778.5 1800 87 563.96884155273 798.59687805176 58462.779090881 39797016.751216
51486	29812625 2520 291702 294600 1781.75 1800 74 0.973 11.648172402475 229.71558339783 1363.3196386806
51485	29815145 2666 291702 294600 1781.75 1800 74 -2.0365028381348 2.5 5.1700439453125 156.65237707588
51484	29817811 2759 291659 294600 1781.5 1800 75 5.6500000953674 15.64999961853 964.71828985214 13084.286372519
51483	29820570 2780 291618 294600 1781.25 1800 76 184.17810058594 423.15869140625 22969.824035645 7397405.0902002
51482	29823350 2812 291618 294600 1781.25 1800 76 486.85000610352 486.85000610352 37000.600463867 18013742.561667
51493	29826162 2694 291745 294600 1782 1800 73 1.7373410990981 10.756497587458 232.21199358253 1175.3156537898
51492	29828856 2383 291745 294600 1782 1800 73 -0.098300933837891 2.5 34.606801986694 87.52207758927
51491	29831239 2723 291702 294600 1781.75 1800 74 5.6500000953674 14.39999961853 994.47015953064 13693.109553225
51490	29833962 2768 291659 294600 1781.5 1800 75 541.94396972656 785.82187652588 50454.522598267 34365625.949699
51489	29836730 2774 291659 294600 1781.5 1800 75 483.14999389648 483.14999389648 36236.249542236 17507543.745163
51500	29839504 1494 292989 294600 1789.25 1800 44 0.973 12.099024792222 183.90486206609 1392.8945150812
51499	29840998 1398 292989 294600 1789.25 1800 44 -1.5974578857422 2.5 24.064073562622 130.3849229653
51498	29842396 1652 292946 294600 1789 1800 45 5.6500000953674 16.27499961853 585.37442493439 7986.4698974485
51497	29844048 1701 292903 294600 1788.75 1800 46 486.85000610352 486.85000610352 22395.100280762 10903054.708378
51496	29845749 1699 292903 294600 1788.75 1800 46 643.1688079834 785.82187652588 33179.843955994 24030100.804337
47614	29847448 642 0 294599 0 1800 31 0 38 750 20034
47615	29848090 660 0 294599 0 1800 31 0 350 4869 1113549
