version 2
run nodebug-10-20200606-01:42:05-22484
attr configname nodebug
attr datetime 20200606-01:42:05
attr experiment nodebug
attr inifile omnetpp.ini
attr iterationvars ""
attr iterationvars2 $repetition=10
attr measurement ""
attr network "\"org.car2x.veins.modules.application.ExtTraCIScenarioManagerLaunchd.IntersectionExampleScenario\""
attr processid 22484
attr repetition 10
attr replication #10
attr resultdir results
attr runnumber 10
attr seedset 10
param **.coreDebug false
param **.debug false
param *.**.nic.mac1609_4.bitrate 18Mbps
param *.**.nic.mac1609_4.txPower 20mW
param *.**.nic.mac1609_4.useServiceChannel false
param *.**.nic.phy80211p.analogueModels "xmldoc(\"config.xml\")"
param *.**.nic.phy80211p.decider "xmldoc(\"config.xml\")"
param *.**.nic.phy80211p.sensitivity -89dBm
param *.**.nic.phy80211p.thermalNoise -110dBm
param *.**.nic.phy80211p.usePropagationDelay true
param *.**.nic.phy80211p.useThermalNoise true
param *.annotations.draw false
param *.connectionManager.alpha 2.0
param *.connectionManager.carrierFrequency "5.890e9 Hz"
param *.connectionManager.pMax 20mW
param *.connectionManager.sat -89dBm
param *.connectionManager.sendDirect true
param *.manager.autoShutdown true
param *.manager.host "\"localhost\""
param *.manager.launchConfig "xmldoc(\"paramics.launchd.xml\")"
param *.manager.margin 25
param *.manager.moduleDisplayString "\"\""
param *.manager.moduleName "\"node\""
param *.manager.moduleType "\"org.car2x.veins.nodes.Car\""
param *.manager.port 9999
param *.manager.updateInterval 250ms
param *.node[*0].veinsmobility.accidentCount 0
param *.node[*0].veinsmobility.accidentDuration 30s
param *.node[*0].veinsmobility.accidentStart 75s
param *.node[*].appl.LiderSelectZoneRadio 55.0
param *.node[*].appl.ShareDataZoneRadio 110.0
param *.node[*].appl.TiempoSemaforo 30.0
param *.node[*].appl.beaconInterval 1s
param *.node[*].appl.beaconPriority 3
param *.node[*].appl.dataOnSch false
param *.node[*].appl.dataPriority 2
param *.node[*].appl.debug false
param *.node[*].appl.headerLength "256 bit"
param *.node[*].appl.maxOffset 0.005s
param *.node[*].appl.sendBeacons false
param *.node[*].appl.sendData true
param *.node[*].applType "\"Dummy\""
param *.node[*].mobilityType "\"TraCIMobility\""
param *.node[*].mobilityType.debug true
param *.node[*].veinsmobility.x 0
param *.node[*].veinsmobility.y 0
param *.node[*].veinsmobility.z 1.895
param *.node[*].veinsmobilityType "\"org.car2x.veins.modules.mobility.traci.TraCIMobility\""
param *.node[*].veinsmobilityType.debug true
param *.playgroundSizeX 8500m
param *.playgroundSizeY 8500m
param *.playgroundSizeZ 50m
param *.world.use2D false
param *.world.useTorus false

scalar IntersectionExampleScenario.node[0].appl 	VehicleRemoved 	0
scalar IntersectionExampleScenario.node[0].appl 	ArrivedAtDest 	1
scalar IntersectionExampleScenario.node[0].appl 	IntersectionEnterTime 	7.5
scalar IntersectionExampleScenario.node[0].appl 	IntersectionExitTime 	30.343600485328
scalar IntersectionExampleScenario.node[0].appl 	NumberOfCollisions 	0
scalar IntersectionExampleScenario.node[0].nic.phy80211p 	busyTime 	0
scalar IntersectionExampleScenario.node[0].nic.mac1609_4 	ReceivedUnicastPackets 	0
scalar IntersectionExampleScenario.node[0].nic.mac1609_4 	ReceivedBroadcasts 	0
scalar IntersectionExampleScenario.node[0].nic.mac1609_4 	SentPackets 	0
scalar IntersectionExampleScenario.node[0].nic.mac1609_4 	SNIRLostPackets 	0
scalar IntersectionExampleScenario.node[0].nic.mac1609_4 	RXTXLostPackets 	0
scalar IntersectionExampleScenario.node[0].nic.mac1609_4 	TotalLostPackets 	0
scalar IntersectionExampleScenario.node[0].nic.mac1609_4 	DroppedPacketsInMac 	0
scalar IntersectionExampleScenario.node[0].nic.mac1609_4 	TooLittleTime 	0
scalar IntersectionExampleScenario.node[0].nic.mac1609_4 	TimesIntoBackoff 	0
scalar IntersectionExampleScenario.node[0].nic.mac1609_4 	SlotsBackoff 	0
scalar IntersectionExampleScenario.node[0].nic.mac1609_4 	NumInternalContention 	0
scalar IntersectionExampleScenario.node[0].nic.mac1609_4 	totalBusyTime 	0
scalar IntersectionExampleScenario.node[0].veinsmobility 	startTime 	7.5
scalar IntersectionExampleScenario.node[0].veinsmobility 	totalTime 	38.5
scalar IntersectionExampleScenario.node[0].veinsmobility 	stopTime 	46.25
scalar IntersectionExampleScenario.node[0].veinsmobility 	minSpeed 	5.6500000953674
scalar IntersectionExampleScenario.node[0].veinsmobility 	maxSpeed 	15.64999961853
scalar IntersectionExampleScenario.node[0].veinsmobility 	totalDistance 	551.24143218994
scalar IntersectionExampleScenario.node[0].veinsmobility 	totalCO2Emission 	117.95031274191
scalar IntersectionExampleScenario.node[2].appl 	VehicleRemoved 	0
scalar IntersectionExampleScenario.node[2].appl 	ArrivedAtDest 	1
scalar IntersectionExampleScenario.node[2].appl 	IntersectionEnterTime 	10.75
scalar IntersectionExampleScenario.node[2].appl 	IntersectionExitTime 	33.86917416798
scalar IntersectionExampleScenario.node[2].appl 	NumberOfCollisions 	0
scalar IntersectionExampleScenario.node[2].nic.phy80211p 	busyTime 	0
scalar IntersectionExampleScenario.node[2].nic.mac1609_4 	ReceivedUnicastPackets 	0
scalar IntersectionExampleScenario.node[2].nic.mac1609_4 	ReceivedBroadcasts 	0
scalar IntersectionExampleScenario.node[2].nic.mac1609_4 	SentPackets 	0
scalar IntersectionExampleScenario.node[2].nic.mac1609_4 	SNIRLostPackets 	0
scalar IntersectionExampleScenario.node[2].nic.mac1609_4 	RXTXLostPackets 	0
scalar IntersectionExampleScenario.node[2].nic.mac1609_4 	TotalLostPackets 	0
scalar IntersectionExampleScenario.node[2].nic.mac1609_4 	DroppedPacketsInMac 	0
scalar IntersectionExampleScenario.node[2].nic.mac1609_4 	TooLittleTime 	0
scalar IntersectionExampleScenario.node[2].nic.mac1609_4 	TimesIntoBackoff 	0
scalar IntersectionExampleScenario.node[2].nic.mac1609_4 	SlotsBackoff 	0
scalar IntersectionExampleScenario.node[2].nic.mac1609_4 	NumInternalContention 	0
scalar IntersectionExampleScenario.node[2].nic.mac1609_4 	totalBusyTime 	0
scalar IntersectionExampleScenario.node[2].veinsmobility 	startTime 	10.75
scalar IntersectionExampleScenario.node[2].veinsmobility 	totalTime 	38.5
scalar IntersectionExampleScenario.node[2].veinsmobility 	stopTime 	49.5
scalar IntersectionExampleScenario.node[2].veinsmobility 	minSpeed 	5.6500000953674
scalar IntersectionExampleScenario.node[2].veinsmobility 	maxSpeed 	16.27499961853
scalar IntersectionExampleScenario.node[2].veinsmobility 	totalDistance 	553.52909851074
scalar IntersectionExampleScenario.node[2].veinsmobility 	totalCO2Emission 	126.51709457851
scalar IntersectionExampleScenario.node[4].appl 	VehicleRemoved 	0
scalar IntersectionExampleScenario.node[4].appl 	ArrivedAtDest 	1
scalar IntersectionExampleScenario.node[4].appl 	IntersectionEnterTime 	22.75
scalar IntersectionExampleScenario.node[4].appl 	IntersectionExitTime 	64.339321973181
scalar IntersectionExampleScenario.node[4].appl 	NumberOfCollisions 	0
scalar IntersectionExampleScenario.node[4].nic.phy80211p 	busyTime 	0
scalar IntersectionExampleScenario.node[4].nic.mac1609_4 	ReceivedUnicastPackets 	0
scalar IntersectionExampleScenario.node[4].nic.mac1609_4 	ReceivedBroadcasts 	0
scalar IntersectionExampleScenario.node[4].nic.mac1609_4 	SentPackets 	0
scalar IntersectionExampleScenario.node[4].nic.mac1609_4 	SNIRLostPackets 	0
scalar IntersectionExampleScenario.node[4].nic.mac1609_4 	RXTXLostPackets 	0
scalar IntersectionExampleScenario.node[4].nic.mac1609_4 	TotalLostPackets 	0
scalar IntersectionExampleScenario.node[4].nic.mac1609_4 	DroppedPacketsInMac 	0
scalar IntersectionExampleScenario.node[4].nic.mac1609_4 	TooLittleTime 	0
scalar IntersectionExampleScenario.node[4].nic.mac1609_4 	TimesIntoBackoff 	0
scalar IntersectionExampleScenario.node[4].nic.mac1609_4 	SlotsBackoff 	0
scalar IntersectionExampleScenario.node[4].nic.mac1609_4 	NumInternalContention 	0
scalar IntersectionExampleScenario.node[4].nic.mac1609_4 	totalBusyTime 	0
scalar IntersectionExampleScenario.node[4].veinsmobility 	startTime 	22.75
scalar IntersectionExampleScenario.node[4].veinsmobility 	totalTime 	57.5
scalar IntersectionExampleScenario.node[4].veinsmobility 	stopTime 	80.5
scalar IntersectionExampleScenario.node[4].veinsmobility 	minSpeed 	0
scalar IntersectionExampleScenario.node[4].veinsmobility 	maxSpeed 	15.64999961853
scalar IntersectionExampleScenario.node[4].veinsmobility 	totalDistance 	553.04893493652
scalar IntersectionExampleScenario.node[4].veinsmobility 	totalCO2Emission 	150.14797809001
scalar IntersectionExampleScenario.node[8].appl 	VehicleRemoved 	0
scalar IntersectionExampleScenario.node[8].appl 	ArrivedAtDest 	1
scalar IntersectionExampleScenario.node[8].appl 	IntersectionEnterTime 	33.5
scalar IntersectionExampleScenario.node[8].appl 	IntersectionExitTime 	65.537587507162
scalar IntersectionExampleScenario.node[8].appl 	NumberOfCollisions 	0
scalar IntersectionExampleScenario.node[8].nic.phy80211p 	busyTime 	0
scalar IntersectionExampleScenario.node[8].nic.mac1609_4 	ReceivedUnicastPackets 	0
scalar IntersectionExampleScenario.node[8].nic.mac1609_4 	ReceivedBroadcasts 	0
scalar IntersectionExampleScenario.node[8].nic.mac1609_4 	SentPackets 	0
scalar IntersectionExampleScenario.node[8].nic.mac1609_4 	SNIRLostPackets 	0
scalar IntersectionExampleScenario.node[8].nic.mac1609_4 	RXTXLostPackets 	0
scalar IntersectionExampleScenario.node[8].nic.mac1609_4 	TotalLostPackets 	0
scalar IntersectionExampleScenario.node[8].nic.mac1609_4 	DroppedPacketsInMac 	0
scalar IntersectionExampleScenario.node[8].nic.mac1609_4 	TooLittleTime 	0
scalar IntersectionExampleScenario.node[8].nic.mac1609_4 	TimesIntoBackoff 	0
scalar IntersectionExampleScenario.node[8].nic.mac1609_4 	SlotsBackoff 	0
scalar IntersectionExampleScenario.node[8].nic.mac1609_4 	NumInternalContention 	0
scalar IntersectionExampleScenario.node[8].nic.mac1609_4 	totalBusyTime 	0
scalar IntersectionExampleScenario.node[8].veinsmobility 	startTime 	33.5
scalar IntersectionExampleScenario.node[8].veinsmobility 	totalTime 	48.25
scalar IntersectionExampleScenario.node[8].veinsmobility 	stopTime 	82
scalar IntersectionExampleScenario.node[8].veinsmobility 	minSpeed 	1.7198677062988
scalar IntersectionExampleScenario.node[8].veinsmobility 	maxSpeed 	15.64999961853
scalar IntersectionExampleScenario.node[8].veinsmobility 	totalDistance 	550.09614143854
scalar IntersectionExampleScenario.node[8].veinsmobility 	totalCO2Emission 	136.72008749533
scalar IntersectionExampleScenario.node[11].appl 	VehicleRemoved 	0
scalar IntersectionExampleScenario.node[11].appl 	ArrivedAtDest 	1
scalar IntersectionExampleScenario.node[11].appl 	IntersectionEnterTime 	49.25
scalar IntersectionExampleScenario.node[11].appl 	IntersectionExitTime 	71.859049057297
scalar IntersectionExampleScenario.node[11].appl 	NumberOfCollisions 	0
scalar IntersectionExampleScenario.node[11].nic.phy80211p 	busyTime 	0
scalar IntersectionExampleScenario.node[11].nic.mac1609_4 	ReceivedUnicastPackets 	0
scalar IntersectionExampleScenario.node[11].nic.mac1609_4 	ReceivedBroadcasts 	0
scalar IntersectionExampleScenario.node[11].nic.mac1609_4 	SentPackets 	0
scalar IntersectionExampleScenario.node[11].nic.mac1609_4 	SNIRLostPackets 	0
scalar IntersectionExampleScenario.node[11].nic.mac1609_4 	RXTXLostPackets 	0
scalar IntersectionExampleScenario.node[11].nic.mac1609_4 	TotalLostPackets 	0
scalar IntersectionExampleScenario.node[11].nic.mac1609_4 	DroppedPacketsInMac 	0
scalar IntersectionExampleScenario.node[11].nic.mac1609_4 	TooLittleTime 	0
scalar IntersectionExampleScenario.node[11].nic.mac1609_4 	TimesIntoBackoff 	0
scalar IntersectionExampleScenario.node[11].nic.mac1609_4 	SlotsBackoff 	0
scalar IntersectionExampleScenario.node[11].nic.mac1609_4 	NumInternalContention 	0
scalar IntersectionExampleScenario.node[11].nic.mac1609_4 	totalBusyTime 	0
scalar IntersectionExampleScenario.node[11].veinsmobility 	startTime 	49.25
scalar IntersectionExampleScenario.node[11].veinsmobility 	totalTime 	38.25
scalar IntersectionExampleScenario.node[11].veinsmobility 	stopTime 	87.75
scalar IntersectionExampleScenario.node[11].veinsmobility 	minSpeed 	5.6500000953674
scalar IntersectionExampleScenario.node[11].veinsmobility 	maxSpeed 	16.27499961853
scalar IntersectionExampleScenario.node[11].veinsmobility 	totalDistance 	552.23859336651
scalar IntersectionExampleScenario.node[11].veinsmobility 	totalCO2Emission 	128.32373915001
scalar IntersectionExampleScenario.node[12].appl 	VehicleRemoved 	0
scalar IntersectionExampleScenario.node[12].appl 	ArrivedAtDest 	1
scalar IntersectionExampleScenario.node[12].appl 	IntersectionEnterTime 	51.75
scalar IntersectionExampleScenario.node[12].appl 	IntersectionExitTime 	75.287008587446
scalar IntersectionExampleScenario.node[12].appl 	NumberOfCollisions 	0
scalar IntersectionExampleScenario.node[12].nic.phy80211p 	busyTime 	0
scalar IntersectionExampleScenario.node[12].nic.mac1609_4 	ReceivedUnicastPackets 	0
scalar IntersectionExampleScenario.node[12].nic.mac1609_4 	ReceivedBroadcasts 	0
scalar IntersectionExampleScenario.node[12].nic.mac1609_4 	SentPackets 	0
scalar IntersectionExampleScenario.node[12].nic.mac1609_4 	SNIRLostPackets 	0
scalar IntersectionExampleScenario.node[12].nic.mac1609_4 	RXTXLostPackets 	0
scalar IntersectionExampleScenario.node[12].nic.mac1609_4 	TotalLostPackets 	0
scalar IntersectionExampleScenario.node[12].nic.mac1609_4 	DroppedPacketsInMac 	0
scalar IntersectionExampleScenario.node[12].nic.mac1609_4 	TooLittleTime 	0
scalar IntersectionExampleScenario.node[12].nic.mac1609_4 	TimesIntoBackoff 	0
scalar IntersectionExampleScenario.node[12].nic.mac1609_4 	SlotsBackoff 	0
scalar IntersectionExampleScenario.node[12].nic.mac1609_4 	NumInternalContention 	0
scalar IntersectionExampleScenario.node[12].nic.mac1609_4 	totalBusyTime 	0
scalar IntersectionExampleScenario.node[12].veinsmobility 	startTime 	51.75
scalar IntersectionExampleScenario.node[12].veinsmobility 	totalTime 	39.25
scalar IntersectionExampleScenario.node[12].veinsmobility 	stopTime 	91.25
scalar IntersectionExampleScenario.node[12].veinsmobility 	minSpeed 	5.6500000953674
scalar IntersectionExampleScenario.node[12].veinsmobility 	maxSpeed 	16.5
scalar IntersectionExampleScenario.node[12].veinsmobility 	totalDistance 	558.44216779871
scalar IntersectionExampleScenario.node[12].veinsmobility 	totalCO2Emission 	137.58185526405
scalar IntersectionExampleScenario.node[15].appl 	VehicleRemoved 	0
scalar IntersectionExampleScenario.node[15].appl 	ArrivedAtDest 	1
scalar IntersectionExampleScenario.node[15].appl 	IntersectionEnterTime 	56.25
scalar IntersectionExampleScenario.node[15].appl 	IntersectionExitTime 	79.796564993681
scalar IntersectionExampleScenario.node[15].appl 	NumberOfCollisions 	0
scalar IntersectionExampleScenario.node[15].nic.phy80211p 	busyTime 	0
scalar IntersectionExampleScenario.node[15].nic.mac1609_4 	ReceivedUnicastPackets 	0
scalar IntersectionExampleScenario.node[15].nic.mac1609_4 	ReceivedBroadcasts 	0
scalar IntersectionExampleScenario.node[15].nic.mac1609_4 	SentPackets 	0
scalar IntersectionExampleScenario.node[15].nic.mac1609_4 	SNIRLostPackets 	0
scalar IntersectionExampleScenario.node[15].nic.mac1609_4 	RXTXLostPackets 	0
scalar IntersectionExampleScenario.node[15].nic.mac1609_4 	TotalLostPackets 	0
scalar IntersectionExampleScenario.node[15].nic.mac1609_4 	DroppedPacketsInMac 	0
scalar IntersectionExampleScenario.node[15].nic.mac1609_4 	TooLittleTime 	0
scalar IntersectionExampleScenario.node[15].nic.mac1609_4 	TimesIntoBackoff 	0
scalar IntersectionExampleScenario.node[15].nic.mac1609_4 	SlotsBackoff 	0
scalar IntersectionExampleScenario.node[15].nic.mac1609_4 	NumInternalContention 	0
scalar IntersectionExampleScenario.node[15].nic.mac1609_4 	totalBusyTime 	0
scalar IntersectionExampleScenario.node[15].veinsmobility 	startTime 	56.25
scalar IntersectionExampleScenario.node[15].veinsmobility 	totalTime 	39.5
scalar IntersectionExampleScenario.node[15].veinsmobility 	stopTime 	96
scalar IntersectionExampleScenario.node[15].veinsmobility 	minSpeed 	5.6500000953674
scalar IntersectionExampleScenario.node[15].veinsmobility 	maxSpeed 	15.64999961853
scalar IntersectionExampleScenario.node[15].veinsmobility 	totalDistance 	564.28555297852
scalar IntersectionExampleScenario.node[15].veinsmobility 	totalCO2Emission 	119.57199149429
scalar IntersectionExampleScenario.node[5].appl 	VehicleRemoved 	0
scalar IntersectionExampleScenario.node[5].appl 	ArrivedAtDest 	1
scalar IntersectionExampleScenario.node[5].appl 	IntersectionEnterTime 	24.75
scalar IntersectionExampleScenario.node[5].appl 	IntersectionExitTime 	94.334266702353
scalar IntersectionExampleScenario.node[5].appl 	NumberOfCollisions 	0
scalar IntersectionExampleScenario.node[5].nic.phy80211p 	busyTime 	0
scalar IntersectionExampleScenario.node[5].nic.mac1609_4 	ReceivedUnicastPackets 	0
scalar IntersectionExampleScenario.node[5].nic.mac1609_4 	ReceivedBroadcasts 	0
scalar IntersectionExampleScenario.node[5].nic.mac1609_4 	SentPackets 	0
scalar IntersectionExampleScenario.node[5].nic.mac1609_4 	SNIRLostPackets 	0
scalar IntersectionExampleScenario.node[5].nic.mac1609_4 	RXTXLostPackets 	0
scalar IntersectionExampleScenario.node[5].nic.mac1609_4 	TotalLostPackets 	0
scalar IntersectionExampleScenario.node[5].nic.mac1609_4 	DroppedPacketsInMac 	0
scalar IntersectionExampleScenario.node[5].nic.mac1609_4 	TooLittleTime 	0
scalar IntersectionExampleScenario.node[5].nic.mac1609_4 	TimesIntoBackoff 	0
scalar IntersectionExampleScenario.node[5].nic.mac1609_4 	SlotsBackoff 	0
scalar IntersectionExampleScenario.node[5].nic.mac1609_4 	NumInternalContention 	0
scalar IntersectionExampleScenario.node[5].nic.mac1609_4 	totalBusyTime 	0
scalar IntersectionExampleScenario.node[5].veinsmobility 	startTime 	24.75
scalar IntersectionExampleScenario.node[5].veinsmobility 	totalTime 	86
scalar IntersectionExampleScenario.node[5].veinsmobility 	stopTime 	111
scalar IntersectionExampleScenario.node[5].veinsmobility 	minSpeed 	0
scalar IntersectionExampleScenario.node[5].veinsmobility 	maxSpeed 	15.02499961853
scalar IntersectionExampleScenario.node[5].veinsmobility 	totalDistance 	549.01583971133
scalar IntersectionExampleScenario.node[5].veinsmobility 	totalCO2Emission 	172.85686094017
scalar IntersectionExampleScenario.node[6].appl 	VehicleRemoved 	0
scalar IntersectionExampleScenario.node[6].appl 	ArrivedAtDest 	1
scalar IntersectionExampleScenario.node[6].appl 	IntersectionEnterTime 	30.25
scalar IntersectionExampleScenario.node[6].appl 	IntersectionExitTime 	95.064142280375
scalar IntersectionExampleScenario.node[6].appl 	NumberOfCollisions 	0
scalar IntersectionExampleScenario.node[6].nic.phy80211p 	busyTime 	0
scalar IntersectionExampleScenario.node[6].nic.mac1609_4 	ReceivedUnicastPackets 	0
scalar IntersectionExampleScenario.node[6].nic.mac1609_4 	ReceivedBroadcasts 	0
scalar IntersectionExampleScenario.node[6].nic.mac1609_4 	SentPackets 	0
scalar IntersectionExampleScenario.node[6].nic.mac1609_4 	SNIRLostPackets 	0
scalar IntersectionExampleScenario.node[6].nic.mac1609_4 	RXTXLostPackets 	0
scalar IntersectionExampleScenario.node[6].nic.mac1609_4 	TotalLostPackets 	0
scalar IntersectionExampleScenario.node[6].nic.mac1609_4 	DroppedPacketsInMac 	0
scalar IntersectionExampleScenario.node[6].nic.mac1609_4 	TooLittleTime 	0
scalar IntersectionExampleScenario.node[6].nic.mac1609_4 	TimesIntoBackoff 	0
scalar IntersectionExampleScenario.node[6].nic.mac1609_4 	SlotsBackoff 	0
scalar IntersectionExampleScenario.node[6].nic.mac1609_4 	NumInternalContention 	0
scalar IntersectionExampleScenario.node[6].nic.mac1609_4 	totalBusyTime 	0
scalar IntersectionExampleScenario.node[6].veinsmobility 	startTime 	30.25
scalar IntersectionExampleScenario.node[6].veinsmobility 	totalTime 	81
scalar IntersectionExampleScenario.node[6].veinsmobility 	stopTime 	111.5
scalar IntersectionExampleScenario.node[6].veinsmobility 	minSpeed 	0
scalar IntersectionExampleScenario.node[6].veinsmobility 	maxSpeed 	15.875
scalar IntersectionExampleScenario.node[6].veinsmobility 	totalDistance 	542.67947212862
scalar IntersectionExampleScenario.node[6].veinsmobility 	totalCO2Emission 	174.19301817776
scalar IntersectionExampleScenario.node[14].appl 	VehicleRemoved 	0
scalar IntersectionExampleScenario.node[14].appl 	ArrivedAtDest 	1
scalar IntersectionExampleScenario.node[14].appl 	IntersectionEnterTime 	55.75
scalar IntersectionExampleScenario.node[14].appl 	IntersectionExitTime 	97.518683917122
scalar IntersectionExampleScenario.node[14].appl 	NumberOfCollisions 	0
scalar IntersectionExampleScenario.node[14].nic.phy80211p 	busyTime 	0
scalar IntersectionExampleScenario.node[14].nic.mac1609_4 	ReceivedUnicastPackets 	0
scalar IntersectionExampleScenario.node[14].nic.mac1609_4 	ReceivedBroadcasts 	0
scalar IntersectionExampleScenario.node[14].nic.mac1609_4 	SentPackets 	0
scalar IntersectionExampleScenario.node[14].nic.mac1609_4 	SNIRLostPackets 	0
scalar IntersectionExampleScenario.node[14].nic.mac1609_4 	RXTXLostPackets 	0
scalar IntersectionExampleScenario.node[14].nic.mac1609_4 	TotalLostPackets 	0
scalar IntersectionExampleScenario.node[14].nic.mac1609_4 	DroppedPacketsInMac 	0
scalar IntersectionExampleScenario.node[14].nic.mac1609_4 	TooLittleTime 	0
scalar IntersectionExampleScenario.node[14].nic.mac1609_4 	TimesIntoBackoff 	0
scalar IntersectionExampleScenario.node[14].nic.mac1609_4 	SlotsBackoff 	0
scalar IntersectionExampleScenario.node[14].nic.mac1609_4 	NumInternalContention 	0
scalar IntersectionExampleScenario.node[14].nic.mac1609_4 	totalBusyTime 	0
scalar IntersectionExampleScenario.node[14].veinsmobility 	startTime 	55.75
scalar IntersectionExampleScenario.node[14].veinsmobility 	totalTime 	58.25
scalar IntersectionExampleScenario.node[14].veinsmobility 	stopTime 	114.25
scalar IntersectionExampleScenario.node[14].veinsmobility 	minSpeed 	0
scalar IntersectionExampleScenario.node[14].veinsmobility 	maxSpeed 	15.64999961853
scalar IntersectionExampleScenario.node[14].veinsmobility 	totalDistance 	551.85692344658
scalar IntersectionExampleScenario.node[14].veinsmobility 	totalCO2Emission 	146.62474032996
scalar IntersectionExampleScenario.node[18].appl 	VehicleRemoved 	0
scalar IntersectionExampleScenario.node[18].appl 	ArrivedAtDest 	1
scalar IntersectionExampleScenario.node[18].appl 	IntersectionEnterTime 	63.75
scalar IntersectionExampleScenario.node[18].appl 	IntersectionExitTime 	99.822877131897
scalar IntersectionExampleScenario.node[18].appl 	NumberOfCollisions 	0
scalar IntersectionExampleScenario.node[18].nic.phy80211p 	busyTime 	0
scalar IntersectionExampleScenario.node[18].nic.mac1609_4 	ReceivedUnicastPackets 	0
scalar IntersectionExampleScenario.node[18].nic.mac1609_4 	ReceivedBroadcasts 	0
scalar IntersectionExampleScenario.node[18].nic.mac1609_4 	SentPackets 	0
scalar IntersectionExampleScenario.node[18].nic.mac1609_4 	SNIRLostPackets 	0
scalar IntersectionExampleScenario.node[18].nic.mac1609_4 	RXTXLostPackets 	0
scalar IntersectionExampleScenario.node[18].nic.mac1609_4 	TotalLostPackets 	0
scalar IntersectionExampleScenario.node[18].nic.mac1609_4 	DroppedPacketsInMac 	0
scalar IntersectionExampleScenario.node[18].nic.mac1609_4 	TooLittleTime 	0
scalar IntersectionExampleScenario.node[18].nic.mac1609_4 	TimesIntoBackoff 	0
scalar IntersectionExampleScenario.node[18].nic.mac1609_4 	SlotsBackoff 	0
scalar IntersectionExampleScenario.node[18].nic.mac1609_4 	NumInternalContention 	0
scalar IntersectionExampleScenario.node[18].nic.mac1609_4 	totalBusyTime 	0
scalar IntersectionExampleScenario.node[18].veinsmobility 	startTime 	63.75
scalar IntersectionExampleScenario.node[18].veinsmobility 	totalTime 	52.25
scalar IntersectionExampleScenario.node[18].veinsmobility 	stopTime 	116.25
scalar IntersectionExampleScenario.node[18].veinsmobility 	minSpeed 	1.4637622833252
scalar IntersectionExampleScenario.node[18].veinsmobility 	maxSpeed 	15.64999961853
scalar IntersectionExampleScenario.node[18].veinsmobility 	totalDistance 	551.04409285407
scalar IntersectionExampleScenario.node[18].veinsmobility 	totalCO2Emission 	141.08696115199
scalar IntersectionExampleScenario.node[1].appl 	VehicleRemoved 	0
scalar IntersectionExampleScenario.node[1].appl 	ArrivedAtDest 	1
scalar IntersectionExampleScenario.node[1].appl 	IntersectionEnterTime 	9
scalar IntersectionExampleScenario.node[1].appl 	IntersectionExitTime 	125.34506633901
scalar IntersectionExampleScenario.node[1].appl 	NumberOfCollisions 	0
scalar IntersectionExampleScenario.node[1].nic.phy80211p 	busyTime 	0
scalar IntersectionExampleScenario.node[1].nic.mac1609_4 	ReceivedUnicastPackets 	0
scalar IntersectionExampleScenario.node[1].nic.mac1609_4 	ReceivedBroadcasts 	0
scalar IntersectionExampleScenario.node[1].nic.mac1609_4 	SentPackets 	0
scalar IntersectionExampleScenario.node[1].nic.mac1609_4 	SNIRLostPackets 	0
scalar IntersectionExampleScenario.node[1].nic.mac1609_4 	RXTXLostPackets 	0
scalar IntersectionExampleScenario.node[1].nic.mac1609_4 	TotalLostPackets 	0
scalar IntersectionExampleScenario.node[1].nic.mac1609_4 	DroppedPacketsInMac 	0
scalar IntersectionExampleScenario.node[1].nic.mac1609_4 	TooLittleTime 	0
scalar IntersectionExampleScenario.node[1].nic.mac1609_4 	TimesIntoBackoff 	0
scalar IntersectionExampleScenario.node[1].nic.mac1609_4 	SlotsBackoff 	0
scalar IntersectionExampleScenario.node[1].nic.mac1609_4 	NumInternalContention 	0
scalar IntersectionExampleScenario.node[1].nic.mac1609_4 	totalBusyTime 	0
scalar IntersectionExampleScenario.node[1].veinsmobility 	startTime 	9
scalar IntersectionExampleScenario.node[1].veinsmobility 	totalTime 	132.75
scalar IntersectionExampleScenario.node[1].veinsmobility 	stopTime 	142
scalar IntersectionExampleScenario.node[1].veinsmobility 	minSpeed 	0
scalar IntersectionExampleScenario.node[1].veinsmobility 	maxSpeed 	15.02499961853
scalar IntersectionExampleScenario.node[1].veinsmobility 	totalDistance 	571.46603393555
scalar IntersectionExampleScenario.node[1].veinsmobility 	totalCO2Emission 	220.67967514465
scalar IntersectionExampleScenario.node[3].appl 	VehicleRemoved 	0
scalar IntersectionExampleScenario.node[3].appl 	ArrivedAtDest 	1
scalar IntersectionExampleScenario.node[3].appl 	IntersectionEnterTime 	16.75
scalar IntersectionExampleScenario.node[3].appl 	IntersectionExitTime 	127.3265657592
scalar IntersectionExampleScenario.node[3].appl 	NumberOfCollisions 	0
scalar IntersectionExampleScenario.node[3].nic.phy80211p 	busyTime 	0
scalar IntersectionExampleScenario.node[3].nic.mac1609_4 	ReceivedUnicastPackets 	0
scalar IntersectionExampleScenario.node[3].nic.mac1609_4 	ReceivedBroadcasts 	0
scalar IntersectionExampleScenario.node[3].nic.mac1609_4 	SentPackets 	0
scalar IntersectionExampleScenario.node[3].nic.mac1609_4 	SNIRLostPackets 	0
scalar IntersectionExampleScenario.node[3].nic.mac1609_4 	RXTXLostPackets 	0
scalar IntersectionExampleScenario.node[3].nic.mac1609_4 	TotalLostPackets 	0
scalar IntersectionExampleScenario.node[3].nic.mac1609_4 	DroppedPacketsInMac 	0
scalar IntersectionExampleScenario.node[3].nic.mac1609_4 	TooLittleTime 	0
scalar IntersectionExampleScenario.node[3].nic.mac1609_4 	TimesIntoBackoff 	0
scalar IntersectionExampleScenario.node[3].nic.mac1609_4 	SlotsBackoff 	0
scalar IntersectionExampleScenario.node[3].nic.mac1609_4 	NumInternalContention 	0
scalar IntersectionExampleScenario.node[3].nic.mac1609_4 	totalBusyTime 	0
scalar IntersectionExampleScenario.node[3].veinsmobility 	startTime 	16.75
scalar IntersectionExampleScenario.node[3].veinsmobility 	totalTime 	126.5
scalar IntersectionExampleScenario.node[3].veinsmobility 	stopTime 	143.5
scalar IntersectionExampleScenario.node[3].veinsmobility 	minSpeed 	0
scalar IntersectionExampleScenario.node[3].veinsmobility 	maxSpeed 	15.324496269226
scalar IntersectionExampleScenario.node[3].veinsmobility 	totalDistance 	551.80027008057
scalar IntersectionExampleScenario.node[3].veinsmobility 	totalCO2Emission 	216.09103262917
scalar IntersectionExampleScenario.node[7].appl 	VehicleRemoved 	0
scalar IntersectionExampleScenario.node[7].appl 	ArrivedAtDest 	1
scalar IntersectionExampleScenario.node[7].appl 	IntersectionEnterTime 	32.75
scalar IntersectionExampleScenario.node[7].appl 	IntersectionExitTime 	129.81520589418
scalar IntersectionExampleScenario.node[7].appl 	NumberOfCollisions 	0
scalar IntersectionExampleScenario.node[7].nic.phy80211p 	busyTime 	0
scalar IntersectionExampleScenario.node[7].nic.mac1609_4 	ReceivedUnicastPackets 	0
scalar IntersectionExampleScenario.node[7].nic.mac1609_4 	ReceivedBroadcasts 	0
scalar IntersectionExampleScenario.node[7].nic.mac1609_4 	SentPackets 	0
scalar IntersectionExampleScenario.node[7].nic.mac1609_4 	SNIRLostPackets 	0
scalar IntersectionExampleScenario.node[7].nic.mac1609_4 	RXTXLostPackets 	0
scalar IntersectionExampleScenario.node[7].nic.mac1609_4 	TotalLostPackets 	0
scalar IntersectionExampleScenario.node[7].nic.mac1609_4 	DroppedPacketsInMac 	0
scalar IntersectionExampleScenario.node[7].nic.mac1609_4 	TooLittleTime 	0
scalar IntersectionExampleScenario.node[7].nic.mac1609_4 	TimesIntoBackoff 	0
scalar IntersectionExampleScenario.node[7].nic.mac1609_4 	SlotsBackoff 	0
scalar IntersectionExampleScenario.node[7].nic.mac1609_4 	NumInternalContention 	0
scalar IntersectionExampleScenario.node[7].nic.mac1609_4 	totalBusyTime 	0
scalar IntersectionExampleScenario.node[7].veinsmobility 	startTime 	32.75
scalar IntersectionExampleScenario.node[7].veinsmobility 	totalTime 	114
scalar IntersectionExampleScenario.node[7].veinsmobility 	stopTime 	147
scalar IntersectionExampleScenario.node[7].veinsmobility 	minSpeed 	0
scalar IntersectionExampleScenario.node[7].veinsmobility 	maxSpeed 	15.25
scalar IntersectionExampleScenario.node[7].veinsmobility 	totalDistance 	544.20945262377
scalar IntersectionExampleScenario.node[7].veinsmobility 	totalCO2Emission 	200.51719401049
scalar IntersectionExampleScenario.node[9].appl 	VehicleRemoved 	0
scalar IntersectionExampleScenario.node[9].appl 	ArrivedAtDest 	1
scalar IntersectionExampleScenario.node[9].appl 	IntersectionEnterTime 	36
scalar IntersectionExampleScenario.node[9].appl 	IntersectionExitTime 	131.82828589375
scalar IntersectionExampleScenario.node[9].appl 	NumberOfCollisions 	0
scalar IntersectionExampleScenario.node[9].nic.phy80211p 	busyTime 	0
scalar IntersectionExampleScenario.node[9].nic.mac1609_4 	ReceivedUnicastPackets 	0
scalar IntersectionExampleScenario.node[9].nic.mac1609_4 	ReceivedBroadcasts 	0
scalar IntersectionExampleScenario.node[9].nic.mac1609_4 	SentPackets 	0
scalar IntersectionExampleScenario.node[9].nic.mac1609_4 	SNIRLostPackets 	0
scalar IntersectionExampleScenario.node[9].nic.mac1609_4 	RXTXLostPackets 	0
scalar IntersectionExampleScenario.node[9].nic.mac1609_4 	TotalLostPackets 	0
scalar IntersectionExampleScenario.node[9].nic.mac1609_4 	DroppedPacketsInMac 	0
scalar IntersectionExampleScenario.node[9].nic.mac1609_4 	TooLittleTime 	0
scalar IntersectionExampleScenario.node[9].nic.mac1609_4 	TimesIntoBackoff 	0
scalar IntersectionExampleScenario.node[9].nic.mac1609_4 	SlotsBackoff 	0
scalar IntersectionExampleScenario.node[9].nic.mac1609_4 	NumInternalContention 	0
scalar IntersectionExampleScenario.node[9].nic.mac1609_4 	totalBusyTime 	0
scalar IntersectionExampleScenario.node[9].veinsmobility 	startTime 	36
scalar IntersectionExampleScenario.node[9].veinsmobility 	totalTime 	111.75
scalar IntersectionExampleScenario.node[9].veinsmobility 	stopTime 	148
scalar IntersectionExampleScenario.node[9].veinsmobility 	minSpeed 	0
scalar IntersectionExampleScenario.node[9].veinsmobility 	maxSpeed 	15.5
scalar IntersectionExampleScenario.node[9].veinsmobility 	totalDistance 	565.00794219971
scalar IntersectionExampleScenario.node[9].veinsmobility 	totalCO2Emission 	204.34229776339
scalar IntersectionExampleScenario.node[16].appl 	VehicleRemoved 	0
scalar IntersectionExampleScenario.node[16].appl 	ArrivedAtDest 	1
scalar IntersectionExampleScenario.node[16].appl 	IntersectionEnterTime 	61
scalar IntersectionExampleScenario.node[16].appl 	IntersectionExitTime 	134.25997408564
scalar IntersectionExampleScenario.node[16].appl 	NumberOfCollisions 	0
scalar IntersectionExampleScenario.node[16].nic.phy80211p 	busyTime 	0
scalar IntersectionExampleScenario.node[16].nic.mac1609_4 	ReceivedUnicastPackets 	0
scalar IntersectionExampleScenario.node[16].nic.mac1609_4 	ReceivedBroadcasts 	0
scalar IntersectionExampleScenario.node[16].nic.mac1609_4 	SentPackets 	0
scalar IntersectionExampleScenario.node[16].nic.mac1609_4 	SNIRLostPackets 	0
scalar IntersectionExampleScenario.node[16].nic.mac1609_4 	RXTXLostPackets 	0
scalar IntersectionExampleScenario.node[16].nic.mac1609_4 	TotalLostPackets 	0
scalar IntersectionExampleScenario.node[16].nic.mac1609_4 	DroppedPacketsInMac 	0
scalar IntersectionExampleScenario.node[16].nic.mac1609_4 	TooLittleTime 	0
scalar IntersectionExampleScenario.node[16].nic.mac1609_4 	TimesIntoBackoff 	0
scalar IntersectionExampleScenario.node[16].nic.mac1609_4 	SlotsBackoff 	0
scalar IntersectionExampleScenario.node[16].nic.mac1609_4 	NumInternalContention 	0
scalar IntersectionExampleScenario.node[16].nic.mac1609_4 	totalBusyTime 	0
scalar IntersectionExampleScenario.node[16].veinsmobility 	startTime 	61
scalar IntersectionExampleScenario.node[16].veinsmobility 	totalTime 	89.25
scalar IntersectionExampleScenario.node[16].veinsmobility 	stopTime 	150.5
scalar IntersectionExampleScenario.node[16].veinsmobility 	minSpeed 	0
scalar IntersectionExampleScenario.node[16].veinsmobility 	maxSpeed 	16
scalar IntersectionExampleScenario.node[16].veinsmobility 	totalDistance 	549.78900838337
scalar IntersectionExampleScenario.node[16].veinsmobility 	totalCO2Emission 	183.69605328113
scalar IntersectionExampleScenario.node[20].appl 	VehicleRemoved 	0
scalar IntersectionExampleScenario.node[20].appl 	ArrivedAtDest 	1
scalar IntersectionExampleScenario.node[20].appl 	IntersectionEnterTime 	83.5
scalar IntersectionExampleScenario.node[20].appl 	IntersectionExitTime 	136.82472958133
scalar IntersectionExampleScenario.node[20].appl 	NumberOfCollisions 	0
scalar IntersectionExampleScenario.node[20].nic.phy80211p 	busyTime 	0
scalar IntersectionExampleScenario.node[20].nic.mac1609_4 	ReceivedUnicastPackets 	0
scalar IntersectionExampleScenario.node[20].nic.mac1609_4 	ReceivedBroadcasts 	0
scalar IntersectionExampleScenario.node[20].nic.mac1609_4 	SentPackets 	0
scalar IntersectionExampleScenario.node[20].nic.mac1609_4 	SNIRLostPackets 	0
scalar IntersectionExampleScenario.node[20].nic.mac1609_4 	RXTXLostPackets 	0
scalar IntersectionExampleScenario.node[20].nic.mac1609_4 	TotalLostPackets 	0
scalar IntersectionExampleScenario.node[20].nic.mac1609_4 	DroppedPacketsInMac 	0
scalar IntersectionExampleScenario.node[20].nic.mac1609_4 	TooLittleTime 	0
scalar IntersectionExampleScenario.node[20].nic.mac1609_4 	TimesIntoBackoff 	0
scalar IntersectionExampleScenario.node[20].nic.mac1609_4 	SlotsBackoff 	0
scalar IntersectionExampleScenario.node[20].nic.mac1609_4 	NumInternalContention 	0
scalar IntersectionExampleScenario.node[20].nic.mac1609_4 	totalBusyTime 	0
scalar IntersectionExampleScenario.node[20].veinsmobility 	startTime 	83.5
scalar IntersectionExampleScenario.node[20].veinsmobility 	totalTime 	69.25
scalar IntersectionExampleScenario.node[20].veinsmobility 	stopTime 	153
scalar IntersectionExampleScenario.node[20].veinsmobility 	minSpeed 	0
scalar IntersectionExampleScenario.node[20].veinsmobility 	maxSpeed 	16
scalar IntersectionExampleScenario.node[20].veinsmobility 	totalDistance 	550.96870502227
scalar IntersectionExampleScenario.node[20].veinsmobility 	totalCO2Emission 	163.12689672179
scalar IntersectionExampleScenario.node[23].appl 	VehicleRemoved 	0
scalar IntersectionExampleScenario.node[23].appl 	ArrivedAtDest 	1
scalar IntersectionExampleScenario.node[23].appl 	IntersectionEnterTime 	93
scalar IntersectionExampleScenario.node[23].appl 	IntersectionExitTime 	139.04246348041
scalar IntersectionExampleScenario.node[23].appl 	NumberOfCollisions 	0
scalar IntersectionExampleScenario.node[23].nic.phy80211p 	busyTime 	0
scalar IntersectionExampleScenario.node[23].nic.mac1609_4 	ReceivedUnicastPackets 	0
scalar IntersectionExampleScenario.node[23].nic.mac1609_4 	ReceivedBroadcasts 	0
scalar IntersectionExampleScenario.node[23].nic.mac1609_4 	SentPackets 	0
scalar IntersectionExampleScenario.node[23].nic.mac1609_4 	SNIRLostPackets 	0
scalar IntersectionExampleScenario.node[23].nic.mac1609_4 	RXTXLostPackets 	0
scalar IntersectionExampleScenario.node[23].nic.mac1609_4 	TotalLostPackets 	0
scalar IntersectionExampleScenario.node[23].nic.mac1609_4 	DroppedPacketsInMac 	0
scalar IntersectionExampleScenario.node[23].nic.mac1609_4 	TooLittleTime 	0
scalar IntersectionExampleScenario.node[23].nic.mac1609_4 	TimesIntoBackoff 	0
scalar IntersectionExampleScenario.node[23].nic.mac1609_4 	SlotsBackoff 	0
scalar IntersectionExampleScenario.node[23].nic.mac1609_4 	NumInternalContention 	0
scalar IntersectionExampleScenario.node[23].nic.mac1609_4 	totalBusyTime 	0
scalar IntersectionExampleScenario.node[23].veinsmobility 	startTime 	93
scalar IntersectionExampleScenario.node[23].veinsmobility 	totalTime 	62
scalar IntersectionExampleScenario.node[23].veinsmobility 	stopTime 	155.25
scalar IntersectionExampleScenario.node[23].veinsmobility 	minSpeed 	0
scalar IntersectionExampleScenario.node[23].veinsmobility 	maxSpeed 	16
scalar IntersectionExampleScenario.node[23].veinsmobility 	totalDistance 	550.69556473416
scalar IntersectionExampleScenario.node[23].veinsmobility 	totalCO2Emission 	152.76404999273
scalar IntersectionExampleScenario.node[25].appl 	VehicleRemoved 	0
scalar IntersectionExampleScenario.node[25].appl 	ArrivedAtDest 	1
scalar IntersectionExampleScenario.node[25].appl 	IntersectionEnterTime 	104.75
scalar IntersectionExampleScenario.node[25].appl 	IntersectionExitTime 	140.75851215911
scalar IntersectionExampleScenario.node[25].appl 	NumberOfCollisions 	0
scalar IntersectionExampleScenario.node[25].nic.phy80211p 	busyTime 	0
scalar IntersectionExampleScenario.node[25].nic.mac1609_4 	ReceivedUnicastPackets 	0
scalar IntersectionExampleScenario.node[25].nic.mac1609_4 	ReceivedBroadcasts 	0
scalar IntersectionExampleScenario.node[25].nic.mac1609_4 	SentPackets 	0
scalar IntersectionExampleScenario.node[25].nic.mac1609_4 	SNIRLostPackets 	0
scalar IntersectionExampleScenario.node[25].nic.mac1609_4 	RXTXLostPackets 	0
scalar IntersectionExampleScenario.node[25].nic.mac1609_4 	TotalLostPackets 	0
scalar IntersectionExampleScenario.node[25].nic.mac1609_4 	DroppedPacketsInMac 	0
scalar IntersectionExampleScenario.node[25].nic.mac1609_4 	TooLittleTime 	0
scalar IntersectionExampleScenario.node[25].nic.mac1609_4 	TimesIntoBackoff 	0
scalar IntersectionExampleScenario.node[25].nic.mac1609_4 	SlotsBackoff 	0
scalar IntersectionExampleScenario.node[25].nic.mac1609_4 	NumInternalContention 	0
scalar IntersectionExampleScenario.node[25].nic.mac1609_4 	totalBusyTime 	0
scalar IntersectionExampleScenario.node[25].veinsmobility 	startTime 	104.75
scalar IntersectionExampleScenario.node[25].veinsmobility 	totalTime 	51.75
scalar IntersectionExampleScenario.node[25].veinsmobility 	stopTime 	156.75
scalar IntersectionExampleScenario.node[25].veinsmobility 	minSpeed 	1.2245219945908
scalar IntersectionExampleScenario.node[25].veinsmobility 	maxSpeed 	16.27499961853
scalar IntersectionExampleScenario.node[25].veinsmobility 	totalDistance 	551.19692085492
scalar IntersectionExampleScenario.node[25].veinsmobility 	totalCO2Emission 	147.77307884673
scalar IntersectionExampleScenario.node[27].appl 	VehicleRemoved 	0
scalar IntersectionExampleScenario.node[27].appl 	ArrivedAtDest 	1
scalar IntersectionExampleScenario.node[27].appl 	IntersectionEnterTime 	118.75
scalar IntersectionExampleScenario.node[27].appl 	IntersectionExitTime 	143.537466234
scalar IntersectionExampleScenario.node[27].appl 	NumberOfCollisions 	0
scalar IntersectionExampleScenario.node[27].nic.phy80211p 	busyTime 	0
scalar IntersectionExampleScenario.node[27].nic.mac1609_4 	ReceivedUnicastPackets 	0
scalar IntersectionExampleScenario.node[27].nic.mac1609_4 	ReceivedBroadcasts 	0
scalar IntersectionExampleScenario.node[27].nic.mac1609_4 	SentPackets 	0
scalar IntersectionExampleScenario.node[27].nic.mac1609_4 	SNIRLostPackets 	0
scalar IntersectionExampleScenario.node[27].nic.mac1609_4 	RXTXLostPackets 	0
scalar IntersectionExampleScenario.node[27].nic.mac1609_4 	TotalLostPackets 	0
scalar IntersectionExampleScenario.node[27].nic.mac1609_4 	DroppedPacketsInMac 	0
scalar IntersectionExampleScenario.node[27].nic.mac1609_4 	TooLittleTime 	0
scalar IntersectionExampleScenario.node[27].nic.mac1609_4 	TimesIntoBackoff 	0
scalar IntersectionExampleScenario.node[27].nic.mac1609_4 	SlotsBackoff 	0
scalar IntersectionExampleScenario.node[27].nic.mac1609_4 	NumInternalContention 	0
scalar IntersectionExampleScenario.node[27].nic.mac1609_4 	totalBusyTime 	0
scalar IntersectionExampleScenario.node[27].veinsmobility 	startTime 	118.75
scalar IntersectionExampleScenario.node[27].veinsmobility 	totalTime 	41.5
scalar IntersectionExampleScenario.node[27].veinsmobility 	stopTime 	160.5
scalar IntersectionExampleScenario.node[27].veinsmobility 	minSpeed 	5.6500000953674
scalar IntersectionExampleScenario.node[27].veinsmobility 	maxSpeed 	15.68763923645
scalar IntersectionExampleScenario.node[27].veinsmobility 	totalDistance 	544.19068678027
scalar IntersectionExampleScenario.node[27].veinsmobility 	totalCO2Emission 	141.19637231419
scalar IntersectionExampleScenario.node[10].appl 	VehicleRemoved 	0
scalar IntersectionExampleScenario.node[10].appl 	ArrivedAtDest 	1
scalar IntersectionExampleScenario.node[10].appl 	IntersectionEnterTime 	46.5
scalar IntersectionExampleScenario.node[10].appl 	IntersectionExitTime 	155.34586000571
scalar IntersectionExampleScenario.node[10].appl 	NumberOfCollisions 	0
scalar IntersectionExampleScenario.node[10].nic.phy80211p 	busyTime 	0
scalar IntersectionExampleScenario.node[10].nic.mac1609_4 	ReceivedUnicastPackets 	0
scalar IntersectionExampleScenario.node[10].nic.mac1609_4 	ReceivedBroadcasts 	0
scalar IntersectionExampleScenario.node[10].nic.mac1609_4 	SentPackets 	0
scalar IntersectionExampleScenario.node[10].nic.mac1609_4 	SNIRLostPackets 	0
scalar IntersectionExampleScenario.node[10].nic.mac1609_4 	RXTXLostPackets 	0
scalar IntersectionExampleScenario.node[10].nic.mac1609_4 	TotalLostPackets 	0
scalar IntersectionExampleScenario.node[10].nic.mac1609_4 	DroppedPacketsInMac 	0
scalar IntersectionExampleScenario.node[10].nic.mac1609_4 	TooLittleTime 	0
scalar IntersectionExampleScenario.node[10].nic.mac1609_4 	TimesIntoBackoff 	0
scalar IntersectionExampleScenario.node[10].nic.mac1609_4 	SlotsBackoff 	0
scalar IntersectionExampleScenario.node[10].nic.mac1609_4 	NumInternalContention 	0
scalar IntersectionExampleScenario.node[10].nic.mac1609_4 	totalBusyTime 	0
scalar IntersectionExampleScenario.node[10].veinsmobility 	startTime 	46.5
scalar IntersectionExampleScenario.node[10].veinsmobility 	totalTime 	125
scalar IntersectionExampleScenario.node[10].veinsmobility 	stopTime 	171.75
scalar IntersectionExampleScenario.node[10].veinsmobility 	minSpeed 	0
scalar IntersectionExampleScenario.node[10].veinsmobility 	maxSpeed 	15.375
scalar IntersectionExampleScenario.node[10].veinsmobility 	totalDistance 	552.79933166504
scalar IntersectionExampleScenario.node[10].veinsmobility 	totalCO2Emission 	213.28241206543
scalar IntersectionExampleScenario.node[13].appl 	VehicleRemoved 	0
scalar IntersectionExampleScenario.node[13].appl 	ArrivedAtDest 	1
scalar IntersectionExampleScenario.node[13].appl 	IntersectionEnterTime 	55.5
scalar IntersectionExampleScenario.node[13].appl 	IntersectionExitTime 	156.07442995056
scalar IntersectionExampleScenario.node[13].appl 	NumberOfCollisions 	0
scalar IntersectionExampleScenario.node[13].nic.phy80211p 	busyTime 	0
scalar IntersectionExampleScenario.node[13].nic.mac1609_4 	ReceivedUnicastPackets 	0
scalar IntersectionExampleScenario.node[13].nic.mac1609_4 	ReceivedBroadcasts 	0
scalar IntersectionExampleScenario.node[13].nic.mac1609_4 	SentPackets 	0
scalar IntersectionExampleScenario.node[13].nic.mac1609_4 	SNIRLostPackets 	0
scalar IntersectionExampleScenario.node[13].nic.mac1609_4 	RXTXLostPackets 	0
scalar IntersectionExampleScenario.node[13].nic.mac1609_4 	TotalLostPackets 	0
scalar IntersectionExampleScenario.node[13].nic.mac1609_4 	DroppedPacketsInMac 	0
scalar IntersectionExampleScenario.node[13].nic.mac1609_4 	TooLittleTime 	0
scalar IntersectionExampleScenario.node[13].nic.mac1609_4 	TimesIntoBackoff 	0
scalar IntersectionExampleScenario.node[13].nic.mac1609_4 	SlotsBackoff 	0
scalar IntersectionExampleScenario.node[13].nic.mac1609_4 	NumInternalContention 	0
scalar IntersectionExampleScenario.node[13].nic.mac1609_4 	totalBusyTime 	0
scalar IntersectionExampleScenario.node[13].veinsmobility 	startTime 	55.5
scalar IntersectionExampleScenario.node[13].veinsmobility 	totalTime 	116.5
scalar IntersectionExampleScenario.node[13].veinsmobility 	stopTime 	172.25
scalar IntersectionExampleScenario.node[13].veinsmobility 	minSpeed 	0
scalar IntersectionExampleScenario.node[13].veinsmobility 	maxSpeed 	16.5
scalar IntersectionExampleScenario.node[13].veinsmobility 	totalDistance 	543.29304953422
scalar IntersectionExampleScenario.node[13].veinsmobility 	totalCO2Emission 	210.21702347483
scalar IntersectionExampleScenario.node[17].appl 	VehicleRemoved 	0
scalar IntersectionExampleScenario.node[17].appl 	ArrivedAtDest 	1
scalar IntersectionExampleScenario.node[17].appl 	IntersectionEnterTime 	61.25
scalar IntersectionExampleScenario.node[17].appl 	IntersectionExitTime 	158.52538082711
scalar IntersectionExampleScenario.node[17].appl 	NumberOfCollisions 	0
scalar IntersectionExampleScenario.node[17].nic.phy80211p 	busyTime 	0
scalar IntersectionExampleScenario.node[17].nic.mac1609_4 	ReceivedUnicastPackets 	0
scalar IntersectionExampleScenario.node[17].nic.mac1609_4 	ReceivedBroadcasts 	0
scalar IntersectionExampleScenario.node[17].nic.mac1609_4 	SentPackets 	0
scalar IntersectionExampleScenario.node[17].nic.mac1609_4 	SNIRLostPackets 	0
scalar IntersectionExampleScenario.node[17].nic.mac1609_4 	RXTXLostPackets 	0
scalar IntersectionExampleScenario.node[17].nic.mac1609_4 	TotalLostPackets 	0
scalar IntersectionExampleScenario.node[17].nic.mac1609_4 	DroppedPacketsInMac 	0
scalar IntersectionExampleScenario.node[17].nic.mac1609_4 	TooLittleTime 	0
scalar IntersectionExampleScenario.node[17].nic.mac1609_4 	TimesIntoBackoff 	0
scalar IntersectionExampleScenario.node[17].nic.mac1609_4 	SlotsBackoff 	0
scalar IntersectionExampleScenario.node[17].nic.mac1609_4 	NumInternalContention 	0
scalar IntersectionExampleScenario.node[17].nic.mac1609_4 	totalBusyTime 	0
scalar IntersectionExampleScenario.node[17].veinsmobility 	startTime 	61.25
scalar IntersectionExampleScenario.node[17].veinsmobility 	totalTime 	113.75
scalar IntersectionExampleScenario.node[17].veinsmobility 	stopTime 	175.25
scalar IntersectionExampleScenario.node[17].veinsmobility 	minSpeed 	0
scalar IntersectionExampleScenario.node[17].veinsmobility 	maxSpeed 	15.875
scalar IntersectionExampleScenario.node[17].veinsmobility 	totalDistance 	543.37463264164
scalar IntersectionExampleScenario.node[17].veinsmobility 	totalCO2Emission 	202.34941663478
scalar IntersectionExampleScenario.node[19].appl 	VehicleRemoved 	0
scalar IntersectionExampleScenario.node[19].appl 	ArrivedAtDest 	1
scalar IntersectionExampleScenario.node[19].appl 	IntersectionEnterTime 	74.75
scalar IntersectionExampleScenario.node[19].appl 	IntersectionExitTime 	161.04386977811
scalar IntersectionExampleScenario.node[19].appl 	NumberOfCollisions 	0
scalar IntersectionExampleScenario.node[19].nic.phy80211p 	busyTime 	0
scalar IntersectionExampleScenario.node[19].nic.mac1609_4 	ReceivedUnicastPackets 	0
scalar IntersectionExampleScenario.node[19].nic.mac1609_4 	ReceivedBroadcasts 	0
scalar IntersectionExampleScenario.node[19].nic.mac1609_4 	SentPackets 	0
scalar IntersectionExampleScenario.node[19].nic.mac1609_4 	SNIRLostPackets 	0
scalar IntersectionExampleScenario.node[19].nic.mac1609_4 	RXTXLostPackets 	0
scalar IntersectionExampleScenario.node[19].nic.mac1609_4 	TotalLostPackets 	0
scalar IntersectionExampleScenario.node[19].nic.mac1609_4 	DroppedPacketsInMac 	0
scalar IntersectionExampleScenario.node[19].nic.mac1609_4 	TooLittleTime 	0
scalar IntersectionExampleScenario.node[19].nic.mac1609_4 	TimesIntoBackoff 	0
scalar IntersectionExampleScenario.node[19].nic.mac1609_4 	SlotsBackoff 	0
scalar IntersectionExampleScenario.node[19].nic.mac1609_4 	NumInternalContention 	0
scalar IntersectionExampleScenario.node[19].nic.mac1609_4 	totalBusyTime 	0
scalar IntersectionExampleScenario.node[19].veinsmobility 	startTime 	74.75
scalar IntersectionExampleScenario.node[19].veinsmobility 	totalTime 	103.5
scalar IntersectionExampleScenario.node[19].veinsmobility 	stopTime 	178.5
scalar IntersectionExampleScenario.node[19].veinsmobility 	minSpeed 	0
scalar IntersectionExampleScenario.node[19].veinsmobility 	maxSpeed 	15.02499961853
scalar IntersectionExampleScenario.node[19].veinsmobility 	totalDistance 	543.70667000884
scalar IntersectionExampleScenario.node[19].veinsmobility 	totalCO2Emission 	187.29318365715
scalar IntersectionExampleScenario.node[21].appl 	VehicleRemoved 	0
scalar IntersectionExampleScenario.node[21].appl 	ArrivedAtDest 	1
scalar IntersectionExampleScenario.node[21].appl 	IntersectionEnterTime 	91
scalar IntersectionExampleScenario.node[21].appl 	IntersectionExitTime 	164.03788282041
scalar IntersectionExampleScenario.node[21].appl 	NumberOfCollisions 	0
scalar IntersectionExampleScenario.node[21].nic.phy80211p 	busyTime 	0
scalar IntersectionExampleScenario.node[21].nic.mac1609_4 	ReceivedUnicastPackets 	0
scalar IntersectionExampleScenario.node[21].nic.mac1609_4 	ReceivedBroadcasts 	0
scalar IntersectionExampleScenario.node[21].nic.mac1609_4 	SentPackets 	0
scalar IntersectionExampleScenario.node[21].nic.mac1609_4 	SNIRLostPackets 	0
scalar IntersectionExampleScenario.node[21].nic.mac1609_4 	RXTXLostPackets 	0
scalar IntersectionExampleScenario.node[21].nic.mac1609_4 	TotalLostPackets 	0
scalar IntersectionExampleScenario.node[21].nic.mac1609_4 	DroppedPacketsInMac 	0
scalar IntersectionExampleScenario.node[21].nic.mac1609_4 	TooLittleTime 	0
scalar IntersectionExampleScenario.node[21].nic.mac1609_4 	TimesIntoBackoff 	0
scalar IntersectionExampleScenario.node[21].nic.mac1609_4 	SlotsBackoff 	0
scalar IntersectionExampleScenario.node[21].nic.mac1609_4 	NumInternalContention 	0
scalar IntersectionExampleScenario.node[21].nic.mac1609_4 	totalBusyTime 	0
scalar IntersectionExampleScenario.node[21].veinsmobility 	startTime 	91
scalar IntersectionExampleScenario.node[21].veinsmobility 	totalTime 	90.75
scalar IntersectionExampleScenario.node[21].veinsmobility 	stopTime 	182
scalar IntersectionExampleScenario.node[21].veinsmobility 	minSpeed 	0
scalar IntersectionExampleScenario.node[21].veinsmobility 	maxSpeed 	14.625
scalar IntersectionExampleScenario.node[21].veinsmobility 	totalDistance 	545.77730730352
scalar IntersectionExampleScenario.node[21].veinsmobility 	totalCO2Emission 	173.11634051254
scalar IntersectionExampleScenario.node[22].appl 	VehicleRemoved 	0
scalar IntersectionExampleScenario.node[22].appl 	ArrivedAtDest 	1
scalar IntersectionExampleScenario.node[22].appl 	IntersectionEnterTime 	92.75
scalar IntersectionExampleScenario.node[22].appl 	IntersectionExitTime 	166.05939153075
scalar IntersectionExampleScenario.node[22].appl 	NumberOfCollisions 	0
scalar IntersectionExampleScenario.node[22].nic.phy80211p 	busyTime 	0
scalar IntersectionExampleScenario.node[22].nic.mac1609_4 	ReceivedUnicastPackets 	0
scalar IntersectionExampleScenario.node[22].nic.mac1609_4 	ReceivedBroadcasts 	0
scalar IntersectionExampleScenario.node[22].nic.mac1609_4 	SentPackets 	0
scalar IntersectionExampleScenario.node[22].nic.mac1609_4 	SNIRLostPackets 	0
scalar IntersectionExampleScenario.node[22].nic.mac1609_4 	RXTXLostPackets 	0
scalar IntersectionExampleScenario.node[22].nic.mac1609_4 	TotalLostPackets 	0
scalar IntersectionExampleScenario.node[22].nic.mac1609_4 	DroppedPacketsInMac 	0
scalar IntersectionExampleScenario.node[22].nic.mac1609_4 	TooLittleTime 	0
scalar IntersectionExampleScenario.node[22].nic.mac1609_4 	TimesIntoBackoff 	0
scalar IntersectionExampleScenario.node[22].nic.mac1609_4 	SlotsBackoff 	0
scalar IntersectionExampleScenario.node[22].nic.mac1609_4 	NumInternalContention 	0
scalar IntersectionExampleScenario.node[22].nic.mac1609_4 	totalBusyTime 	0
scalar IntersectionExampleScenario.node[22].veinsmobility 	startTime 	92.75
scalar IntersectionExampleScenario.node[22].veinsmobility 	totalTime 	90.25
scalar IntersectionExampleScenario.node[22].veinsmobility 	stopTime 	183.25
scalar IntersectionExampleScenario.node[22].veinsmobility 	minSpeed 	0
scalar IntersectionExampleScenario.node[22].veinsmobility 	maxSpeed 	15.553070068359
scalar IntersectionExampleScenario.node[22].veinsmobility 	totalDistance 	563.96570064478
scalar IntersectionExampleScenario.node[22].veinsmobility 	totalCO2Emission 	188.02062543254
scalar IntersectionExampleScenario.node[24].appl 	VehicleRemoved 	0
scalar IntersectionExampleScenario.node[24].appl 	ArrivedAtDest 	1
scalar IntersectionExampleScenario.node[24].appl 	IntersectionEnterTime 	98
scalar IntersectionExampleScenario.node[24].appl 	IntersectionExitTime 	185.28978410052
scalar IntersectionExampleScenario.node[24].appl 	NumberOfCollisions 	0
scalar IntersectionExampleScenario.node[24].nic.phy80211p 	busyTime 	0
scalar IntersectionExampleScenario.node[24].nic.mac1609_4 	ReceivedUnicastPackets 	0
scalar IntersectionExampleScenario.node[24].nic.mac1609_4 	ReceivedBroadcasts 	0
scalar IntersectionExampleScenario.node[24].nic.mac1609_4 	SentPackets 	0
scalar IntersectionExampleScenario.node[24].nic.mac1609_4 	SNIRLostPackets 	0
scalar IntersectionExampleScenario.node[24].nic.mac1609_4 	RXTXLostPackets 	0
scalar IntersectionExampleScenario.node[24].nic.mac1609_4 	TotalLostPackets 	0
scalar IntersectionExampleScenario.node[24].nic.mac1609_4 	DroppedPacketsInMac 	0
scalar IntersectionExampleScenario.node[24].nic.mac1609_4 	TooLittleTime 	0
scalar IntersectionExampleScenario.node[24].nic.mac1609_4 	TimesIntoBackoff 	0
scalar IntersectionExampleScenario.node[24].nic.mac1609_4 	SlotsBackoff 	0
scalar IntersectionExampleScenario.node[24].nic.mac1609_4 	NumInternalContention 	0
scalar IntersectionExampleScenario.node[24].nic.mac1609_4 	totalBusyTime 	0
scalar IntersectionExampleScenario.node[24].veinsmobility 	startTime 	98
scalar IntersectionExampleScenario.node[24].veinsmobility 	totalTime 	103.5
scalar IntersectionExampleScenario.node[24].veinsmobility 	stopTime 	201.75
scalar IntersectionExampleScenario.node[24].veinsmobility 	minSpeed 	0
scalar IntersectionExampleScenario.node[24].veinsmobility 	maxSpeed 	15.375
scalar IntersectionExampleScenario.node[24].veinsmobility 	totalDistance 	553.37905883789
scalar IntersectionExampleScenario.node[24].veinsmobility 	totalCO2Emission 	192.75410560234
scalar IntersectionExampleScenario.node[30].appl 	VehicleRemoved 	0
scalar IntersectionExampleScenario.node[30].appl 	ArrivedAtDest 	1
scalar IntersectionExampleScenario.node[30].appl 	IntersectionEnterTime 	140.75
scalar IntersectionExampleScenario.node[30].appl 	IntersectionExitTime 	186.03693026764
scalar IntersectionExampleScenario.node[30].appl 	NumberOfCollisions 	0
scalar IntersectionExampleScenario.node[30].nic.phy80211p 	busyTime 	0
scalar IntersectionExampleScenario.node[30].nic.mac1609_4 	ReceivedUnicastPackets 	0
scalar IntersectionExampleScenario.node[30].nic.mac1609_4 	ReceivedBroadcasts 	0
scalar IntersectionExampleScenario.node[30].nic.mac1609_4 	SentPackets 	0
scalar IntersectionExampleScenario.node[30].nic.mac1609_4 	SNIRLostPackets 	0
scalar IntersectionExampleScenario.node[30].nic.mac1609_4 	RXTXLostPackets 	0
scalar IntersectionExampleScenario.node[30].nic.mac1609_4 	TotalLostPackets 	0
scalar IntersectionExampleScenario.node[30].nic.mac1609_4 	DroppedPacketsInMac 	0
scalar IntersectionExampleScenario.node[30].nic.mac1609_4 	TooLittleTime 	0
scalar IntersectionExampleScenario.node[30].nic.mac1609_4 	TimesIntoBackoff 	0
scalar IntersectionExampleScenario.node[30].nic.mac1609_4 	SlotsBackoff 	0
scalar IntersectionExampleScenario.node[30].nic.mac1609_4 	NumInternalContention 	0
scalar IntersectionExampleScenario.node[30].nic.mac1609_4 	totalBusyTime 	0
scalar IntersectionExampleScenario.node[30].veinsmobility 	startTime 	140.75
scalar IntersectionExampleScenario.node[30].veinsmobility 	totalTime 	61.5
scalar IntersectionExampleScenario.node[30].veinsmobility 	stopTime 	202.5
scalar IntersectionExampleScenario.node[30].veinsmobility 	minSpeed 	0
scalar IntersectionExampleScenario.node[30].veinsmobility 	maxSpeed 	16.27499961853
scalar IntersectionExampleScenario.node[30].veinsmobility 	totalDistance 	544.02035473382
scalar IntersectionExampleScenario.node[30].veinsmobility 	totalCO2Emission 	155.44866547885
scalar IntersectionExampleScenario.node[33].appl 	VehicleRemoved 	0
scalar IntersectionExampleScenario.node[33].appl 	ArrivedAtDest 	1
scalar IntersectionExampleScenario.node[33].appl 	IntersectionEnterTime 	147.5
scalar IntersectionExampleScenario.node[33].appl 	IntersectionExitTime 	188.58098655316
scalar IntersectionExampleScenario.node[33].appl 	NumberOfCollisions 	0
scalar IntersectionExampleScenario.node[33].nic.phy80211p 	busyTime 	0
scalar IntersectionExampleScenario.node[33].nic.mac1609_4 	ReceivedUnicastPackets 	0
scalar IntersectionExampleScenario.node[33].nic.mac1609_4 	ReceivedBroadcasts 	0
scalar IntersectionExampleScenario.node[33].nic.mac1609_4 	SentPackets 	0
scalar IntersectionExampleScenario.node[33].nic.mac1609_4 	SNIRLostPackets 	0
scalar IntersectionExampleScenario.node[33].nic.mac1609_4 	RXTXLostPackets 	0
scalar IntersectionExampleScenario.node[33].nic.mac1609_4 	TotalLostPackets 	0
scalar IntersectionExampleScenario.node[33].nic.mac1609_4 	DroppedPacketsInMac 	0
scalar IntersectionExampleScenario.node[33].nic.mac1609_4 	TooLittleTime 	0
scalar IntersectionExampleScenario.node[33].nic.mac1609_4 	TimesIntoBackoff 	0
scalar IntersectionExampleScenario.node[33].nic.mac1609_4 	SlotsBackoff 	0
scalar IntersectionExampleScenario.node[33].nic.mac1609_4 	NumInternalContention 	0
scalar IntersectionExampleScenario.node[33].nic.mac1609_4 	totalBusyTime 	0
scalar IntersectionExampleScenario.node[33].veinsmobility 	startTime 	147.5
scalar IntersectionExampleScenario.node[33].veinsmobility 	totalTime 	57
scalar IntersectionExampleScenario.node[33].veinsmobility 	stopTime 	204.75
scalar IntersectionExampleScenario.node[33].veinsmobility 	minSpeed 	0
scalar IntersectionExampleScenario.node[33].veinsmobility 	maxSpeed 	16
scalar IntersectionExampleScenario.node[33].veinsmobility 	totalDistance 	550.49212545842
scalar IntersectionExampleScenario.node[33].veinsmobility 	totalCO2Emission 	148.63431147809
scalar IntersectionExampleScenario.node[38].appl 	VehicleRemoved 	0
scalar IntersectionExampleScenario.node[38].appl 	ArrivedAtDest 	1
scalar IntersectionExampleScenario.node[38].appl 	IntersectionEnterTime 	167.25
scalar IntersectionExampleScenario.node[38].appl 	IntersectionExitTime 	191.60435989144
scalar IntersectionExampleScenario.node[38].appl 	NumberOfCollisions 	0
scalar IntersectionExampleScenario.node[38].nic.phy80211p 	busyTime 	0
scalar IntersectionExampleScenario.node[38].nic.mac1609_4 	ReceivedUnicastPackets 	0
scalar IntersectionExampleScenario.node[38].nic.mac1609_4 	ReceivedBroadcasts 	0
scalar IntersectionExampleScenario.node[38].nic.mac1609_4 	SentPackets 	0
scalar IntersectionExampleScenario.node[38].nic.mac1609_4 	SNIRLostPackets 	0
scalar IntersectionExampleScenario.node[38].nic.mac1609_4 	RXTXLostPackets 	0
scalar IntersectionExampleScenario.node[38].nic.mac1609_4 	TotalLostPackets 	0
scalar IntersectionExampleScenario.node[38].nic.mac1609_4 	DroppedPacketsInMac 	0
scalar IntersectionExampleScenario.node[38].nic.mac1609_4 	TooLittleTime 	0
scalar IntersectionExampleScenario.node[38].nic.mac1609_4 	TimesIntoBackoff 	0
scalar IntersectionExampleScenario.node[38].nic.mac1609_4 	SlotsBackoff 	0
scalar IntersectionExampleScenario.node[38].nic.mac1609_4 	NumInternalContention 	0
scalar IntersectionExampleScenario.node[38].nic.mac1609_4 	totalBusyTime 	0
scalar IntersectionExampleScenario.node[38].veinsmobility 	startTime 	167.25
scalar IntersectionExampleScenario.node[38].veinsmobility 	totalTime 	40.25
scalar IntersectionExampleScenario.node[38].veinsmobility 	stopTime 	207.75
scalar IntersectionExampleScenario.node[38].veinsmobility 	minSpeed 	5.6500000953674
scalar IntersectionExampleScenario.node[38].veinsmobility 	maxSpeed 	16
scalar IntersectionExampleScenario.node[38].veinsmobility 	totalDistance 	551.28225439626
scalar IntersectionExampleScenario.node[38].veinsmobility 	totalCO2Emission 	135.43347429163
scalar IntersectionExampleScenario.node[39].appl 	VehicleRemoved 	0
scalar IntersectionExampleScenario.node[39].appl 	ArrivedAtDest 	1
scalar IntersectionExampleScenario.node[39].appl 	IntersectionEnterTime 	179.75
scalar IntersectionExampleScenario.node[39].appl 	IntersectionExitTime 	203.60797127447
scalar IntersectionExampleScenario.node[39].appl 	NumberOfCollisions 	0
scalar IntersectionExampleScenario.node[39].nic.phy80211p 	busyTime 	0
scalar IntersectionExampleScenario.node[39].nic.mac1609_4 	ReceivedUnicastPackets 	0
scalar IntersectionExampleScenario.node[39].nic.mac1609_4 	ReceivedBroadcasts 	0
scalar IntersectionExampleScenario.node[39].nic.mac1609_4 	SentPackets 	0
scalar IntersectionExampleScenario.node[39].nic.mac1609_4 	SNIRLostPackets 	0
scalar IntersectionExampleScenario.node[39].nic.mac1609_4 	RXTXLostPackets 	0
scalar IntersectionExampleScenario.node[39].nic.mac1609_4 	TotalLostPackets 	0
scalar IntersectionExampleScenario.node[39].nic.mac1609_4 	DroppedPacketsInMac 	0
scalar IntersectionExampleScenario.node[39].nic.mac1609_4 	TooLittleTime 	0
scalar IntersectionExampleScenario.node[39].nic.mac1609_4 	TimesIntoBackoff 	0
scalar IntersectionExampleScenario.node[39].nic.mac1609_4 	SlotsBackoff 	0
scalar IntersectionExampleScenario.node[39].nic.mac1609_4 	NumInternalContention 	0
scalar IntersectionExampleScenario.node[39].nic.mac1609_4 	totalBusyTime 	0
scalar IntersectionExampleScenario.node[39].veinsmobility 	startTime 	179.75
scalar IntersectionExampleScenario.node[39].veinsmobility 	totalTime 	40.5
scalar IntersectionExampleScenario.node[39].veinsmobility 	stopTime 	220.5
scalar IntersectionExampleScenario.node[39].veinsmobility 	minSpeed 	5.6500000953674
scalar IntersectionExampleScenario.node[39].veinsmobility 	maxSpeed 	15.25
scalar IntersectionExampleScenario.node[39].veinsmobility 	totalDistance 	543.14953722842
scalar IntersectionExampleScenario.node[39].veinsmobility 	totalCO2Emission 	124.83509642737
scalar IntersectionExampleScenario.node[26].appl 	VehicleRemoved 	0
scalar IntersectionExampleScenario.node[26].appl 	ArrivedAtDest 	1
scalar IntersectionExampleScenario.node[26].appl 	IntersectionEnterTime 	114.75
scalar IntersectionExampleScenario.node[26].appl 	IntersectionExitTime 	214.57325274707
scalar IntersectionExampleScenario.node[26].appl 	NumberOfCollisions 	0
scalar IntersectionExampleScenario.node[26].nic.phy80211p 	busyTime 	0
scalar IntersectionExampleScenario.node[26].nic.mac1609_4 	ReceivedUnicastPackets 	0
scalar IntersectionExampleScenario.node[26].nic.mac1609_4 	ReceivedBroadcasts 	0
scalar IntersectionExampleScenario.node[26].nic.mac1609_4 	SentPackets 	0
scalar IntersectionExampleScenario.node[26].nic.mac1609_4 	SNIRLostPackets 	0
scalar IntersectionExampleScenario.node[26].nic.mac1609_4 	RXTXLostPackets 	0
scalar IntersectionExampleScenario.node[26].nic.mac1609_4 	TotalLostPackets 	0
scalar IntersectionExampleScenario.node[26].nic.mac1609_4 	DroppedPacketsInMac 	0
scalar IntersectionExampleScenario.node[26].nic.mac1609_4 	TooLittleTime 	0
scalar IntersectionExampleScenario.node[26].nic.mac1609_4 	TimesIntoBackoff 	0
scalar IntersectionExampleScenario.node[26].nic.mac1609_4 	SlotsBackoff 	0
scalar IntersectionExampleScenario.node[26].nic.mac1609_4 	NumInternalContention 	0
scalar IntersectionExampleScenario.node[26].nic.mac1609_4 	totalBusyTime 	0
scalar IntersectionExampleScenario.node[26].veinsmobility 	startTime 	114.75
scalar IntersectionExampleScenario.node[26].veinsmobility 	totalTime 	116.75
scalar IntersectionExampleScenario.node[26].veinsmobility 	stopTime 	231.75
scalar IntersectionExampleScenario.node[26].veinsmobility 	minSpeed 	0
scalar IntersectionExampleScenario.node[26].veinsmobility 	maxSpeed 	15.25
scalar IntersectionExampleScenario.node[26].veinsmobility 	totalDistance 	543.92477322966
scalar IntersectionExampleScenario.node[26].veinsmobility 	totalCO2Emission 	204.00660192622
scalar IntersectionExampleScenario.node[28].appl 	VehicleRemoved 	0
scalar IntersectionExampleScenario.node[28].appl 	ArrivedAtDest 	1
scalar IntersectionExampleScenario.node[28].appl 	IntersectionEnterTime 	129
scalar IntersectionExampleScenario.node[28].appl 	IntersectionExitTime 	217.00630970925
scalar IntersectionExampleScenario.node[28].appl 	NumberOfCollisions 	0
scalar IntersectionExampleScenario.node[28].nic.phy80211p 	busyTime 	0
scalar IntersectionExampleScenario.node[28].nic.mac1609_4 	ReceivedUnicastPackets 	0
scalar IntersectionExampleScenario.node[28].nic.mac1609_4 	ReceivedBroadcasts 	0
scalar IntersectionExampleScenario.node[28].nic.mac1609_4 	SentPackets 	0
scalar IntersectionExampleScenario.node[28].nic.mac1609_4 	SNIRLostPackets 	0
scalar IntersectionExampleScenario.node[28].nic.mac1609_4 	RXTXLostPackets 	0
scalar IntersectionExampleScenario.node[28].nic.mac1609_4 	TotalLostPackets 	0
scalar IntersectionExampleScenario.node[28].nic.mac1609_4 	DroppedPacketsInMac 	0
scalar IntersectionExampleScenario.node[28].nic.mac1609_4 	TooLittleTime 	0
scalar IntersectionExampleScenario.node[28].nic.mac1609_4 	TimesIntoBackoff 	0
scalar IntersectionExampleScenario.node[28].nic.mac1609_4 	SlotsBackoff 	0
scalar IntersectionExampleScenario.node[28].nic.mac1609_4 	NumInternalContention 	0
scalar IntersectionExampleScenario.node[28].nic.mac1609_4 	totalBusyTime 	0
scalar IntersectionExampleScenario.node[28].veinsmobility 	startTime 	129
scalar IntersectionExampleScenario.node[28].veinsmobility 	totalTime 	104.5
scalar IntersectionExampleScenario.node[28].veinsmobility 	stopTime 	233.75
scalar IntersectionExampleScenario.node[28].veinsmobility 	minSpeed 	0
scalar IntersectionExampleScenario.node[28].veinsmobility 	maxSpeed 	15.64999961853
scalar IntersectionExampleScenario.node[28].veinsmobility 	totalDistance 	542.87082714004
scalar IntersectionExampleScenario.node[28].veinsmobility 	totalCO2Emission 	193.79054956854
scalar IntersectionExampleScenario.node[31].appl 	VehicleRemoved 	0
scalar IntersectionExampleScenario.node[31].appl 	ArrivedAtDest 	1
scalar IntersectionExampleScenario.node[31].appl 	IntersectionEnterTime 	144.5
scalar IntersectionExampleScenario.node[31].appl 	IntersectionExitTime 	219.37027461088
scalar IntersectionExampleScenario.node[31].appl 	NumberOfCollisions 	0
scalar IntersectionExampleScenario.node[31].nic.phy80211p 	busyTime 	0
scalar IntersectionExampleScenario.node[31].nic.mac1609_4 	ReceivedUnicastPackets 	0
scalar IntersectionExampleScenario.node[31].nic.mac1609_4 	ReceivedBroadcasts 	0
scalar IntersectionExampleScenario.node[31].nic.mac1609_4 	SentPackets 	0
scalar IntersectionExampleScenario.node[31].nic.mac1609_4 	SNIRLostPackets 	0
scalar IntersectionExampleScenario.node[31].nic.mac1609_4 	RXTXLostPackets 	0
scalar IntersectionExampleScenario.node[31].nic.mac1609_4 	TotalLostPackets 	0
scalar IntersectionExampleScenario.node[31].nic.mac1609_4 	DroppedPacketsInMac 	0
scalar IntersectionExampleScenario.node[31].nic.mac1609_4 	TooLittleTime 	0
scalar IntersectionExampleScenario.node[31].nic.mac1609_4 	TimesIntoBackoff 	0
scalar IntersectionExampleScenario.node[31].nic.mac1609_4 	SlotsBackoff 	0
scalar IntersectionExampleScenario.node[31].nic.mac1609_4 	NumInternalContention 	0
scalar IntersectionExampleScenario.node[31].nic.mac1609_4 	totalBusyTime 	0
scalar IntersectionExampleScenario.node[31].veinsmobility 	startTime 	144.5
scalar IntersectionExampleScenario.node[31].veinsmobility 	totalTime 	91.75
scalar IntersectionExampleScenario.node[31].veinsmobility 	stopTime 	236.5
scalar IntersectionExampleScenario.node[31].veinsmobility 	minSpeed 	0
scalar IntersectionExampleScenario.node[31].veinsmobility 	maxSpeed 	15.02499961853
scalar IntersectionExampleScenario.node[31].veinsmobility 	totalDistance 	551.79949865658
scalar IntersectionExampleScenario.node[31].veinsmobility 	totalCO2Emission 	177.00697875656
scalar IntersectionExampleScenario.node[32].appl 	VehicleRemoved 	0
scalar IntersectionExampleScenario.node[32].appl 	ArrivedAtDest 	1
scalar IntersectionExampleScenario.node[32].appl 	IntersectionEnterTime 	147
scalar IntersectionExampleScenario.node[32].appl 	IntersectionExitTime 	221.81473050857
scalar IntersectionExampleScenario.node[32].appl 	NumberOfCollisions 	0
scalar IntersectionExampleScenario.node[32].nic.phy80211p 	busyTime 	0
scalar IntersectionExampleScenario.node[32].nic.mac1609_4 	ReceivedUnicastPackets 	0
scalar IntersectionExampleScenario.node[32].nic.mac1609_4 	ReceivedBroadcasts 	0
scalar IntersectionExampleScenario.node[32].nic.mac1609_4 	SentPackets 	0
scalar IntersectionExampleScenario.node[32].nic.mac1609_4 	SNIRLostPackets 	0
scalar IntersectionExampleScenario.node[32].nic.mac1609_4 	RXTXLostPackets 	0
scalar IntersectionExampleScenario.node[32].nic.mac1609_4 	TotalLostPackets 	0
scalar IntersectionExampleScenario.node[32].nic.mac1609_4 	DroppedPacketsInMac 	0
scalar IntersectionExampleScenario.node[32].nic.mac1609_4 	TooLittleTime 	0
scalar IntersectionExampleScenario.node[32].nic.mac1609_4 	TimesIntoBackoff 	0
scalar IntersectionExampleScenario.node[32].nic.mac1609_4 	SlotsBackoff 	0
scalar IntersectionExampleScenario.node[32].nic.mac1609_4 	NumInternalContention 	0
scalar IntersectionExampleScenario.node[32].nic.mac1609_4 	totalBusyTime 	0
scalar IntersectionExampleScenario.node[32].veinsmobility 	startTime 	147
scalar IntersectionExampleScenario.node[32].veinsmobility 	totalTime 	91.5
scalar IntersectionExampleScenario.node[32].veinsmobility 	stopTime 	238.75
scalar IntersectionExampleScenario.node[32].veinsmobility 	minSpeed 	0
scalar IntersectionExampleScenario.node[32].veinsmobility 	maxSpeed 	15.25
scalar IntersectionExampleScenario.node[32].veinsmobility 	totalDistance 	560.56435430168
scalar IntersectionExampleScenario.node[32].veinsmobility 	totalCO2Emission 	188.07813910891
scalar IntersectionExampleScenario.node[36].appl 	VehicleRemoved 	0
scalar IntersectionExampleScenario.node[36].appl 	ArrivedAtDest 	1
scalar IntersectionExampleScenario.node[36].appl 	IntersectionEnterTime 	160.5
scalar IntersectionExampleScenario.node[36].appl 	IntersectionExitTime 	223.77355445756
scalar IntersectionExampleScenario.node[36].appl 	NumberOfCollisions 	0
scalar IntersectionExampleScenario.node[36].nic.phy80211p 	busyTime 	0
scalar IntersectionExampleScenario.node[36].nic.mac1609_4 	ReceivedUnicastPackets 	0
scalar IntersectionExampleScenario.node[36].nic.mac1609_4 	ReceivedBroadcasts 	0
scalar IntersectionExampleScenario.node[36].nic.mac1609_4 	SentPackets 	0
scalar IntersectionExampleScenario.node[36].nic.mac1609_4 	SNIRLostPackets 	0
scalar IntersectionExampleScenario.node[36].nic.mac1609_4 	RXTXLostPackets 	0
scalar IntersectionExampleScenario.node[36].nic.mac1609_4 	TotalLostPackets 	0
scalar IntersectionExampleScenario.node[36].nic.mac1609_4 	DroppedPacketsInMac 	0
scalar IntersectionExampleScenario.node[36].nic.mac1609_4 	TooLittleTime 	0
scalar IntersectionExampleScenario.node[36].nic.mac1609_4 	TimesIntoBackoff 	0
scalar IntersectionExampleScenario.node[36].nic.mac1609_4 	SlotsBackoff 	0
scalar IntersectionExampleScenario.node[36].nic.mac1609_4 	NumInternalContention 	0
scalar IntersectionExampleScenario.node[36].nic.mac1609_4 	totalBusyTime 	0
scalar IntersectionExampleScenario.node[36].veinsmobility 	startTime 	160.5
scalar IntersectionExampleScenario.node[36].veinsmobility 	totalTime 	79
scalar IntersectionExampleScenario.node[36].veinsmobility 	stopTime 	239.75
scalar IntersectionExampleScenario.node[36].veinsmobility 	minSpeed 	0
scalar IntersectionExampleScenario.node[36].veinsmobility 	maxSpeed 	16.27499961853
scalar IntersectionExampleScenario.node[36].veinsmobility 	totalDistance 	549.10192403034
scalar IntersectionExampleScenario.node[36].veinsmobility 	totalCO2Emission 	177.28669249814
scalar IntersectionExampleScenario.node[52].appl 	VehicleRemoved 	0
scalar IntersectionExampleScenario.node[52].appl 	ArrivedAtDest 	1
scalar IntersectionExampleScenario.node[52].appl 	IntersectionEnterTime 	220.75
scalar IntersectionExampleScenario.node[52].appl 	IntersectionExitTime 	243.07623419474
scalar IntersectionExampleScenario.node[52].appl 	NumberOfCollisions 	0
scalar IntersectionExampleScenario.node[52].nic.phy80211p 	busyTime 	0
scalar IntersectionExampleScenario.node[52].nic.mac1609_4 	ReceivedUnicastPackets 	0
scalar IntersectionExampleScenario.node[52].nic.mac1609_4 	ReceivedBroadcasts 	0
scalar IntersectionExampleScenario.node[52].nic.mac1609_4 	SentPackets 	0
scalar IntersectionExampleScenario.node[52].nic.mac1609_4 	SNIRLostPackets 	0
scalar IntersectionExampleScenario.node[52].nic.mac1609_4 	RXTXLostPackets 	0
scalar IntersectionExampleScenario.node[52].nic.mac1609_4 	TotalLostPackets 	0
scalar IntersectionExampleScenario.node[52].nic.mac1609_4 	DroppedPacketsInMac 	0
scalar IntersectionExampleScenario.node[52].nic.mac1609_4 	TooLittleTime 	0
scalar IntersectionExampleScenario.node[52].nic.mac1609_4 	TimesIntoBackoff 	0
scalar IntersectionExampleScenario.node[52].nic.mac1609_4 	SlotsBackoff 	0
scalar IntersectionExampleScenario.node[52].nic.mac1609_4 	NumInternalContention 	0
scalar IntersectionExampleScenario.node[52].nic.mac1609_4 	totalBusyTime 	0
scalar IntersectionExampleScenario.node[52].veinsmobility 	startTime 	220.75
scalar IntersectionExampleScenario.node[52].veinsmobility 	totalTime 	37.75
scalar IntersectionExampleScenario.node[52].veinsmobility 	stopTime 	258.75
scalar IntersectionExampleScenario.node[52].veinsmobility 	minSpeed 	5.6500000953674
scalar IntersectionExampleScenario.node[52].veinsmobility 	maxSpeed 	16.27499961853
scalar IntersectionExampleScenario.node[52].veinsmobility 	totalDistance 	551.43393707275
scalar IntersectionExampleScenario.node[52].veinsmobility 	totalCO2Emission 	120.91989472968
scalar IntersectionExampleScenario.node[29].appl 	VehicleRemoved 	0
scalar IntersectionExampleScenario.node[29].appl 	ArrivedAtDest 	1
scalar IntersectionExampleScenario.node[29].appl 	IntersectionEnterTime 	133.5
scalar IntersectionExampleScenario.node[29].appl 	IntersectionExitTime 	246.36072838743
scalar IntersectionExampleScenario.node[29].appl 	NumberOfCollisions 	0
scalar IntersectionExampleScenario.node[29].nic.phy80211p 	busyTime 	0
scalar IntersectionExampleScenario.node[29].nic.mac1609_4 	ReceivedUnicastPackets 	0
scalar IntersectionExampleScenario.node[29].nic.mac1609_4 	ReceivedBroadcasts 	0
scalar IntersectionExampleScenario.node[29].nic.mac1609_4 	SentPackets 	0
scalar IntersectionExampleScenario.node[29].nic.mac1609_4 	SNIRLostPackets 	0
scalar IntersectionExampleScenario.node[29].nic.mac1609_4 	RXTXLostPackets 	0
scalar IntersectionExampleScenario.node[29].nic.mac1609_4 	TotalLostPackets 	0
scalar IntersectionExampleScenario.node[29].nic.mac1609_4 	DroppedPacketsInMac 	0
scalar IntersectionExampleScenario.node[29].nic.mac1609_4 	TooLittleTime 	0
scalar IntersectionExampleScenario.node[29].nic.mac1609_4 	TimesIntoBackoff 	0
scalar IntersectionExampleScenario.node[29].nic.mac1609_4 	SlotsBackoff 	0
scalar IntersectionExampleScenario.node[29].nic.mac1609_4 	NumInternalContention 	0
scalar IntersectionExampleScenario.node[29].nic.mac1609_4 	totalBusyTime 	0
scalar IntersectionExampleScenario.node[29].veinsmobility 	startTime 	133.5
scalar IntersectionExampleScenario.node[29].veinsmobility 	totalTime 	128.75
scalar IntersectionExampleScenario.node[29].veinsmobility 	stopTime 	262.5
scalar IntersectionExampleScenario.node[29].veinsmobility 	minSpeed 	0
scalar IntersectionExampleScenario.node[29].veinsmobility 	maxSpeed 	15.64999961853
scalar IntersectionExampleScenario.node[29].veinsmobility 	totalDistance 	549.9621745502
scalar IntersectionExampleScenario.node[29].veinsmobility 	totalCO2Emission 	219.26398815278
scalar IntersectionExampleScenario.node[34].appl 	VehicleRemoved 	0
scalar IntersectionExampleScenario.node[34].appl 	ArrivedAtDest 	1
scalar IntersectionExampleScenario.node[34].appl 	IntersectionEnterTime 	148
scalar IntersectionExampleScenario.node[34].appl 	IntersectionExitTime 	247.26717165654
scalar IntersectionExampleScenario.node[34].appl 	NumberOfCollisions 	0
scalar IntersectionExampleScenario.node[34].nic.phy80211p 	busyTime 	0
scalar IntersectionExampleScenario.node[34].nic.mac1609_4 	ReceivedUnicastPackets 	0
scalar IntersectionExampleScenario.node[34].nic.mac1609_4 	ReceivedBroadcasts 	0
scalar IntersectionExampleScenario.node[34].nic.mac1609_4 	SentPackets 	0
scalar IntersectionExampleScenario.node[34].nic.mac1609_4 	SNIRLostPackets 	0
scalar IntersectionExampleScenario.node[34].nic.mac1609_4 	RXTXLostPackets 	0
scalar IntersectionExampleScenario.node[34].nic.mac1609_4 	TotalLostPackets 	0
scalar IntersectionExampleScenario.node[34].nic.mac1609_4 	DroppedPacketsInMac 	0
scalar IntersectionExampleScenario.node[34].nic.mac1609_4 	TooLittleTime 	0
scalar IntersectionExampleScenario.node[34].nic.mac1609_4 	TimesIntoBackoff 	0
scalar IntersectionExampleScenario.node[34].nic.mac1609_4 	SlotsBackoff 	0
scalar IntersectionExampleScenario.node[34].nic.mac1609_4 	NumInternalContention 	0
scalar IntersectionExampleScenario.node[34].nic.mac1609_4 	totalBusyTime 	0
scalar IntersectionExampleScenario.node[34].veinsmobility 	startTime 	148
scalar IntersectionExampleScenario.node[34].veinsmobility 	totalTime 	115.75
scalar IntersectionExampleScenario.node[34].veinsmobility 	stopTime 	264
scalar IntersectionExampleScenario.node[34].veinsmobility 	minSpeed 	0
scalar IntersectionExampleScenario.node[34].veinsmobility 	maxSpeed 	15.02499961853
scalar IntersectionExampleScenario.node[34].veinsmobility 	totalDistance 	551.51871490479
scalar IntersectionExampleScenario.node[34].veinsmobility 	totalCO2Emission 	200.5827432146
scalar IntersectionExampleScenario.node[35].appl 	VehicleRemoved 	0
scalar IntersectionExampleScenario.node[35].appl 	ArrivedAtDest 	1
scalar IntersectionExampleScenario.node[35].appl 	IntersectionEnterTime 	159.5
scalar IntersectionExampleScenario.node[35].appl 	IntersectionExitTime 	249.5210441165
scalar IntersectionExampleScenario.node[35].appl 	NumberOfCollisions 	0
scalar IntersectionExampleScenario.node[35].nic.phy80211p 	busyTime 	0
scalar IntersectionExampleScenario.node[35].nic.mac1609_4 	ReceivedUnicastPackets 	0
scalar IntersectionExampleScenario.node[35].nic.mac1609_4 	ReceivedBroadcasts 	0
scalar IntersectionExampleScenario.node[35].nic.mac1609_4 	SentPackets 	0
scalar IntersectionExampleScenario.node[35].nic.mac1609_4 	SNIRLostPackets 	0
scalar IntersectionExampleScenario.node[35].nic.mac1609_4 	RXTXLostPackets 	0
scalar IntersectionExampleScenario.node[35].nic.mac1609_4 	TotalLostPackets 	0
scalar IntersectionExampleScenario.node[35].nic.mac1609_4 	DroppedPacketsInMac 	0
scalar IntersectionExampleScenario.node[35].nic.mac1609_4 	TooLittleTime 	0
scalar IntersectionExampleScenario.node[35].nic.mac1609_4 	TimesIntoBackoff 	0
scalar IntersectionExampleScenario.node[35].nic.mac1609_4 	SlotsBackoff 	0
scalar IntersectionExampleScenario.node[35].nic.mac1609_4 	NumInternalContention 	0
[...]
scalar IntersectionExampleScenario.node[529].veinsmobility 	totalCO2Emission 	56.329007318238
scalar IntersectionExampleScenario.node[530].appl 	VehicleRemoved 	0
scalar IntersectionExampleScenario.node[530].appl 	ArrivedAtDest 	0
scalar IntersectionExampleScenario.node[530].appl 	IntersectionEnterTime 	1784.75
scalar IntersectionExampleScenario.node[530].appl 	IntersectionExitTime 	-1
scalar IntersectionExampleScenario.node[530].appl 	NumberOfCollisions 	0
scalar IntersectionExampleScenario.node[530].nic.phy80211p 	busyTime 	0
scalar IntersectionExampleScenario.node[530].nic.mac1609_4 	ReceivedUnicastPackets 	0
scalar IntersectionExampleScenario.node[530].nic.mac1609_4 	ReceivedBroadcasts 	0
scalar IntersectionExampleScenario.node[530].nic.mac1609_4 	SentPackets 	0
scalar IntersectionExampleScenario.node[530].nic.mac1609_4 	SNIRLostPackets 	0
scalar IntersectionExampleScenario.node[530].nic.mac1609_4 	RXTXLostPackets 	0
scalar IntersectionExampleScenario.node[530].nic.mac1609_4 	TotalLostPackets 	0
scalar IntersectionExampleScenario.node[530].nic.mac1609_4 	DroppedPacketsInMac 	0
scalar IntersectionExampleScenario.node[530].nic.mac1609_4 	TooLittleTime 	0
scalar IntersectionExampleScenario.node[530].nic.mac1609_4 	TimesIntoBackoff 	0
scalar IntersectionExampleScenario.node[530].nic.mac1609_4 	SlotsBackoff 	0
scalar IntersectionExampleScenario.node[530].nic.mac1609_4 	NumInternalContention 	0
scalar IntersectionExampleScenario.node[530].nic.mac1609_4 	totalBusyTime 	0
scalar IntersectionExampleScenario.node[530].veinsmobility 	startTime 	1784.75
scalar IntersectionExampleScenario.node[530].veinsmobility 	totalTime 	15.25
scalar IntersectionExampleScenario.node[530].veinsmobility 	stopTime 	1800
scalar IntersectionExampleScenario.node[530].veinsmobility 	minSpeed 	5.6500000953674
scalar IntersectionExampleScenario.node[530].veinsmobility 	maxSpeed 	15.02499961853
scalar IntersectionExampleScenario.node[530].veinsmobility 	totalDistance 	200.78479003906
scalar IntersectionExampleScenario.node[530].veinsmobility 	totalCO2Emission 	50.019334179859
scalar IntersectionExampleScenario.node[531].appl 	VehicleRemoved 	0
scalar IntersectionExampleScenario.node[531].appl 	ArrivedAtDest 	0
scalar IntersectionExampleScenario.node[531].appl 	IntersectionEnterTime 	1785.5
scalar IntersectionExampleScenario.node[531].appl 	IntersectionExitTime 	-1
scalar IntersectionExampleScenario.node[531].appl 	NumberOfCollisions 	0
scalar IntersectionExampleScenario.node[531].nic.phy80211p 	busyTime 	0
scalar IntersectionExampleScenario.node[531].nic.mac1609_4 	ReceivedUnicastPackets 	0
scalar IntersectionExampleScenario.node[531].nic.mac1609_4 	ReceivedBroadcasts 	0
scalar IntersectionExampleScenario.node[531].nic.mac1609_4 	SentPackets 	0
scalar IntersectionExampleScenario.node[531].nic.mac1609_4 	SNIRLostPackets 	0
scalar IntersectionExampleScenario.node[531].nic.mac1609_4 	RXTXLostPackets 	0
scalar IntersectionExampleScenario.node[531].nic.mac1609_4 	TotalLostPackets 	0
scalar IntersectionExampleScenario.node[531].nic.mac1609_4 	DroppedPacketsInMac 	0
scalar IntersectionExampleScenario.node[531].nic.mac1609_4 	TooLittleTime 	0
scalar IntersectionExampleScenario.node[531].nic.mac1609_4 	TimesIntoBackoff 	0
scalar IntersectionExampleScenario.node[531].nic.mac1609_4 	SlotsBackoff 	0
scalar IntersectionExampleScenario.node[531].nic.mac1609_4 	NumInternalContention 	0
scalar IntersectionExampleScenario.node[531].nic.mac1609_4 	totalBusyTime 	0
scalar IntersectionExampleScenario.node[531].veinsmobility 	startTime 	1785.5
scalar IntersectionExampleScenario.node[531].veinsmobility 	totalTime 	14.5
scalar IntersectionExampleScenario.node[531].veinsmobility 	stopTime 	1800
scalar IntersectionExampleScenario.node[531].veinsmobility 	minSpeed 	5.6500000953674
scalar IntersectionExampleScenario.node[531].veinsmobility 	maxSpeed 	15.707592964172
scalar IntersectionExampleScenario.node[531].veinsmobility 	totalDistance 	195.73050689697
scalar IntersectionExampleScenario.node[531].veinsmobility 	totalCO2Emission 	53.095402992285
scalar IntersectionExampleScenario.node[532].appl 	VehicleRemoved 	0
scalar IntersectionExampleScenario.node[532].appl 	ArrivedAtDest 	0
scalar IntersectionExampleScenario.node[532].appl 	IntersectionEnterTime 	1789
scalar IntersectionExampleScenario.node[532].appl 	IntersectionExitTime 	-1
scalar IntersectionExampleScenario.node[532].appl 	NumberOfCollisions 	0
scalar IntersectionExampleScenario.node[532].nic.phy80211p 	busyTime 	0
scalar IntersectionExampleScenario.node[532].nic.mac1609_4 	ReceivedUnicastPackets 	0
scalar IntersectionExampleScenario.node[532].nic.mac1609_4 	ReceivedBroadcasts 	0
scalar IntersectionExampleScenario.node[532].nic.mac1609_4 	SentPackets 	0
scalar IntersectionExampleScenario.node[532].nic.mac1609_4 	SNIRLostPackets 	0
scalar IntersectionExampleScenario.node[532].nic.mac1609_4 	RXTXLostPackets 	0
scalar IntersectionExampleScenario.node[532].nic.mac1609_4 	TotalLostPackets 	0
scalar IntersectionExampleScenario.node[532].nic.mac1609_4 	DroppedPacketsInMac 	0
scalar IntersectionExampleScenario.node[532].nic.mac1609_4 	TooLittleTime 	0
scalar IntersectionExampleScenario.node[532].nic.mac1609_4 	TimesIntoBackoff 	0
scalar IntersectionExampleScenario.node[532].nic.mac1609_4 	SlotsBackoff 	0
scalar IntersectionExampleScenario.node[532].nic.mac1609_4 	NumInternalContention 	0
scalar IntersectionExampleScenario.node[532].nic.mac1609_4 	totalBusyTime 	0
scalar IntersectionExampleScenario.node[532].veinsmobility 	startTime 	1789
scalar IntersectionExampleScenario.node[532].veinsmobility 	totalTime 	11
scalar IntersectionExampleScenario.node[532].veinsmobility 	stopTime 	1800
scalar IntersectionExampleScenario.node[532].veinsmobility 	minSpeed 	5.6500000953674
scalar IntersectionExampleScenario.node[532].veinsmobility 	maxSpeed 	15.978643417358
scalar IntersectionExampleScenario.node[532].veinsmobility 	totalDistance 	141.60826873779
scalar IntersectionExampleScenario.node[532].veinsmobility 	totalCO2Emission 	45.905397550939
scalar IntersectionExampleScenario.node[533].appl 	VehicleRemoved 	0
scalar IntersectionExampleScenario.node[533].appl 	ArrivedAtDest 	0
scalar IntersectionExampleScenario.node[533].appl 	IntersectionEnterTime 	1789.75
scalar IntersectionExampleScenario.node[533].appl 	IntersectionExitTime 	-1
scalar IntersectionExampleScenario.node[533].appl 	NumberOfCollisions 	0
scalar IntersectionExampleScenario.node[533].nic.phy80211p 	busyTime 	0
scalar IntersectionExampleScenario.node[533].nic.mac1609_4 	ReceivedUnicastPackets 	0
scalar IntersectionExampleScenario.node[533].nic.mac1609_4 	ReceivedBroadcasts 	0
scalar IntersectionExampleScenario.node[533].nic.mac1609_4 	SentPackets 	0
scalar IntersectionExampleScenario.node[533].nic.mac1609_4 	SNIRLostPackets 	0
scalar IntersectionExampleScenario.node[533].nic.mac1609_4 	RXTXLostPackets 	0
scalar IntersectionExampleScenario.node[533].nic.mac1609_4 	TotalLostPackets 	0
scalar IntersectionExampleScenario.node[533].nic.mac1609_4 	DroppedPacketsInMac 	0
scalar IntersectionExampleScenario.node[533].nic.mac1609_4 	TooLittleTime 	0
scalar IntersectionExampleScenario.node[533].nic.mac1609_4 	TimesIntoBackoff 	0
scalar IntersectionExampleScenario.node[533].nic.mac1609_4 	SlotsBackoff 	0
scalar IntersectionExampleScenario.node[533].nic.mac1609_4 	NumInternalContention 	0
scalar IntersectionExampleScenario.node[533].nic.mac1609_4 	totalBusyTime 	0
scalar IntersectionExampleScenario.node[533].veinsmobility 	startTime 	1789.75
scalar IntersectionExampleScenario.node[533].veinsmobility 	totalTime 	10.25
scalar IntersectionExampleScenario.node[533].veinsmobility 	stopTime 	1800
scalar IntersectionExampleScenario.node[533].veinsmobility 	minSpeed 	5.6500000953674
scalar IntersectionExampleScenario.node[533].veinsmobility 	maxSpeed 	16.331871032715
scalar IntersectionExampleScenario.node[533].veinsmobility 	totalDistance 	139.14886474609
scalar IntersectionExampleScenario.node[533].veinsmobility 	totalCO2Emission 	49.329020379865
scalar IntersectionExampleScenario.node[534].appl 	VehicleRemoved 	0
scalar IntersectionExampleScenario.node[534].appl 	ArrivedAtDest 	0
scalar IntersectionExampleScenario.node[534].appl 	IntersectionEnterTime 	1790
scalar IntersectionExampleScenario.node[534].appl 	IntersectionExitTime 	-1
scalar IntersectionExampleScenario.node[534].appl 	NumberOfCollisions 	0
scalar IntersectionExampleScenario.node[534].nic.phy80211p 	busyTime 	0
scalar IntersectionExampleScenario.node[534].nic.mac1609_4 	ReceivedUnicastPackets 	0
scalar IntersectionExampleScenario.node[534].nic.mac1609_4 	ReceivedBroadcasts 	0
scalar IntersectionExampleScenario.node[534].nic.mac1609_4 	SentPackets 	0
scalar IntersectionExampleScenario.node[534].nic.mac1609_4 	SNIRLostPackets 	0
scalar IntersectionExampleScenario.node[534].nic.mac1609_4 	RXTXLostPackets 	0
scalar IntersectionExampleScenario.node[534].nic.mac1609_4 	TotalLostPackets 	0
scalar IntersectionExampleScenario.node[534].nic.mac1609_4 	DroppedPacketsInMac 	0
scalar IntersectionExampleScenario.node[534].nic.mac1609_4 	TooLittleTime 	0
scalar IntersectionExampleScenario.node[534].nic.mac1609_4 	TimesIntoBackoff 	0
scalar IntersectionExampleScenario.node[534].nic.mac1609_4 	SlotsBackoff 	0
scalar IntersectionExampleScenario.node[534].nic.mac1609_4 	NumInternalContention 	0
scalar IntersectionExampleScenario.node[534].nic.mac1609_4 	totalBusyTime 	0
scalar IntersectionExampleScenario.node[534].veinsmobility 	startTime 	1790
scalar IntersectionExampleScenario.node[534].veinsmobility 	totalTime 	10
scalar IntersectionExampleScenario.node[534].veinsmobility 	stopTime 	1800
scalar IntersectionExampleScenario.node[534].veinsmobility 	minSpeed 	5.6500000953674
scalar IntersectionExampleScenario.node[534].veinsmobility 	maxSpeed 	15.870918273926
scalar IntersectionExampleScenario.node[534].veinsmobility 	totalDistance 	106.45410919189
scalar IntersectionExampleScenario.node[534].veinsmobility 	totalCO2Emission 	50.732126939579
scalar IntersectionExampleScenario.node[535].appl 	VehicleRemoved 	0
scalar IntersectionExampleScenario.node[535].appl 	ArrivedAtDest 	0
scalar IntersectionExampleScenario.node[535].appl 	IntersectionEnterTime 	1791.5
scalar IntersectionExampleScenario.node[535].appl 	IntersectionExitTime 	-1
scalar IntersectionExampleScenario.node[535].appl 	NumberOfCollisions 	0
scalar IntersectionExampleScenario.node[535].nic.phy80211p 	busyTime 	0
scalar IntersectionExampleScenario.node[535].nic.mac1609_4 	ReceivedUnicastPackets 	0
scalar IntersectionExampleScenario.node[535].nic.mac1609_4 	ReceivedBroadcasts 	0
scalar IntersectionExampleScenario.node[535].nic.mac1609_4 	SentPackets 	0
scalar IntersectionExampleScenario.node[535].nic.mac1609_4 	SNIRLostPackets 	0
scalar IntersectionExampleScenario.node[535].nic.mac1609_4 	RXTXLostPackets 	0
scalar IntersectionExampleScenario.node[535].nic.mac1609_4 	TotalLostPackets 	0
scalar IntersectionExampleScenario.node[535].nic.mac1609_4 	DroppedPacketsInMac 	0
scalar IntersectionExampleScenario.node[535].nic.mac1609_4 	TooLittleTime 	0
scalar IntersectionExampleScenario.node[535].nic.mac1609_4 	TimesIntoBackoff 	0
scalar IntersectionExampleScenario.node[535].nic.mac1609_4 	SlotsBackoff 	0
scalar IntersectionExampleScenario.node[535].nic.mac1609_4 	NumInternalContention 	0
scalar IntersectionExampleScenario.node[535].nic.mac1609_4 	totalBusyTime 	0
scalar IntersectionExampleScenario.node[535].veinsmobility 	startTime 	1791.5
scalar IntersectionExampleScenario.node[535].veinsmobility 	totalTime 	8.5
scalar IntersectionExampleScenario.node[535].veinsmobility 	stopTime 	1800
scalar IntersectionExampleScenario.node[535].veinsmobility 	minSpeed 	5.6500000953674
scalar IntersectionExampleScenario.node[535].veinsmobility 	maxSpeed 	15.167937278748
scalar IntersectionExampleScenario.node[535].veinsmobility 	totalDistance 	92.049957275391
scalar IntersectionExampleScenario.node[535].veinsmobility 	totalCO2Emission 	38.75800998526
scalar IntersectionExampleScenario.node[536].appl 	VehicleRemoved 	0
scalar IntersectionExampleScenario.node[536].appl 	ArrivedAtDest 	0
scalar IntersectionExampleScenario.node[536].appl 	IntersectionEnterTime 	1792
scalar IntersectionExampleScenario.node[536].appl 	IntersectionExitTime 	-1
scalar IntersectionExampleScenario.node[536].appl 	NumberOfCollisions 	0
scalar IntersectionExampleScenario.node[536].nic.phy80211p 	busyTime 	0
scalar IntersectionExampleScenario.node[536].nic.mac1609_4 	ReceivedUnicastPackets 	0
scalar IntersectionExampleScenario.node[536].nic.mac1609_4 	ReceivedBroadcasts 	0
scalar IntersectionExampleScenario.node[536].nic.mac1609_4 	SentPackets 	0
scalar IntersectionExampleScenario.node[536].nic.mac1609_4 	SNIRLostPackets 	0
scalar IntersectionExampleScenario.node[536].nic.mac1609_4 	RXTXLostPackets 	0
scalar IntersectionExampleScenario.node[536].nic.mac1609_4 	TotalLostPackets 	0
scalar IntersectionExampleScenario.node[536].nic.mac1609_4 	DroppedPacketsInMac 	0
scalar IntersectionExampleScenario.node[536].nic.mac1609_4 	TooLittleTime 	0
scalar IntersectionExampleScenario.node[536].nic.mac1609_4 	TimesIntoBackoff 	0
scalar IntersectionExampleScenario.node[536].nic.mac1609_4 	SlotsBackoff 	0
scalar IntersectionExampleScenario.node[536].nic.mac1609_4 	NumInternalContention 	0
scalar IntersectionExampleScenario.node[536].nic.mac1609_4 	totalBusyTime 	0
scalar IntersectionExampleScenario.node[536].veinsmobility 	startTime 	1792
scalar IntersectionExampleScenario.node[536].veinsmobility 	totalTime 	8
scalar IntersectionExampleScenario.node[536].veinsmobility 	stopTime 	1800
scalar IntersectionExampleScenario.node[536].veinsmobility 	minSpeed 	5.6500000953674
scalar IntersectionExampleScenario.node[536].veinsmobility 	maxSpeed 	15.370455741882
scalar IntersectionExampleScenario.node[536].veinsmobility 	totalDistance 	98.618614196777
scalar IntersectionExampleScenario.node[536].veinsmobility 	totalCO2Emission 	39.016709053036
scalar IntersectionExampleScenario.node[537].appl 	VehicleRemoved 	0
scalar IntersectionExampleScenario.node[537].appl 	ArrivedAtDest 	0
scalar IntersectionExampleScenario.node[537].appl 	IntersectionEnterTime 	1792.25
scalar IntersectionExampleScenario.node[537].appl 	IntersectionExitTime 	-1
scalar IntersectionExampleScenario.node[537].appl 	NumberOfCollisions 	0
scalar IntersectionExampleScenario.node[537].nic.phy80211p 	busyTime 	0
scalar IntersectionExampleScenario.node[537].nic.mac1609_4 	ReceivedUnicastPackets 	0
scalar IntersectionExampleScenario.node[537].nic.mac1609_4 	ReceivedBroadcasts 	0
scalar IntersectionExampleScenario.node[537].nic.mac1609_4 	SentPackets 	0
scalar IntersectionExampleScenario.node[537].nic.mac1609_4 	SNIRLostPackets 	0
scalar IntersectionExampleScenario.node[537].nic.mac1609_4 	RXTXLostPackets 	0
scalar IntersectionExampleScenario.node[537].nic.mac1609_4 	TotalLostPackets 	0
scalar IntersectionExampleScenario.node[537].nic.mac1609_4 	DroppedPacketsInMac 	0
scalar IntersectionExampleScenario.node[537].nic.mac1609_4 	TooLittleTime 	0
scalar IntersectionExampleScenario.node[537].nic.mac1609_4 	TimesIntoBackoff 	0
scalar IntersectionExampleScenario.node[537].nic.mac1609_4 	SlotsBackoff 	0
scalar IntersectionExampleScenario.node[537].nic.mac1609_4 	NumInternalContention 	0
scalar IntersectionExampleScenario.node[537].nic.mac1609_4 	totalBusyTime 	0
scalar IntersectionExampleScenario.node[537].veinsmobility 	startTime 	1792.25
scalar IntersectionExampleScenario.node[537].veinsmobility 	totalTime 	7.75
scalar IntersectionExampleScenario.node[537].veinsmobility 	stopTime 	1800
scalar IntersectionExampleScenario.node[537].veinsmobility 	minSpeed 	5.6500000953674
scalar IntersectionExampleScenario.node[537].veinsmobility 	maxSpeed 	15.02499961853
scalar IntersectionExampleScenario.node[537].veinsmobility 	totalDistance 	96.3134765625
scalar IntersectionExampleScenario.node[537].veinsmobility 	totalCO2Emission 	38.533423775783
scalar IntersectionExampleScenario.node[538].appl 	VehicleRemoved 	0
scalar IntersectionExampleScenario.node[538].appl 	ArrivedAtDest 	0
scalar IntersectionExampleScenario.node[538].appl 	IntersectionEnterTime 	1794.75
scalar IntersectionExampleScenario.node[538].appl 	IntersectionExitTime 	-1
scalar IntersectionExampleScenario.node[538].appl 	NumberOfCollisions 	0
scalar IntersectionExampleScenario.node[538].nic.phy80211p 	busyTime 	0
scalar IntersectionExampleScenario.node[538].nic.mac1609_4 	ReceivedUnicastPackets 	0
scalar IntersectionExampleScenario.node[538].nic.mac1609_4 	ReceivedBroadcasts 	0
scalar IntersectionExampleScenario.node[538].nic.mac1609_4 	SentPackets 	0
scalar IntersectionExampleScenario.node[538].nic.mac1609_4 	SNIRLostPackets 	0
scalar IntersectionExampleScenario.node[538].nic.mac1609_4 	RXTXLostPackets 	0
scalar IntersectionExampleScenario.node[538].nic.mac1609_4 	TotalLostPackets 	0
scalar IntersectionExampleScenario.node[538].nic.mac1609_4 	DroppedPacketsInMac 	0
scalar IntersectionExampleScenario.node[538].nic.mac1609_4 	TooLittleTime 	0
scalar IntersectionExampleScenario.node[538].nic.mac1609_4 	TimesIntoBackoff 	0
scalar IntersectionExampleScenario.node[538].nic.mac1609_4 	SlotsBackoff 	0
scalar IntersectionExampleScenario.node[538].nic.mac1609_4 	NumInternalContention 	0
scalar IntersectionExampleScenario.node[538].nic.mac1609_4 	totalBusyTime 	0
scalar IntersectionExampleScenario.node[538].veinsmobility 	startTime 	1794.75
scalar IntersectionExampleScenario.node[538].veinsmobility 	totalTime 	5.25
scalar IntersectionExampleScenario.node[538].veinsmobility 	stopTime 	1800
scalar IntersectionExampleScenario.node[538].veinsmobility 	minSpeed 	5.6500000953674
scalar IntersectionExampleScenario.node[538].veinsmobility 	maxSpeed 	14.281219482422
scalar IntersectionExampleScenario.node[538].veinsmobility 	totalDistance 	57.487892150879
scalar IntersectionExampleScenario.node[538].veinsmobility 	totalCO2Emission 	30.457094051663
scalar IntersectionExampleScenario.node[539].appl 	VehicleRemoved 	0
scalar IntersectionExampleScenario.node[539].appl 	ArrivedAtDest 	0
scalar IntersectionExampleScenario.node[539].appl 	IntersectionEnterTime 	1798.5
scalar IntersectionExampleScenario.node[539].appl 	IntersectionExitTime 	-1
scalar IntersectionExampleScenario.node[539].appl 	NumberOfCollisions 	0
scalar IntersectionExampleScenario.node[539].nic.phy80211p 	busyTime 	0
scalar IntersectionExampleScenario.node[539].nic.mac1609_4 	ReceivedUnicastPackets 	0
scalar IntersectionExampleScenario.node[539].nic.mac1609_4 	ReceivedBroadcasts 	0
scalar IntersectionExampleScenario.node[539].nic.mac1609_4 	SentPackets 	0
scalar IntersectionExampleScenario.node[539].nic.mac1609_4 	SNIRLostPackets 	0
scalar IntersectionExampleScenario.node[539].nic.mac1609_4 	RXTXLostPackets 	0
scalar IntersectionExampleScenario.node[539].nic.mac1609_4 	TotalLostPackets 	0
scalar IntersectionExampleScenario.node[539].nic.mac1609_4 	DroppedPacketsInMac 	0
scalar IntersectionExampleScenario.node[539].nic.mac1609_4 	TooLittleTime 	0
scalar IntersectionExampleScenario.node[539].nic.mac1609_4 	TimesIntoBackoff 	0
scalar IntersectionExampleScenario.node[539].nic.mac1609_4 	SlotsBackoff 	0
scalar IntersectionExampleScenario.node[539].nic.mac1609_4 	NumInternalContention 	0
scalar IntersectionExampleScenario.node[539].nic.mac1609_4 	totalBusyTime 	0
scalar IntersectionExampleScenario.node[539].veinsmobility 	startTime 	1798.5
scalar IntersectionExampleScenario.node[539].veinsmobility 	totalTime 	1.5
scalar IntersectionExampleScenario.node[539].veinsmobility 	stopTime 	1800
scalar IntersectionExampleScenario.node[539].veinsmobility 	minSpeed 	5.6500000953674
scalar IntersectionExampleScenario.node[539].veinsmobility 	maxSpeed 	8.7749996185303
scalar IntersectionExampleScenario.node[539].veinsmobility 	totalDistance 	10.350036621094
scalar IntersectionExampleScenario.node[539].veinsmobility 	totalCO2Emission 	7.5597628883124
