version 2
run nodebug-40-20200606-02:34:46-22484
attr configname nodebug
attr datetime 20200606-02:34:46
attr experiment nodebug
attr inifile omnetpp.ini
attr iterationvars ""
attr iterationvars2 $repetition=40
attr measurement ""
attr network "\"org.car2x.veins.modules.application.ExtTraCIScenarioManagerLaunchd.IntersectionExampleScenario\""
attr processid 22484
attr repetition 40
attr replication #40
attr resultdir results
attr runnumber 40
attr seedset 40
param **.coreDebug false
param **.debug false
param *.**.nic.mac1609_4.bitrate 18Mbps
param *.**.nic.mac1609_4.txPower 20mW
param *.**.nic.mac1609_4.useServiceChannel false
param *.**.nic.phy80211p.analogueModels "xmldoc(\"config.xml\")"
param *.**.nic.phy80211p.decider "xmldoc(\"config.xml\")"
param *.**.nic.phy80211p.sensitivity -89dBm
param *.**.nic.phy80211p.thermalNoise -110dBm
param *.**.nic.phy80211p.usePropagationDelay true
param *.**.nic.phy80211p.useThermalNoise true
param *.annotations.draw false
param *.connectionManager.alpha 2.0
param *.connectionManager.carrierFrequency "5.890e9 Hz"
param *.connectionManager.pMax 20mW
param *.connectionManager.sat -89dBm
param *.connectionManager.sendDirect true
param *.manager.autoShutdown true
param *.manager.host "\"localhost\""
param *.manager.launchConfig "xmldoc(\"paramics.launchd.xml\")"
param *.manager.margin 25
param *.manager.moduleDisplayString "\"\""
param *.manager.moduleName "\"node\""
param *.manager.moduleType "\"org.car2x.veins.nodes.Car\""
param *.manager.port 9999
param *.manager.updateInterval 250ms
param *.node[*0].veinsmobility.accidentCount 0
param *.node[*0].veinsmobility.accidentDuration 30s
param *.node[*0].veinsmobility.accidentStart 75s
param *.node[*].appl.LiderSelectZoneRadio 55.0
param *.node[*].appl.ShareDataZoneRadio 110.0
param *.node[*].appl.TiempoSemaforo 30.0
param *.node[*].appl.beaconInterval 1s
param *.node[*].appl.beaconPriority 3
param *.node[*].appl.dataOnSch false
param *.node[*].appl.dataPriority 2
param *.node[*].appl.debug false
param *.node[*].appl.headerLength "256 bit"
param *.node[*].appl.maxOffset 0.005s
param *.node[*].appl.sendBeacons false
param *.node[*].appl.sendData true
param *.node[*].applType "\"Dummy\""
param *.node[*].mobilityType "\"TraCIMobility\""
param *.node[*].mobilityType.debug true
param *.node[*].veinsmobility.x 0
param *.node[*].veinsmobility.y 0
param *.node[*].veinsmobility.z 1.895
param *.node[*].veinsmobilityType "\"org.car2x.veins.modules.mobility.traci.TraCIMobility\""
param *.node[*].veinsmobilityType.debug true
param *.playgroundSizeX 8500m
param *.playgroundSizeY 8500m
param *.playgroundSizeZ 50m
param *.world.use2D false
param *.world.useTorus false

scalar IntersectionExampleScenario.node[2].appl 	VehicleRemoved 	0
scalar IntersectionExampleScenario.node[2].appl 	ArrivedAtDest 	1
scalar IntersectionExampleScenario.node[2].appl 	IntersectionEnterTime 	2.75
scalar IntersectionExampleScenario.node[2].appl 	IntersectionExitTime 	34.325102011004
scalar IntersectionExampleScenario.node[2].appl 	NumberOfCollisions 	0
scalar IntersectionExampleScenario.node[2].nic.phy80211p 	busyTime 	0
scalar IntersectionExampleScenario.node[2].nic.mac1609_4 	ReceivedUnicastPackets 	0
scalar IntersectionExampleScenario.node[2].nic.mac1609_4 	ReceivedBroadcasts 	0
scalar IntersectionExampleScenario.node[2].nic.mac1609_4 	SentPackets 	0
scalar IntersectionExampleScenario.node[2].nic.mac1609_4 	SNIRLostPackets 	0
scalar IntersectionExampleScenario.node[2].nic.mac1609_4 	RXTXLostPackets 	0
scalar IntersectionExampleScenario.node[2].nic.mac1609_4 	TotalLostPackets 	0
scalar IntersectionExampleScenario.node[2].nic.mac1609_4 	DroppedPacketsInMac 	0
scalar IntersectionExampleScenario.node[2].nic.mac1609_4 	TooLittleTime 	0
scalar IntersectionExampleScenario.node[2].nic.mac1609_4 	TimesIntoBackoff 	0
scalar IntersectionExampleScenario.node[2].nic.mac1609_4 	SlotsBackoff 	0
scalar IntersectionExampleScenario.node[2].nic.mac1609_4 	NumInternalContention 	0
scalar IntersectionExampleScenario.node[2].nic.mac1609_4 	totalBusyTime 	0
scalar IntersectionExampleScenario.node[2].veinsmobility 	startTime 	2.75
scalar IntersectionExampleScenario.node[2].veinsmobility 	totalTime 	47.25
scalar IntersectionExampleScenario.node[2].veinsmobility 	stopTime 	50.25
scalar IntersectionExampleScenario.node[2].veinsmobility 	minSpeed 	0
scalar IntersectionExampleScenario.node[2].veinsmobility 	maxSpeed 	16
scalar IntersectionExampleScenario.node[2].veinsmobility 	totalDistance 	553.70684814453
scalar IntersectionExampleScenario.node[2].veinsmobility 	totalCO2Emission 	142.5240087032
scalar IntersectionExampleScenario.node[5].appl 	VehicleRemoved 	0
scalar IntersectionExampleScenario.node[5].appl 	ArrivedAtDest 	1
scalar IntersectionExampleScenario.node[5].appl 	IntersectionEnterTime 	7.25
scalar IntersectionExampleScenario.node[5].appl 	IntersectionExitTime 	35.119674888963
scalar IntersectionExampleScenario.node[5].appl 	NumberOfCollisions 	0
scalar IntersectionExampleScenario.node[5].nic.phy80211p 	busyTime 	0
scalar IntersectionExampleScenario.node[5].nic.mac1609_4 	ReceivedUnicastPackets 	0
scalar IntersectionExampleScenario.node[5].nic.mac1609_4 	ReceivedBroadcasts 	0
scalar IntersectionExampleScenario.node[5].nic.mac1609_4 	SentPackets 	0
scalar IntersectionExampleScenario.node[5].nic.mac1609_4 	SNIRLostPackets 	0
scalar IntersectionExampleScenario.node[5].nic.mac1609_4 	RXTXLostPackets 	0
scalar IntersectionExampleScenario.node[5].nic.mac1609_4 	TotalLostPackets 	0
scalar IntersectionExampleScenario.node[5].nic.mac1609_4 	DroppedPacketsInMac 	0
scalar IntersectionExampleScenario.node[5].nic.mac1609_4 	TooLittleTime 	0
scalar IntersectionExampleScenario.node[5].nic.mac1609_4 	TimesIntoBackoff 	0
scalar IntersectionExampleScenario.node[5].nic.mac1609_4 	SlotsBackoff 	0
scalar IntersectionExampleScenario.node[5].nic.mac1609_4 	NumInternalContention 	0
scalar IntersectionExampleScenario.node[5].nic.mac1609_4 	totalBusyTime 	0
scalar IntersectionExampleScenario.node[5].veinsmobility 	startTime 	7.25
scalar IntersectionExampleScenario.node[5].veinsmobility 	totalTime 	44.5
scalar IntersectionExampleScenario.node[5].veinsmobility 	stopTime 	52
scalar IntersectionExampleScenario.node[5].veinsmobility 	minSpeed 	0
scalar IntersectionExampleScenario.node[5].veinsmobility 	maxSpeed 	15.875
scalar IntersectionExampleScenario.node[5].veinsmobility 	totalDistance 	518.67138528277
scalar IntersectionExampleScenario.node[5].veinsmobility 	totalCO2Emission 	134.60843093994
scalar IntersectionExampleScenario.node[3].appl 	VehicleRemoved 	0
scalar IntersectionExampleScenario.node[3].appl 	ArrivedAtDest 	1
scalar IntersectionExampleScenario.node[3].appl 	IntersectionEnterTime 	4.25
scalar IntersectionExampleScenario.node[3].appl 	IntersectionExitTime 	37.363033402013
scalar IntersectionExampleScenario.node[3].appl 	NumberOfCollisions 	0
scalar IntersectionExampleScenario.node[3].nic.phy80211p 	busyTime 	0
scalar IntersectionExampleScenario.node[3].nic.mac1609_4 	ReceivedUnicastPackets 	0
scalar IntersectionExampleScenario.node[3].nic.mac1609_4 	ReceivedBroadcasts 	0
scalar IntersectionExampleScenario.node[3].nic.mac1609_4 	SentPackets 	0
scalar IntersectionExampleScenario.node[3].nic.mac1609_4 	SNIRLostPackets 	0
scalar IntersectionExampleScenario.node[3].nic.mac1609_4 	RXTXLostPackets 	0
scalar IntersectionExampleScenario.node[3].nic.mac1609_4 	TotalLostPackets 	0
scalar IntersectionExampleScenario.node[3].nic.mac1609_4 	DroppedPacketsInMac 	0
scalar IntersectionExampleScenario.node[3].nic.mac1609_4 	TooLittleTime 	0
scalar IntersectionExampleScenario.node[3].nic.mac1609_4 	TimesIntoBackoff 	0
scalar IntersectionExampleScenario.node[3].nic.mac1609_4 	SlotsBackoff 	0
scalar IntersectionExampleScenario.node[3].nic.mac1609_4 	NumInternalContention 	0
scalar IntersectionExampleScenario.node[3].nic.mac1609_4 	totalBusyTime 	0
scalar IntersectionExampleScenario.node[3].veinsmobility 	startTime 	4.25
scalar IntersectionExampleScenario.node[3].veinsmobility 	totalTime 	49.25
scalar IntersectionExampleScenario.node[3].veinsmobility 	stopTime 	53.75
scalar IntersectionExampleScenario.node[3].veinsmobility 	minSpeed 	2.1024498939514
scalar IntersectionExampleScenario.node[3].veinsmobility 	maxSpeed 	15.5
scalar IntersectionExampleScenario.node[3].veinsmobility 	totalDistance 	573.59800720215
scalar IntersectionExampleScenario.node[3].veinsmobility 	totalCO2Emission 	151.42495992038
scalar IntersectionExampleScenario.node[4].appl 	VehicleRemoved 	0
scalar IntersectionExampleScenario.node[4].appl 	ArrivedAtDest 	1
scalar IntersectionExampleScenario.node[4].appl 	IntersectionEnterTime 	5.25
scalar IntersectionExampleScenario.node[4].appl 	IntersectionExitTime 	39.77528102856
scalar IntersectionExampleScenario.node[4].appl 	NumberOfCollisions 	0
scalar IntersectionExampleScenario.node[4].nic.phy80211p 	busyTime 	0
scalar IntersectionExampleScenario.node[4].nic.mac1609_4 	ReceivedUnicastPackets 	0
scalar IntersectionExampleScenario.node[4].nic.mac1609_4 	ReceivedBroadcasts 	0
scalar IntersectionExampleScenario.node[4].nic.mac1609_4 	SentPackets 	0
scalar IntersectionExampleScenario.node[4].nic.mac1609_4 	SNIRLostPackets 	0
scalar IntersectionExampleScenario.node[4].nic.mac1609_4 	RXTXLostPackets 	0
scalar IntersectionExampleScenario.node[4].nic.mac1609_4 	TotalLostPackets 	0
scalar IntersectionExampleScenario.node[4].nic.mac1609_4 	DroppedPacketsInMac 	0
scalar IntersectionExampleScenario.node[4].nic.mac1609_4 	TooLittleTime 	0
scalar IntersectionExampleScenario.node[4].nic.mac1609_4 	TimesIntoBackoff 	0
scalar IntersectionExampleScenario.node[4].nic.mac1609_4 	SlotsBackoff 	0
scalar IntersectionExampleScenario.node[4].nic.mac1609_4 	NumInternalContention 	0
scalar IntersectionExampleScenario.node[4].nic.mac1609_4 	totalBusyTime 	0
scalar IntersectionExampleScenario.node[4].veinsmobility 	startTime 	5.25
scalar IntersectionExampleScenario.node[4].veinsmobility 	totalTime 	51.5
scalar IntersectionExampleScenario.node[4].veinsmobility 	stopTime 	57
scalar IntersectionExampleScenario.node[4].veinsmobility 	minSpeed 	3.0004527568817
scalar IntersectionExampleScenario.node[4].veinsmobility 	maxSpeed 	14.531135559082
scalar IntersectionExampleScenario.node[4].veinsmobility 	totalDistance 	584.08459472656
scalar IntersectionExampleScenario.node[4].veinsmobility 	totalCO2Emission 	137.08545884547
scalar IntersectionExampleScenario.node[10].appl 	VehicleRemoved 	0
scalar IntersectionExampleScenario.node[10].appl 	ArrivedAtDest 	1
scalar IntersectionExampleScenario.node[10].appl 	IntersectionEnterTime 	36.25
scalar IntersectionExampleScenario.node[10].appl 	IntersectionExitTime 	59.600936292351
scalar IntersectionExampleScenario.node[10].appl 	NumberOfCollisions 	0
scalar IntersectionExampleScenario.node[10].nic.phy80211p 	busyTime 	0
scalar IntersectionExampleScenario.node[10].nic.mac1609_4 	ReceivedUnicastPackets 	0
scalar IntersectionExampleScenario.node[10].nic.mac1609_4 	ReceivedBroadcasts 	0
scalar IntersectionExampleScenario.node[10].nic.mac1609_4 	SentPackets 	0
scalar IntersectionExampleScenario.node[10].nic.mac1609_4 	SNIRLostPackets 	0
scalar IntersectionExampleScenario.node[10].nic.mac1609_4 	RXTXLostPackets 	0
scalar IntersectionExampleScenario.node[10].nic.mac1609_4 	TotalLostPackets 	0
scalar IntersectionExampleScenario.node[10].nic.mac1609_4 	DroppedPacketsInMac 	0
scalar IntersectionExampleScenario.node[10].nic.mac1609_4 	TooLittleTime 	0
scalar IntersectionExampleScenario.node[10].nic.mac1609_4 	TimesIntoBackoff 	0
scalar IntersectionExampleScenario.node[10].nic.mac1609_4 	SlotsBackoff 	0
scalar IntersectionExampleScenario.node[10].nic.mac1609_4 	NumInternalContention 	0
scalar IntersectionExampleScenario.node[10].nic.mac1609_4 	totalBusyTime 	0
scalar IntersectionExampleScenario.node[10].veinsmobility 	startTime 	36.25
scalar IntersectionExampleScenario.node[10].veinsmobility 	totalTime 	39.5
scalar IntersectionExampleScenario.node[10].veinsmobility 	stopTime 	76
scalar IntersectionExampleScenario.node[10].veinsmobility 	minSpeed 	5.6500000953674
scalar IntersectionExampleScenario.node[10].veinsmobility 	maxSpeed 	15.64999961853
scalar IntersectionExampleScenario.node[10].veinsmobility 	totalDistance 	549.74302701368
scalar IntersectionExampleScenario.node[10].veinsmobility 	totalCO2Emission 	122.48462072709
scalar IntersectionExampleScenario.node[12].appl 	VehicleRemoved 	0
scalar IntersectionExampleScenario.node[12].appl 	ArrivedAtDest 	1
scalar IntersectionExampleScenario.node[12].appl 	IntersectionEnterTime 	37
scalar IntersectionExampleScenario.node[12].appl 	IntersectionExitTime 	62.038902289845
scalar IntersectionExampleScenario.node[12].appl 	NumberOfCollisions 	0
scalar IntersectionExampleScenario.node[12].nic.phy80211p 	busyTime 	0
scalar IntersectionExampleScenario.node[12].nic.mac1609_4 	ReceivedUnicastPackets 	0
scalar IntersectionExampleScenario.node[12].nic.mac1609_4 	ReceivedBroadcasts 	0
scalar IntersectionExampleScenario.node[12].nic.mac1609_4 	SentPackets 	0
scalar IntersectionExampleScenario.node[12].nic.mac1609_4 	SNIRLostPackets 	0
scalar IntersectionExampleScenario.node[12].nic.mac1609_4 	RXTXLostPackets 	0
scalar IntersectionExampleScenario.node[12].nic.mac1609_4 	TotalLostPackets 	0
scalar IntersectionExampleScenario.node[12].nic.mac1609_4 	DroppedPacketsInMac 	0
scalar IntersectionExampleScenario.node[12].nic.mac1609_4 	TooLittleTime 	0
scalar IntersectionExampleScenario.node[12].nic.mac1609_4 	TimesIntoBackoff 	0
scalar IntersectionExampleScenario.node[12].nic.mac1609_4 	SlotsBackoff 	0
scalar IntersectionExampleScenario.node[12].nic.mac1609_4 	NumInternalContention 	0
scalar IntersectionExampleScenario.node[12].nic.mac1609_4 	totalBusyTime 	0
scalar IntersectionExampleScenario.node[12].veinsmobility 	startTime 	37
scalar IntersectionExampleScenario.node[12].veinsmobility 	totalTime 	41
scalar IntersectionExampleScenario.node[12].veinsmobility 	stopTime 	78.25
scalar IntersectionExampleScenario.node[12].veinsmobility 	minSpeed 	5.6500000953674
scalar IntersectionExampleScenario.node[12].veinsmobility 	maxSpeed 	15.975706100464
scalar IntersectionExampleScenario.node[12].veinsmobility 	totalDistance 	573.90944192324
scalar IntersectionExampleScenario.node[12].veinsmobility 	totalCO2Emission 	128.61191480021
scalar IntersectionExampleScenario.node[0].appl 	VehicleRemoved 	0
scalar IntersectionExampleScenario.node[0].appl 	ArrivedAtDest 	1
scalar IntersectionExampleScenario.node[0].appl 	IntersectionEnterTime 	0.25
scalar IntersectionExampleScenario.node[0].appl 	IntersectionExitTime 	63.535913148487
scalar IntersectionExampleScenario.node[0].appl 	NumberOfCollisions 	0
scalar IntersectionExampleScenario.node[0].nic.phy80211p 	busyTime 	0
scalar IntersectionExampleScenario.node[0].nic.mac1609_4 	ReceivedUnicastPackets 	0
scalar IntersectionExampleScenario.node[0].nic.mac1609_4 	ReceivedBroadcasts 	0
scalar IntersectionExampleScenario.node[0].nic.mac1609_4 	SentPackets 	0
scalar IntersectionExampleScenario.node[0].nic.mac1609_4 	SNIRLostPackets 	0
scalar IntersectionExampleScenario.node[0].nic.mac1609_4 	RXTXLostPackets 	0
scalar IntersectionExampleScenario.node[0].nic.mac1609_4 	TotalLostPackets 	0
scalar IntersectionExampleScenario.node[0].nic.mac1609_4 	DroppedPacketsInMac 	0
scalar IntersectionExampleScenario.node[0].nic.mac1609_4 	TooLittleTime 	0
scalar IntersectionExampleScenario.node[0].nic.mac1609_4 	TimesIntoBackoff 	0
scalar IntersectionExampleScenario.node[0].nic.mac1609_4 	SlotsBackoff 	0
scalar IntersectionExampleScenario.node[0].nic.mac1609_4 	NumInternalContention 	0
scalar IntersectionExampleScenario.node[0].nic.mac1609_4 	totalBusyTime 	0
scalar IntersectionExampleScenario.node[0].veinsmobility 	startTime 	0.25
scalar IntersectionExampleScenario.node[0].veinsmobility 	totalTime 	79.75
scalar IntersectionExampleScenario.node[0].veinsmobility 	stopTime 	80.25
scalar IntersectionExampleScenario.node[0].veinsmobility 	minSpeed 	0
scalar IntersectionExampleScenario.node[0].veinsmobility 	maxSpeed 	15.875
scalar IntersectionExampleScenario.node[0].veinsmobility 	totalDistance 	545.84709836394
scalar IntersectionExampleScenario.node[0].veinsmobility 	totalCO2Emission 	174.05598147963
scalar IntersectionExampleScenario.node[1].appl 	VehicleRemoved 	0
scalar IntersectionExampleScenario.node[1].appl 	ArrivedAtDest 	1
scalar IntersectionExampleScenario.node[1].appl 	IntersectionEnterTime 	1.25
scalar IntersectionExampleScenario.node[1].appl 	IntersectionExitTime 	65.327976526431
scalar IntersectionExampleScenario.node[1].appl 	NumberOfCollisions 	0
scalar IntersectionExampleScenario.node[1].nic.phy80211p 	busyTime 	0
scalar IntersectionExampleScenario.node[1].nic.mac1609_4 	ReceivedUnicastPackets 	0
scalar IntersectionExampleScenario.node[1].nic.mac1609_4 	ReceivedBroadcasts 	0
scalar IntersectionExampleScenario.node[1].nic.mac1609_4 	SentPackets 	0
scalar IntersectionExampleScenario.node[1].nic.mac1609_4 	SNIRLostPackets 	0
scalar IntersectionExampleScenario.node[1].nic.mac1609_4 	RXTXLostPackets 	0
scalar IntersectionExampleScenario.node[1].nic.mac1609_4 	TotalLostPackets 	0
scalar IntersectionExampleScenario.node[1].nic.mac1609_4 	DroppedPacketsInMac 	0
scalar IntersectionExampleScenario.node[1].nic.mac1609_4 	TooLittleTime 	0
scalar IntersectionExampleScenario.node[1].nic.mac1609_4 	TimesIntoBackoff 	0
scalar IntersectionExampleScenario.node[1].nic.mac1609_4 	SlotsBackoff 	0
scalar IntersectionExampleScenario.node[1].nic.mac1609_4 	NumInternalContention 	0
scalar IntersectionExampleScenario.node[1].nic.mac1609_4 	totalBusyTime 	0
scalar IntersectionExampleScenario.node[1].veinsmobility 	startTime 	1.25
scalar IntersectionExampleScenario.node[1].veinsmobility 	totalTime 	80.25
scalar IntersectionExampleScenario.node[1].veinsmobility 	stopTime 	81.75
scalar IntersectionExampleScenario.node[1].veinsmobility 	minSpeed 	0
scalar IntersectionExampleScenario.node[1].veinsmobility 	maxSpeed 	15.64999961853
scalar IntersectionExampleScenario.node[1].veinsmobility 	totalDistance 	572.72951969649
scalar IntersectionExampleScenario.node[1].veinsmobility 	totalCO2Emission 	175.42555621242
scalar IntersectionExampleScenario.node[8].appl 	VehicleRemoved 	0
scalar IntersectionExampleScenario.node[8].appl 	ArrivedAtDest 	1
scalar IntersectionExampleScenario.node[8].appl 	IntersectionEnterTime 	28.25
scalar IntersectionExampleScenario.node[8].appl 	IntersectionExitTime 	67.768123793387
scalar IntersectionExampleScenario.node[8].appl 	NumberOfCollisions 	0
scalar IntersectionExampleScenario.node[8].nic.phy80211p 	busyTime 	0
scalar IntersectionExampleScenario.node[8].nic.mac1609_4 	ReceivedUnicastPackets 	0
scalar IntersectionExampleScenario.node[8].nic.mac1609_4 	ReceivedBroadcasts 	0
scalar IntersectionExampleScenario.node[8].nic.mac1609_4 	SentPackets 	0
scalar IntersectionExampleScenario.node[8].nic.mac1609_4 	SNIRLostPackets 	0
scalar IntersectionExampleScenario.node[8].nic.mac1609_4 	RXTXLostPackets 	0
scalar IntersectionExampleScenario.node[8].nic.mac1609_4 	TotalLostPackets 	0
scalar IntersectionExampleScenario.node[8].nic.mac1609_4 	DroppedPacketsInMac 	0
scalar IntersectionExampleScenario.node[8].nic.mac1609_4 	TooLittleTime 	0
scalar IntersectionExampleScenario.node[8].nic.mac1609_4 	TimesIntoBackoff 	0
scalar IntersectionExampleScenario.node[8].nic.mac1609_4 	SlotsBackoff 	0
scalar IntersectionExampleScenario.node[8].nic.mac1609_4 	NumInternalContention 	0
scalar IntersectionExampleScenario.node[8].nic.mac1609_4 	totalBusyTime 	0
scalar IntersectionExampleScenario.node[8].veinsmobility 	startTime 	28.25
scalar IntersectionExampleScenario.node[8].veinsmobility 	totalTime 	56
scalar IntersectionExampleScenario.node[8].veinsmobility 	stopTime 	84.5
scalar IntersectionExampleScenario.node[8].veinsmobility 	minSpeed 	0
scalar IntersectionExampleScenario.node[8].veinsmobility 	maxSpeed 	15.375
scalar IntersectionExampleScenario.node[8].veinsmobility 	totalDistance 	549.65942324167
scalar IntersectionExampleScenario.node[8].veinsmobility 	totalCO2Emission 	142.82646044355
scalar IntersectionExampleScenario.node[9].appl 	VehicleRemoved 	0
scalar IntersectionExampleScenario.node[9].appl 	ArrivedAtDest 	1
scalar IntersectionExampleScenario.node[9].appl 	IntersectionEnterTime 	30.5
scalar IntersectionExampleScenario.node[9].appl 	IntersectionExitTime 	70.280004775705
scalar IntersectionExampleScenario.node[9].appl 	NumberOfCollisions 	0
scalar IntersectionExampleScenario.node[9].nic.phy80211p 	busyTime 	0
scalar IntersectionExampleScenario.node[9].nic.mac1609_4 	ReceivedUnicastPackets 	0
scalar IntersectionExampleScenario.node[9].nic.mac1609_4 	ReceivedBroadcasts 	0
scalar IntersectionExampleScenario.node[9].nic.mac1609_4 	SentPackets 	0
scalar IntersectionExampleScenario.node[9].nic.mac1609_4 	SNIRLostPackets 	0
scalar IntersectionExampleScenario.node[9].nic.mac1609_4 	RXTXLostPackets 	0
scalar IntersectionExampleScenario.node[9].nic.mac1609_4 	TotalLostPackets 	0
scalar IntersectionExampleScenario.node[9].nic.mac1609_4 	DroppedPacketsInMac 	0
scalar IntersectionExampleScenario.node[9].nic.mac1609_4 	TooLittleTime 	0
scalar IntersectionExampleScenario.node[9].nic.mac1609_4 	TimesIntoBackoff 	0
scalar IntersectionExampleScenario.node[9].nic.mac1609_4 	SlotsBackoff 	0
scalar IntersectionExampleScenario.node[9].nic.mac1609_4 	NumInternalContention 	0
scalar IntersectionExampleScenario.node[9].nic.mac1609_4 	totalBusyTime 	0
scalar IntersectionExampleScenario.node[9].veinsmobility 	startTime 	30.5
scalar IntersectionExampleScenario.node[9].veinsmobility 	totalTime 	56.5
scalar IntersectionExampleScenario.node[9].veinsmobility 	stopTime 	87.25
scalar IntersectionExampleScenario.node[9].veinsmobility 	minSpeed 	0
scalar IntersectionExampleScenario.node[9].veinsmobility 	maxSpeed 	15.02499961853
scalar IntersectionExampleScenario.node[9].veinsmobility 	totalDistance 	570.23004150391
scalar IntersectionExampleScenario.node[9].veinsmobility 	totalCO2Emission 	143.32633008145
scalar IntersectionExampleScenario.node[11].appl 	VehicleRemoved 	0
scalar IntersectionExampleScenario.node[11].appl 	ArrivedAtDest 	1
scalar IntersectionExampleScenario.node[11].appl 	IntersectionEnterTime 	36.5
scalar IntersectionExampleScenario.node[11].appl 	IntersectionExitTime 	72.500049453229
scalar IntersectionExampleScenario.node[11].appl 	NumberOfCollisions 	0
scalar IntersectionExampleScenario.node[11].nic.phy80211p 	busyTime 	0
scalar IntersectionExampleScenario.node[11].nic.mac1609_4 	ReceivedUnicastPackets 	0
scalar IntersectionExampleScenario.node[11].nic.mac1609_4 	ReceivedBroadcasts 	0
scalar IntersectionExampleScenario.node[11].nic.mac1609_4 	SentPackets 	0
scalar IntersectionExampleScenario.node[11].nic.mac1609_4 	SNIRLostPackets 	0
scalar IntersectionExampleScenario.node[11].nic.mac1609_4 	RXTXLostPackets 	0
scalar IntersectionExampleScenario.node[11].nic.mac1609_4 	TotalLostPackets 	0
scalar IntersectionExampleScenario.node[11].nic.mac1609_4 	DroppedPacketsInMac 	0
scalar IntersectionExampleScenario.node[11].nic.mac1609_4 	TooLittleTime 	0
scalar IntersectionExampleScenario.node[11].nic.mac1609_4 	TimesIntoBackoff 	0
scalar IntersectionExampleScenario.node[11].nic.mac1609_4 	SlotsBackoff 	0
scalar IntersectionExampleScenario.node[11].nic.mac1609_4 	NumInternalContention 	0
scalar IntersectionExampleScenario.node[11].nic.mac1609_4 	totalBusyTime 	0
scalar IntersectionExampleScenario.node[11].veinsmobility 	startTime 	36.5
scalar IntersectionExampleScenario.node[11].veinsmobility 	totalTime 	52.5
scalar IntersectionExampleScenario.node[11].veinsmobility 	stopTime 	89.25
scalar IntersectionExampleScenario.node[11].veinsmobility 	minSpeed 	2.617324590683
scalar IntersectionExampleScenario.node[11].veinsmobility 	maxSpeed 	15.02499961853
scalar IntersectionExampleScenario.node[11].veinsmobility 	totalDistance 	552.46189880371
scalar IntersectionExampleScenario.node[11].veinsmobility 	totalCO2Emission 	135.89996046342
scalar IntersectionExampleScenario.node[14].appl 	VehicleRemoved 	0
scalar IntersectionExampleScenario.node[14].appl 	ArrivedAtDest 	1
scalar IntersectionExampleScenario.node[14].appl 	IntersectionEnterTime 	46.75
scalar IntersectionExampleScenario.node[14].appl 	IntersectionExitTime 	74.599543028366
scalar IntersectionExampleScenario.node[14].appl 	NumberOfCollisions 	0
scalar IntersectionExampleScenario.node[14].nic.phy80211p 	busyTime 	0
scalar IntersectionExampleScenario.node[14].nic.mac1609_4 	ReceivedUnicastPackets 	0
scalar IntersectionExampleScenario.node[14].nic.mac1609_4 	ReceivedBroadcasts 	0
scalar IntersectionExampleScenario.node[14].nic.mac1609_4 	SentPackets 	0
scalar IntersectionExampleScenario.node[14].nic.mac1609_4 	SNIRLostPackets 	0
scalar IntersectionExampleScenario.node[14].nic.mac1609_4 	RXTXLostPackets 	0
scalar IntersectionExampleScenario.node[14].nic.mac1609_4 	TotalLostPackets 	0
scalar IntersectionExampleScenario.node[14].nic.mac1609_4 	DroppedPacketsInMac 	0
scalar IntersectionExampleScenario.node[14].nic.mac1609_4 	TooLittleTime 	0
scalar IntersectionExampleScenario.node[14].nic.mac1609_4 	TimesIntoBackoff 	0
scalar IntersectionExampleScenario.node[14].nic.mac1609_4 	SlotsBackoff 	0
scalar IntersectionExampleScenario.node[14].nic.mac1609_4 	NumInternalContention 	0
scalar IntersectionExampleScenario.node[14].nic.mac1609_4 	totalBusyTime 	0
scalar IntersectionExampleScenario.node[14].veinsmobility 	startTime 	46.75
scalar IntersectionExampleScenario.node[14].veinsmobility 	totalTime 	43.75
scalar IntersectionExampleScenario.node[14].veinsmobility 	stopTime 	90.75
scalar IntersectionExampleScenario.node[14].veinsmobility 	minSpeed 	5.6500000953674
scalar IntersectionExampleScenario.node[14].veinsmobility 	maxSpeed 	15.64999961853
scalar IntersectionExampleScenario.node[14].veinsmobility 	totalDistance 	552.94528198242
scalar IntersectionExampleScenario.node[14].veinsmobility 	totalCO2Emission 	128.2580732624
scalar IntersectionExampleScenario.node[6].appl 	VehicleRemoved 	0
scalar IntersectionExampleScenario.node[6].appl 	ArrivedAtDest 	1
scalar IntersectionExampleScenario.node[6].appl 	IntersectionEnterTime 	17.25
scalar IntersectionExampleScenario.node[6].appl 	IntersectionExitTime 	94.354379336088
scalar IntersectionExampleScenario.node[6].appl 	NumberOfCollisions 	0
scalar IntersectionExampleScenario.node[6].nic.phy80211p 	busyTime 	0
scalar IntersectionExampleScenario.node[6].nic.mac1609_4 	ReceivedUnicastPackets 	0
scalar IntersectionExampleScenario.node[6].nic.mac1609_4 	ReceivedBroadcasts 	0
scalar IntersectionExampleScenario.node[6].nic.mac1609_4 	SentPackets 	0
scalar IntersectionExampleScenario.node[6].nic.mac1609_4 	SNIRLostPackets 	0
scalar IntersectionExampleScenario.node[6].nic.mac1609_4 	RXTXLostPackets 	0
scalar IntersectionExampleScenario.node[6].nic.mac1609_4 	TotalLostPackets 	0
scalar IntersectionExampleScenario.node[6].nic.mac1609_4 	DroppedPacketsInMac 	0
scalar IntersectionExampleScenario.node[6].nic.mac1609_4 	TooLittleTime 	0
scalar IntersectionExampleScenario.node[6].nic.mac1609_4 	TimesIntoBackoff 	0
scalar IntersectionExampleScenario.node[6].nic.mac1609_4 	SlotsBackoff 	0
scalar IntersectionExampleScenario.node[6].nic.mac1609_4 	NumInternalContention 	0
scalar IntersectionExampleScenario.node[6].nic.mac1609_4 	totalBusyTime 	0
scalar IntersectionExampleScenario.node[6].veinsmobility 	startTime 	17.25
scalar IntersectionExampleScenario.node[6].veinsmobility 	totalTime 	92
scalar IntersectionExampleScenario.node[6].veinsmobility 	stopTime 	109.5
scalar IntersectionExampleScenario.node[6].veinsmobility 	minSpeed 	0
scalar IntersectionExampleScenario.node[6].veinsmobility 	maxSpeed 	16.89999961853
scalar IntersectionExampleScenario.node[6].veinsmobility 	totalDistance 	551.87522125244
scalar IntersectionExampleScenario.node[6].veinsmobility 	totalCO2Emission 	192.74320528861
scalar IntersectionExampleScenario.node[15].appl 	VehicleRemoved 	0
scalar IntersectionExampleScenario.node[15].appl 	ArrivedAtDest 	1
scalar IntersectionExampleScenario.node[15].appl 	IntersectionEnterTime 	48.75
scalar IntersectionExampleScenario.node[15].appl 	IntersectionExitTime 	95.057234996551
scalar IntersectionExampleScenario.node[15].appl 	NumberOfCollisions 	0
scalar IntersectionExampleScenario.node[15].nic.phy80211p 	busyTime 	0
scalar IntersectionExampleScenario.node[15].nic.mac1609_4 	ReceivedUnicastPackets 	0
scalar IntersectionExampleScenario.node[15].nic.mac1609_4 	ReceivedBroadcasts 	0
scalar IntersectionExampleScenario.node[15].nic.mac1609_4 	SentPackets 	0
scalar IntersectionExampleScenario.node[15].nic.mac1609_4 	SNIRLostPackets 	0
scalar IntersectionExampleScenario.node[15].nic.mac1609_4 	RXTXLostPackets 	0
scalar IntersectionExampleScenario.node[15].nic.mac1609_4 	TotalLostPackets 	0
scalar IntersectionExampleScenario.node[15].nic.mac1609_4 	DroppedPacketsInMac 	0
scalar IntersectionExampleScenario.node[15].nic.mac1609_4 	TooLittleTime 	0
scalar IntersectionExampleScenario.node[15].nic.mac1609_4 	TimesIntoBackoff 	0
scalar IntersectionExampleScenario.node[15].nic.mac1609_4 	SlotsBackoff 	0
scalar IntersectionExampleScenario.node[15].nic.mac1609_4 	NumInternalContention 	0
scalar IntersectionExampleScenario.node[15].nic.mac1609_4 	totalBusyTime 	0
scalar IntersectionExampleScenario.node[15].veinsmobility 	startTime 	48.75
scalar IntersectionExampleScenario.node[15].veinsmobility 	totalTime 	62.75
scalar IntersectionExampleScenario.node[15].veinsmobility 	stopTime 	111.75
scalar IntersectionExampleScenario.node[15].veinsmobility 	minSpeed 	0
scalar IntersectionExampleScenario.node[15].veinsmobility 	maxSpeed 	15.875
scalar IntersectionExampleScenario.node[15].veinsmobility 	totalDistance 	544.56520888133
scalar IntersectionExampleScenario.node[15].veinsmobility 	totalCO2Emission 	154.46799388911
scalar IntersectionExampleScenario.node[19].appl 	VehicleRemoved 	0
scalar IntersectionExampleScenario.node[19].appl 	ArrivedAtDest 	1
scalar IntersectionExampleScenario.node[19].appl 	IntersectionEnterTime 	61.25
scalar IntersectionExampleScenario.node[19].appl 	IntersectionExitTime 	97.773426506057
scalar IntersectionExampleScenario.node[19].appl 	NumberOfCollisions 	0
scalar IntersectionExampleScenario.node[19].nic.phy80211p 	busyTime 	0
scalar IntersectionExampleScenario.node[19].nic.mac1609_4 	ReceivedUnicastPackets 	0
scalar IntersectionExampleScenario.node[19].nic.mac1609_4 	ReceivedBroadcasts 	0
scalar IntersectionExampleScenario.node[19].nic.mac1609_4 	SentPackets 	0
scalar IntersectionExampleScenario.node[19].nic.mac1609_4 	SNIRLostPackets 	0
scalar IntersectionExampleScenario.node[19].nic.mac1609_4 	RXTXLostPackets 	0
scalar IntersectionExampleScenario.node[19].nic.mac1609_4 	TotalLostPackets 	0
scalar IntersectionExampleScenario.node[19].nic.mac1609_4 	DroppedPacketsInMac 	0
scalar IntersectionExampleScenario.node[19].nic.mac1609_4 	TooLittleTime 	0
scalar IntersectionExampleScenario.node[19].nic.mac1609_4 	TimesIntoBackoff 	0
scalar IntersectionExampleScenario.node[19].nic.mac1609_4 	SlotsBackoff 	0
scalar IntersectionExampleScenario.node[19].nic.mac1609_4 	NumInternalContention 	0
scalar IntersectionExampleScenario.node[19].nic.mac1609_4 	totalBusyTime 	0
scalar IntersectionExampleScenario.node[19].veinsmobility 	startTime 	61.25
scalar IntersectionExampleScenario.node[19].veinsmobility 	totalTime 	53.25
scalar IntersectionExampleScenario.node[19].veinsmobility 	stopTime 	114.75
scalar IntersectionExampleScenario.node[19].veinsmobility 	minSpeed 	0
scalar IntersectionExampleScenario.node[19].veinsmobility 	maxSpeed 	15.64999961853
scalar IntersectionExampleScenario.node[19].veinsmobility 	totalDistance 	545.09287543785
scalar IntersectionExampleScenario.node[19].veinsmobility 	totalCO2Emission 	141.77379592641
scalar IntersectionExampleScenario.node[20].appl 	VehicleRemoved 	0
scalar IntersectionExampleScenario.node[20].appl 	ArrivedAtDest 	1
scalar IntersectionExampleScenario.node[20].appl 	IntersectionEnterTime 	65.25
scalar IntersectionExampleScenario.node[20].appl 	IntersectionExitTime 	99.556963722367
scalar IntersectionExampleScenario.node[20].appl 	NumberOfCollisions 	0
scalar IntersectionExampleScenario.node[20].nic.phy80211p 	busyTime 	0
scalar IntersectionExampleScenario.node[20].nic.mac1609_4 	ReceivedUnicastPackets 	0
scalar IntersectionExampleScenario.node[20].nic.mac1609_4 	ReceivedBroadcasts 	0
scalar IntersectionExampleScenario.node[20].nic.mac1609_4 	SentPackets 	0
scalar IntersectionExampleScenario.node[20].nic.mac1609_4 	SNIRLostPackets 	0
scalar IntersectionExampleScenario.node[20].nic.mac1609_4 	RXTXLostPackets 	0
scalar IntersectionExampleScenario.node[20].nic.mac1609_4 	TotalLostPackets 	0
scalar IntersectionExampleScenario.node[20].nic.mac1609_4 	DroppedPacketsInMac 	0
scalar IntersectionExampleScenario.node[20].nic.mac1609_4 	TooLittleTime 	0
scalar IntersectionExampleScenario.node[20].nic.mac1609_4 	TimesIntoBackoff 	0
scalar IntersectionExampleScenario.node[20].nic.mac1609_4 	SlotsBackoff 	0
scalar IntersectionExampleScenario.node[20].nic.mac1609_4 	NumInternalContention 	0
scalar IntersectionExampleScenario.node[20].nic.mac1609_4 	totalBusyTime 	0
scalar IntersectionExampleScenario.node[20].veinsmobility 	startTime 	65.25
scalar IntersectionExampleScenario.node[20].veinsmobility 	totalTime 	50
scalar IntersectionExampleScenario.node[20].veinsmobility 	stopTime 	115.5
scalar IntersectionExampleScenario.node[20].veinsmobility 	minSpeed 	2.6418685913086
scalar IntersectionExampleScenario.node[20].veinsmobility 	maxSpeed 	15.64999961853
scalar IntersectionExampleScenario.node[20].veinsmobility 	totalDistance 	557.42251586914
scalar IntersectionExampleScenario.node[20].veinsmobility 	totalCO2Emission 	140.78984924699
scalar IntersectionExampleScenario.node[22].appl 	VehicleRemoved 	0
scalar IntersectionExampleScenario.node[22].appl 	ArrivedAtDest 	1
scalar IntersectionExampleScenario.node[22].appl 	IntersectionEnterTime 	70.5
scalar IntersectionExampleScenario.node[22].appl 	IntersectionExitTime 	101.81164614303
scalar IntersectionExampleScenario.node[22].appl 	NumberOfCollisions 	0
scalar IntersectionExampleScenario.node[22].nic.phy80211p 	busyTime 	0
scalar IntersectionExampleScenario.node[22].nic.mac1609_4 	ReceivedUnicastPackets 	0
scalar IntersectionExampleScenario.node[22].nic.mac1609_4 	ReceivedBroadcasts 	0
scalar IntersectionExampleScenario.node[22].nic.mac1609_4 	SentPackets 	0
scalar IntersectionExampleScenario.node[22].nic.mac1609_4 	SNIRLostPackets 	0
scalar IntersectionExampleScenario.node[22].nic.mac1609_4 	RXTXLostPackets 	0
scalar IntersectionExampleScenario.node[22].nic.mac1609_4 	TotalLostPackets 	0
scalar IntersectionExampleScenario.node[22].nic.mac1609_4 	DroppedPacketsInMac 	0
scalar IntersectionExampleScenario.node[22].nic.mac1609_4 	TooLittleTime 	0
scalar IntersectionExampleScenario.node[22].nic.mac1609_4 	TimesIntoBackoff 	0
scalar IntersectionExampleScenario.node[22].nic.mac1609_4 	SlotsBackoff 	0
scalar IntersectionExampleScenario.node[22].nic.mac1609_4 	NumInternalContention 	0
scalar IntersectionExampleScenario.node[22].nic.mac1609_4 	totalBusyTime 	0
scalar IntersectionExampleScenario.node[22].veinsmobility 	startTime 	70.5
scalar IntersectionExampleScenario.node[22].veinsmobility 	totalTime 	48
scalar IntersectionExampleScenario.node[22].veinsmobility 	stopTime 	118.75
scalar IntersectionExampleScenario.node[22].veinsmobility 	minSpeed 	3.1237299442291
scalar IntersectionExampleScenario.node[22].veinsmobility 	maxSpeed 	15.375
scalar IntersectionExampleScenario.node[22].veinsmobility 	totalDistance 	551.85410098003
scalar IntersectionExampleScenario.node[22].veinsmobility 	totalCO2Emission 	133.8253710361
scalar IntersectionExampleScenario.node[7].appl 	VehicleRemoved 	0
scalar IntersectionExampleScenario.node[7].appl 	ArrivedAtDest 	1
scalar IntersectionExampleScenario.node[7].appl 	IntersectionEnterTime 	23.25
scalar IntersectionExampleScenario.node[7].appl 	IntersectionExitTime 	124.54528698639
scalar IntersectionExampleScenario.node[7].appl 	NumberOfCollisions 	0
scalar IntersectionExampleScenario.node[7].nic.phy80211p 	busyTime 	0
scalar IntersectionExampleScenario.node[7].nic.mac1609_4 	ReceivedUnicastPackets 	0
scalar IntersectionExampleScenario.node[7].nic.mac1609_4 	ReceivedBroadcasts 	0
scalar IntersectionExampleScenario.node[7].nic.mac1609_4 	SentPackets 	0
scalar IntersectionExampleScenario.node[7].nic.mac1609_4 	SNIRLostPackets 	0
scalar IntersectionExampleScenario.node[7].nic.mac1609_4 	RXTXLostPackets 	0
scalar IntersectionExampleScenario.node[7].nic.mac1609_4 	TotalLostPackets 	0
scalar IntersectionExampleScenario.node[7].nic.mac1609_4 	DroppedPacketsInMac 	0
scalar IntersectionExampleScenario.node[7].nic.mac1609_4 	TooLittleTime 	0
scalar IntersectionExampleScenario.node[7].nic.mac1609_4 	TimesIntoBackoff 	0
scalar IntersectionExampleScenario.node[7].nic.mac1609_4 	SlotsBackoff 	0
scalar IntersectionExampleScenario.node[7].nic.mac1609_4 	NumInternalContention 	0
scalar IntersectionExampleScenario.node[7].nic.mac1609_4 	totalBusyTime 	0
scalar IntersectionExampleScenario.node[7].veinsmobility 	startTime 	23.25
scalar IntersectionExampleScenario.node[7].veinsmobility 	totalTime 	118.25
scalar IntersectionExampleScenario.node[7].veinsmobility 	stopTime 	141.75
scalar IntersectionExampleScenario.node[7].veinsmobility 	minSpeed 	0
scalar IntersectionExampleScenario.node[7].veinsmobility 	maxSpeed 	15.25
scalar IntersectionExampleScenario.node[7].veinsmobility 	totalDistance 	543.92483426482
scalar IntersectionExampleScenario.node[7].veinsmobility 	totalCO2Emission 	205.46740069027
scalar IntersectionExampleScenario.node[17].appl 	VehicleRemoved 	0
scalar IntersectionExampleScenario.node[17].appl 	ArrivedAtDest 	1
scalar IntersectionExampleScenario.node[17].appl 	IntersectionEnterTime 	58
scalar IntersectionExampleScenario.node[17].appl 	IntersectionExitTime 	127.01114502261
scalar IntersectionExampleScenario.node[17].appl 	NumberOfCollisions 	0
scalar IntersectionExampleScenario.node[17].nic.phy80211p 	busyTime 	0
scalar IntersectionExampleScenario.node[17].nic.mac1609_4 	ReceivedUnicastPackets 	0
scalar IntersectionExampleScenario.node[17].nic.mac1609_4 	ReceivedBroadcasts 	0
scalar IntersectionExampleScenario.node[17].nic.mac1609_4 	SentPackets 	0
scalar IntersectionExampleScenario.node[17].nic.mac1609_4 	SNIRLostPackets 	0
scalar IntersectionExampleScenario.node[17].nic.mac1609_4 	RXTXLostPackets 	0
scalar IntersectionExampleScenario.node[17].nic.mac1609_4 	TotalLostPackets 	0
scalar IntersectionExampleScenario.node[17].nic.mac1609_4 	DroppedPacketsInMac 	0
scalar IntersectionExampleScenario.node[17].nic.mac1609_4 	TooLittleTime 	0
scalar IntersectionExampleScenario.node[17].nic.mac1609_4 	TimesIntoBackoff 	0
scalar IntersectionExampleScenario.node[17].nic.mac1609_4 	SlotsBackoff 	0
scalar IntersectionExampleScenario.node[17].nic.mac1609_4 	NumInternalContention 	0
scalar IntersectionExampleScenario.node[17].nic.mac1609_4 	totalBusyTime 	0
scalar IntersectionExampleScenario.node[17].veinsmobility 	startTime 	58
scalar IntersectionExampleScenario.node[17].veinsmobility 	totalTime 	85.75
scalar IntersectionExampleScenario.node[17].veinsmobility 	stopTime 	144
scalar IntersectionExampleScenario.node[17].veinsmobility 	minSpeed 	0
scalar IntersectionExampleScenario.node[17].veinsmobility 	maxSpeed 	15.64999961853
scalar IntersectionExampleScenario.node[17].veinsmobility 	totalDistance 	545.379906285
scalar IntersectionExampleScenario.node[17].veinsmobility 	totalCO2Emission 	175.52523674229
scalar IntersectionExampleScenario.node[18].appl 	VehicleRemoved 	0
scalar IntersectionExampleScenario.node[18].appl 	ArrivedAtDest 	1
scalar IntersectionExampleScenario.node[18].appl 	IntersectionEnterTime 	60.5
scalar IntersectionExampleScenario.node[18].appl 	IntersectionExitTime 	129.03113215009
scalar IntersectionExampleScenario.node[18].appl 	NumberOfCollisions 	0
scalar IntersectionExampleScenario.node[18].nic.phy80211p 	busyTime 	0
scalar IntersectionExampleScenario.node[18].nic.mac1609_4 	ReceivedUnicastPackets 	0
scalar IntersectionExampleScenario.node[18].nic.mac1609_4 	ReceivedBroadcasts 	0
scalar IntersectionExampleScenario.node[18].nic.mac1609_4 	SentPackets 	0
scalar IntersectionExampleScenario.node[18].nic.mac1609_4 	SNIRLostPackets 	0
scalar IntersectionExampleScenario.node[18].nic.mac1609_4 	RXTXLostPackets 	0
scalar IntersectionExampleScenario.node[18].nic.mac1609_4 	TotalLostPackets 	0
scalar IntersectionExampleScenario.node[18].nic.mac1609_4 	DroppedPacketsInMac 	0
scalar IntersectionExampleScenario.node[18].nic.mac1609_4 	TooLittleTime 	0
scalar IntersectionExampleScenario.node[18].nic.mac1609_4 	TimesIntoBackoff 	0
scalar IntersectionExampleScenario.node[18].nic.mac1609_4 	SlotsBackoff 	0
scalar IntersectionExampleScenario.node[18].nic.mac1609_4 	NumInternalContention 	0
scalar IntersectionExampleScenario.node[18].nic.mac1609_4 	totalBusyTime 	0
scalar IntersectionExampleScenario.node[18].veinsmobility 	startTime 	60.5
scalar IntersectionExampleScenario.node[18].veinsmobility 	totalTime 	83.25
scalar IntersectionExampleScenario.node[18].veinsmobility 	stopTime 	144
scalar IntersectionExampleScenario.node[18].veinsmobility 	minSpeed 	0
scalar IntersectionExampleScenario.node[18].veinsmobility 	maxSpeed 	16.75
scalar IntersectionExampleScenario.node[18].veinsmobility 	totalDistance 	567.07060241699
scalar IntersectionExampleScenario.node[18].veinsmobility 	totalCO2Emission 	188.82387585374
scalar IntersectionExampleScenario.node[21].appl 	VehicleRemoved 	0
scalar IntersectionExampleScenario.node[21].appl 	ArrivedAtDest 	1
scalar IntersectionExampleScenario.node[21].appl 	IntersectionEnterTime 	70
scalar IntersectionExampleScenario.node[21].appl 	IntersectionExitTime 	131.0479457789
scalar IntersectionExampleScenario.node[21].appl 	NumberOfCollisions 	0
scalar IntersectionExampleScenario.node[21].nic.phy80211p 	busyTime 	0
scalar IntersectionExampleScenario.node[21].nic.mac1609_4 	ReceivedUnicastPackets 	0
scalar IntersectionExampleScenario.node[21].nic.mac1609_4 	ReceivedBroadcasts 	0
scalar IntersectionExampleScenario.node[21].nic.mac1609_4 	SentPackets 	0
scalar IntersectionExampleScenario.node[21].nic.mac1609_4 	SNIRLostPackets 	0
scalar IntersectionExampleScenario.node[21].nic.mac1609_4 	RXTXLostPackets 	0
scalar IntersectionExampleScenario.node[21].nic.mac1609_4 	TotalLostPackets 	0
scalar IntersectionExampleScenario.node[21].nic.mac1609_4 	DroppedPacketsInMac 	0
scalar IntersectionExampleScenario.node[21].nic.mac1609_4 	TooLittleTime 	0
scalar IntersectionExampleScenario.node[21].nic.mac1609_4 	TimesIntoBackoff 	0
scalar IntersectionExampleScenario.node[21].nic.mac1609_4 	SlotsBackoff 	0
scalar IntersectionExampleScenario.node[21].nic.mac1609_4 	NumInternalContention 	0
scalar IntersectionExampleScenario.node[21].nic.mac1609_4 	totalBusyTime 	0
scalar IntersectionExampleScenario.node[21].veinsmobility 	startTime 	70
scalar IntersectionExampleScenario.node[21].veinsmobility 	totalTime 	76.25
scalar IntersectionExampleScenario.node[21].veinsmobility 	stopTime 	146.5
scalar IntersectionExampleScenario.node[21].veinsmobility 	minSpeed 	0
scalar IntersectionExampleScenario.node[21].veinsmobility 	maxSpeed 	16.27499961853
scalar IntersectionExampleScenario.node[21].veinsmobility 	totalDistance 	553.33341217041
scalar IntersectionExampleScenario.node[21].veinsmobility 	totalCO2Emission 	170.63464023259
scalar IntersectionExampleScenario.node[23].appl 	VehicleRemoved 	0
scalar IntersectionExampleScenario.node[23].appl 	ArrivedAtDest 	1
scalar IntersectionExampleScenario.node[23].appl 	IntersectionEnterTime 	70.75
scalar IntersectionExampleScenario.node[23].appl 	IntersectionExitTime 	133.56553158554
scalar IntersectionExampleScenario.node[23].appl 	NumberOfCollisions 	0
scalar IntersectionExampleScenario.node[23].nic.phy80211p 	busyTime 	0
scalar IntersectionExampleScenario.node[23].nic.mac1609_4 	ReceivedUnicastPackets 	0
scalar IntersectionExampleScenario.node[23].nic.mac1609_4 	ReceivedBroadcasts 	0
scalar IntersectionExampleScenario.node[23].nic.mac1609_4 	SentPackets 	0
scalar IntersectionExampleScenario.node[23].nic.mac1609_4 	SNIRLostPackets 	0
scalar IntersectionExampleScenario.node[23].nic.mac1609_4 	RXTXLostPackets 	0
scalar IntersectionExampleScenario.node[23].nic.mac1609_4 	TotalLostPackets 	0
scalar IntersectionExampleScenario.node[23].nic.mac1609_4 	DroppedPacketsInMac 	0
scalar IntersectionExampleScenario.node[23].nic.mac1609_4 	TooLittleTime 	0
scalar IntersectionExampleScenario.node[23].nic.mac1609_4 	TimesIntoBackoff 	0
scalar IntersectionExampleScenario.node[23].nic.mac1609_4 	SlotsBackoff 	0
scalar IntersectionExampleScenario.node[23].nic.mac1609_4 	NumInternalContention 	0
scalar IntersectionExampleScenario.node[23].nic.mac1609_4 	totalBusyTime 	0
scalar IntersectionExampleScenario.node[23].veinsmobility 	startTime 	70.75
scalar IntersectionExampleScenario.node[23].veinsmobility 	totalTime 	79.25
scalar IntersectionExampleScenario.node[23].veinsmobility 	stopTime 	150.25
scalar IntersectionExampleScenario.node[23].veinsmobility 	minSpeed 	0
scalar IntersectionExampleScenario.node[23].veinsmobility 	maxSpeed 	15.375
scalar IntersectionExampleScenario.node[23].veinsmobility 	totalDistance 	573.56526658578
scalar IntersectionExampleScenario.node[23].veinsmobility 	totalCO2Emission 	174.65407365772
scalar IntersectionExampleScenario.node[24].appl 	VehicleRemoved 	0
scalar IntersectionExampleScenario.node[24].appl 	ArrivedAtDest 	1
scalar IntersectionExampleScenario.node[24].appl 	IntersectionEnterTime 	73.25
scalar IntersectionExampleScenario.node[24].appl 	IntersectionExitTime 	135.31495556163
scalar IntersectionExampleScenario.node[24].appl 	NumberOfCollisions 	0
scalar IntersectionExampleScenario.node[24].nic.phy80211p 	busyTime 	0
scalar IntersectionExampleScenario.node[24].nic.mac1609_4 	ReceivedUnicastPackets 	0
scalar IntersectionExampleScenario.node[24].nic.mac1609_4 	ReceivedBroadcasts 	0
scalar IntersectionExampleScenario.node[24].nic.mac1609_4 	SentPackets 	0
scalar IntersectionExampleScenario.node[24].nic.mac1609_4 	SNIRLostPackets 	0
scalar IntersectionExampleScenario.node[24].nic.mac1609_4 	RXTXLostPackets 	0
scalar IntersectionExampleScenario.node[24].nic.mac1609_4 	TotalLostPackets 	0
scalar IntersectionExampleScenario.node[24].nic.mac1609_4 	DroppedPacketsInMac 	0
scalar IntersectionExampleScenario.node[24].nic.mac1609_4 	TooLittleTime 	0
scalar IntersectionExampleScenario.node[24].nic.mac1609_4 	TimesIntoBackoff 	0
scalar IntersectionExampleScenario.node[24].nic.mac1609_4 	SlotsBackoff 	0
scalar IntersectionExampleScenario.node[24].nic.mac1609_4 	NumInternalContention 	0
scalar IntersectionExampleScenario.node[24].nic.mac1609_4 	totalBusyTime 	0
scalar IntersectionExampleScenario.node[24].veinsmobility 	startTime 	73.25
scalar IntersectionExampleScenario.node[24].veinsmobility 	totalTime 	78
scalar IntersectionExampleScenario.node[24].veinsmobility 	stopTime 	151.5
scalar IntersectionExampleScenario.node[24].veinsmobility 	minSpeed 	0
scalar IntersectionExampleScenario.node[24].veinsmobility 	maxSpeed 	15.5
scalar IntersectionExampleScenario.node[24].veinsmobility 	totalDistance 	581.25157928467
scalar IntersectionExampleScenario.node[24].veinsmobility 	totalCO2Emission 	175.9392884171
scalar IntersectionExampleScenario.node[28].appl 	VehicleRemoved 	0
scalar IntersectionExampleScenario.node[28].appl 	ArrivedAtDest 	1
scalar IntersectionExampleScenario.node[28].appl 	IntersectionEnterTime 	94.75
scalar IntersectionExampleScenario.node[28].appl 	IntersectionExitTime 	137.62129717832
scalar IntersectionExampleScenario.node[28].appl 	NumberOfCollisions 	0
scalar IntersectionExampleScenario.node[28].nic.phy80211p 	busyTime 	0
scalar IntersectionExampleScenario.node[28].nic.mac1609_4 	ReceivedUnicastPackets 	0
scalar IntersectionExampleScenario.node[28].nic.mac1609_4 	ReceivedBroadcasts 	0
scalar IntersectionExampleScenario.node[28].nic.mac1609_4 	SentPackets 	0
scalar IntersectionExampleScenario.node[28].nic.mac1609_4 	SNIRLostPackets 	0
scalar IntersectionExampleScenario.node[28].nic.mac1609_4 	RXTXLostPackets 	0
scalar IntersectionExampleScenario.node[28].nic.mac1609_4 	TotalLostPackets 	0
scalar IntersectionExampleScenario.node[28].nic.mac1609_4 	DroppedPacketsInMac 	0
scalar IntersectionExampleScenario.node[28].nic.mac1609_4 	TooLittleTime 	0
scalar IntersectionExampleScenario.node[28].nic.mac1609_4 	TimesIntoBackoff 	0
scalar IntersectionExampleScenario.node[28].nic.mac1609_4 	SlotsBackoff 	0
scalar IntersectionExampleScenario.node[28].nic.mac1609_4 	NumInternalContention 	0
scalar IntersectionExampleScenario.node[28].nic.mac1609_4 	totalBusyTime 	0
scalar IntersectionExampleScenario.node[28].veinsmobility 	startTime 	94.75
scalar IntersectionExampleScenario.node[28].veinsmobility 	totalTime 	59
scalar IntersectionExampleScenario.node[28].veinsmobility 	stopTime 	154
scalar IntersectionExampleScenario.node[28].veinsmobility 	minSpeed 	0
scalar IntersectionExampleScenario.node[28].veinsmobility 	maxSpeed 	15.64999961853
scalar IntersectionExampleScenario.node[28].veinsmobility 	totalDistance 	549.28406002241
scalar IntersectionExampleScenario.node[28].veinsmobility 	totalCO2Emission 	155.17632344936
scalar IntersectionExampleScenario.node[35].appl 	VehicleRemoved 	0
scalar IntersectionExampleScenario.node[35].appl 	ArrivedAtDest 	1
scalar IntersectionExampleScenario.node[35].appl 	IntersectionEnterTime 	112.75
scalar IntersectionExampleScenario.node[35].appl 	IntersectionExitTime 	139.82414812103
scalar IntersectionExampleScenario.node[35].appl 	NumberOfCollisions 	0
scalar IntersectionExampleScenario.node[35].nic.phy80211p 	busyTime 	0
scalar IntersectionExampleScenario.node[35].nic.mac1609_4 	ReceivedUnicastPackets 	0
scalar IntersectionExampleScenario.node[35].nic.mac1609_4 	ReceivedBroadcasts 	0
scalar IntersectionExampleScenario.node[35].nic.mac1609_4 	SentPackets 	0
scalar IntersectionExampleScenario.node[35].nic.mac1609_4 	SNIRLostPackets 	0
scalar IntersectionExampleScenario.node[35].nic.mac1609_4 	RXTXLostPackets 	0
scalar IntersectionExampleScenario.node[35].nic.mac1609_4 	TotalLostPackets 	0
scalar IntersectionExampleScenario.node[35].nic.mac1609_4 	DroppedPacketsInMac 	0
scalar IntersectionExampleScenario.node[35].nic.mac1609_4 	TooLittleTime 	0
scalar IntersectionExampleScenario.node[35].nic.mac1609_4 	TimesIntoBackoff 	0
scalar IntersectionExampleScenario.node[35].nic.mac1609_4 	SlotsBackoff 	0
scalar IntersectionExampleScenario.node[35].nic.mac1609_4 	NumInternalContention 	0
scalar IntersectionExampleScenario.node[35].nic.mac1609_4 	totalBusyTime 	0
scalar IntersectionExampleScenario.node[35].veinsmobility 	startTime 	112.75
scalar IntersectionExampleScenario.node[35].veinsmobility 	totalTime 	44
scalar IntersectionExampleScenario.node[35].veinsmobility 	stopTime 	157
scalar IntersectionExampleScenario.node[35].veinsmobility 	minSpeed 	5.6500000953674
scalar IntersectionExampleScenario.node[35].veinsmobility 	maxSpeed 	14.39999961853
scalar IntersectionExampleScenario.node[35].veinsmobility 	totalDistance 	551.54257965088
scalar IntersectionExampleScenario.node[35].veinsmobility 	totalCO2Emission 	133.29925523766
scalar IntersectionExampleScenario.node[36].appl 	VehicleRemoved 	0
scalar IntersectionExampleScenario.node[36].appl 	ArrivedAtDest 	1
scalar IntersectionExampleScenario.node[36].appl 	IntersectionEnterTime 	114.75
scalar IntersectionExampleScenario.node[36].appl 	IntersectionExitTime 	142.10641935433
scalar IntersectionExampleScenario.node[36].appl 	NumberOfCollisions 	0
scalar IntersectionExampleScenario.node[36].nic.phy80211p 	busyTime 	0
scalar IntersectionExampleScenario.node[36].nic.mac1609_4 	ReceivedUnicastPackets 	0
scalar IntersectionExampleScenario.node[36].nic.mac1609_4 	ReceivedBroadcasts 	0
scalar IntersectionExampleScenario.node[36].nic.mac1609_4 	SentPackets 	0
scalar IntersectionExampleScenario.node[36].nic.mac1609_4 	SNIRLostPackets 	0
scalar IntersectionExampleScenario.node[36].nic.mac1609_4 	RXTXLostPackets 	0
scalar IntersectionExampleScenario.node[36].nic.mac1609_4 	TotalLostPackets 	0
scalar IntersectionExampleScenario.node[36].nic.mac1609_4 	DroppedPacketsInMac 	0
scalar IntersectionExampleScenario.node[36].nic.mac1609_4 	TooLittleTime 	0
scalar IntersectionExampleScenario.node[36].nic.mac1609_4 	TimesIntoBackoff 	0
scalar IntersectionExampleScenario.node[36].nic.mac1609_4 	SlotsBackoff 	0
scalar IntersectionExampleScenario.node[36].nic.mac1609_4 	NumInternalContention 	0
scalar IntersectionExampleScenario.node[36].nic.mac1609_4 	totalBusyTime 	0
scalar IntersectionExampleScenario.node[36].veinsmobility 	startTime 	114.75
scalar IntersectionExampleScenario.node[36].veinsmobility 	totalTime 	43.75
scalar IntersectionExampleScenario.node[36].veinsmobility 	stopTime 	158.75
scalar IntersectionExampleScenario.node[36].veinsmobility 	minSpeed 	5.6500000953674
scalar IntersectionExampleScenario.node[36].veinsmobility 	maxSpeed 	14.612782478333
scalar IntersectionExampleScenario.node[36].veinsmobility 	totalDistance 	570.14087677002
scalar IntersectionExampleScenario.node[36].veinsmobility 	totalCO2Emission 	124.18392532774
scalar IntersectionExampleScenario.node[39].appl 	VehicleRemoved 	0
scalar IntersectionExampleScenario.node[39].appl 	ArrivedAtDest 	1
scalar IntersectionExampleScenario.node[39].appl 	IntersectionEnterTime 	125.75
scalar IntersectionExampleScenario.node[39].appl 	IntersectionExitTime 	150.3674123993
scalar IntersectionExampleScenario.node[39].appl 	NumberOfCollisions 	0
scalar IntersectionExampleScenario.node[39].nic.phy80211p 	busyTime 	0
scalar IntersectionExampleScenario.node[39].nic.mac1609_4 	ReceivedUnicastPackets 	0
scalar IntersectionExampleScenario.node[39].nic.mac1609_4 	ReceivedBroadcasts 	0
scalar IntersectionExampleScenario.node[39].nic.mac1609_4 	SentPackets 	0
scalar IntersectionExampleScenario.node[39].nic.mac1609_4 	SNIRLostPackets 	0
scalar IntersectionExampleScenario.node[39].nic.mac1609_4 	RXTXLostPackets 	0
scalar IntersectionExampleScenario.node[39].nic.mac1609_4 	TotalLostPackets 	0
scalar IntersectionExampleScenario.node[39].nic.mac1609_4 	DroppedPacketsInMac 	0
scalar IntersectionExampleScenario.node[39].nic.mac1609_4 	TooLittleTime 	0
scalar IntersectionExampleScenario.node[39].nic.mac1609_4 	TimesIntoBackoff 	0
scalar IntersectionExampleScenario.node[39].nic.mac1609_4 	SlotsBackoff 	0
scalar IntersectionExampleScenario.node[39].nic.mac1609_4 	NumInternalContention 	0
scalar IntersectionExampleScenario.node[39].nic.mac1609_4 	totalBusyTime 	0
scalar IntersectionExampleScenario.node[39].veinsmobility 	startTime 	125.75
scalar IntersectionExampleScenario.node[39].veinsmobility 	totalTime 	42.25
scalar IntersectionExampleScenario.node[39].veinsmobility 	stopTime 	168.25
scalar IntersectionExampleScenario.node[39].veinsmobility 	minSpeed 	5.6500000953674
scalar IntersectionExampleScenario.node[39].veinsmobility 	maxSpeed 	14.39999961853
scalar IntersectionExampleScenario.node[39].veinsmobility 	totalDistance 	551.62623243514
scalar IntersectionExampleScenario.node[39].veinsmobility 	totalCO2Emission 	115.48315511223
scalar IntersectionExampleScenario.node[13].appl 	VehicleRemoved 	0
scalar IntersectionExampleScenario.node[13].appl 	ArrivedAtDest 	1
scalar IntersectionExampleScenario.node[13].appl 	IntersectionEnterTime 	41.5
scalar IntersectionExampleScenario.node[13].appl 	IntersectionExitTime 	155.3619396266
scalar IntersectionExampleScenario.node[13].appl 	NumberOfCollisions 	0
scalar IntersectionExampleScenario.node[13].nic.phy80211p 	busyTime 	0
scalar IntersectionExampleScenario.node[13].nic.mac1609_4 	ReceivedUnicastPackets 	0
scalar IntersectionExampleScenario.node[13].nic.mac1609_4 	ReceivedBroadcasts 	0
scalar IntersectionExampleScenario.node[13].nic.mac1609_4 	SentPackets 	0
scalar IntersectionExampleScenario.node[13].nic.mac1609_4 	SNIRLostPackets 	0
scalar IntersectionExampleScenario.node[13].nic.mac1609_4 	RXTXLostPackets 	0
scalar IntersectionExampleScenario.node[13].nic.mac1609_4 	TotalLostPackets 	0
scalar IntersectionExampleScenario.node[13].nic.mac1609_4 	DroppedPacketsInMac 	0
scalar IntersectionExampleScenario.node[13].nic.mac1609_4 	TooLittleTime 	0
scalar IntersectionExampleScenario.node[13].nic.mac1609_4 	TimesIntoBackoff 	0
scalar IntersectionExampleScenario.node[13].nic.mac1609_4 	SlotsBackoff 	0
scalar IntersectionExampleScenario.node[13].nic.mac1609_4 	NumInternalContention 	0
scalar IntersectionExampleScenario.node[13].nic.mac1609_4 	totalBusyTime 	0
scalar IntersectionExampleScenario.node[13].veinsmobility 	startTime 	41.5
scalar IntersectionExampleScenario.node[13].veinsmobility 	totalTime 	129.75
scalar IntersectionExampleScenario.node[13].veinsmobility 	stopTime 	171.5
scalar IntersectionExampleScenario.node[13].veinsmobility 	minSpeed 	0
scalar IntersectionExampleScenario.node[13].veinsmobility 	maxSpeed 	15.64999961853
scalar IntersectionExampleScenario.node[13].veinsmobility 	totalDistance 	565.70127214541
scalar IntersectionExampleScenario.node[13].veinsmobility 	totalCO2Emission 	221.07095038848
scalar IntersectionExampleScenario.node[16].appl 	VehicleRemoved 	0
scalar IntersectionExampleScenario.node[16].appl 	ArrivedAtDest 	1
scalar IntersectionExampleScenario.node[16].appl 	IntersectionEnterTime 	54.25
scalar IntersectionExampleScenario.node[16].appl 	IntersectionExitTime 	156.37316449214
scalar IntersectionExampleScenario.node[16].appl 	NumberOfCollisions 	0
scalar IntersectionExampleScenario.node[16].nic.phy80211p 	busyTime 	0
scalar IntersectionExampleScenario.node[16].nic.mac1609_4 	ReceivedUnicastPackets 	0
scalar IntersectionExampleScenario.node[16].nic.mac1609_4 	ReceivedBroadcasts 	0
scalar IntersectionExampleScenario.node[16].nic.mac1609_4 	SentPackets 	0
scalar IntersectionExampleScenario.node[16].nic.mac1609_4 	SNIRLostPackets 	0
scalar IntersectionExampleScenario.node[16].nic.mac1609_4 	RXTXLostPackets 	0
scalar IntersectionExampleScenario.node[16].nic.mac1609_4 	TotalLostPackets 	0
scalar IntersectionExampleScenario.node[16].nic.mac1609_4 	DroppedPacketsInMac 	0
scalar IntersectionExampleScenario.node[16].nic.mac1609_4 	TooLittleTime 	0
scalar IntersectionExampleScenario.node[16].nic.mac1609_4 	TimesIntoBackoff 	0
scalar IntersectionExampleScenario.node[16].nic.mac1609_4 	SlotsBackoff 	0
scalar IntersectionExampleScenario.node[16].nic.mac1609_4 	NumInternalContention 	0
scalar IntersectionExampleScenario.node[16].nic.mac1609_4 	totalBusyTime 	0
scalar IntersectionExampleScenario.node[16].veinsmobility 	startTime 	54.25
scalar IntersectionExampleScenario.node[16].veinsmobility 	totalTime 	117.5
scalar IntersectionExampleScenario.node[16].veinsmobility 	stopTime 	172
scalar IntersectionExampleScenario.node[16].veinsmobility 	minSpeed 	0
scalar IntersectionExampleScenario.node[16].veinsmobility 	maxSpeed 	16.27499961853
scalar IntersectionExampleScenario.node[16].veinsmobility 	totalDistance 	553.55972290039
scalar IntersectionExampleScenario.node[16].veinsmobility 	totalCO2Emission 	212.43174010941
scalar IntersectionExampleScenario.node[25].appl 	VehicleRemoved 	0
scalar IntersectionExampleScenario.node[25].appl 	ArrivedAtDest 	1
scalar IntersectionExampleScenario.node[25].appl 	IntersectionEnterTime 	88.75
scalar IntersectionExampleScenario.node[25].appl 	IntersectionExitTime 	158.2505280461
scalar IntersectionExampleScenario.node[25].appl 	NumberOfCollisions 	0
scalar IntersectionExampleScenario.node[25].nic.phy80211p 	busyTime 	0
scalar IntersectionExampleScenario.node[25].nic.mac1609_4 	ReceivedUnicastPackets 	0
scalar IntersectionExampleScenario.node[25].nic.mac1609_4 	ReceivedBroadcasts 	0
scalar IntersectionExampleScenario.node[25].nic.mac1609_4 	SentPackets 	0
scalar IntersectionExampleScenario.node[25].nic.mac1609_4 	SNIRLostPackets 	0
scalar IntersectionExampleScenario.node[25].nic.mac1609_4 	RXTXLostPackets 	0
scalar IntersectionExampleScenario.node[25].nic.mac1609_4 	TotalLostPackets 	0
scalar IntersectionExampleScenario.node[25].nic.mac1609_4 	DroppedPacketsInMac 	0
scalar IntersectionExampleScenario.node[25].nic.mac1609_4 	TooLittleTime 	0
scalar IntersectionExampleScenario.node[25].nic.mac1609_4 	TimesIntoBackoff 	0
scalar IntersectionExampleScenario.node[25].nic.mac1609_4 	SlotsBackoff 	0
scalar IntersectionExampleScenario.node[25].nic.mac1609_4 	NumInternalContention 	0
scalar IntersectionExampleScenario.node[25].nic.mac1609_4 	totalBusyTime 	0
scalar IntersectionExampleScenario.node[25].veinsmobility 	startTime 	88.75
scalar IntersectionExampleScenario.node[25].veinsmobility 	totalTime 	86
scalar IntersectionExampleScenario.node[25].veinsmobility 	stopTime 	175
scalar IntersectionExampleScenario.node[25].veinsmobility 	minSpeed 	0
scalar IntersectionExampleScenario.node[25].veinsmobility 	maxSpeed 	15.875
scalar IntersectionExampleScenario.node[25].veinsmobility 	totalDistance 	544.173412259
scalar IntersectionExampleScenario.node[25].veinsmobility 	totalCO2Emission 	177.49554824553
scalar IntersectionExampleScenario.node[33].appl 	VehicleRemoved 	0
scalar IntersectionExampleScenario.node[33].appl 	ArrivedAtDest 	1
scalar IntersectionExampleScenario.node[33].appl 	IntersectionEnterTime 	110.25
scalar IntersectionExampleScenario.node[33].appl 	IntersectionExitTime 	160.54987259998
scalar IntersectionExampleScenario.node[33].appl 	NumberOfCollisions 	0
scalar IntersectionExampleScenario.node[33].nic.phy80211p 	busyTime 	0
scalar IntersectionExampleScenario.node[33].nic.mac1609_4 	ReceivedUnicastPackets 	0
scalar IntersectionExampleScenario.node[33].nic.mac1609_4 	ReceivedBroadcasts 	0
scalar IntersectionExampleScenario.node[33].nic.mac1609_4 	SentPackets 	0
scalar IntersectionExampleScenario.node[33].nic.mac1609_4 	SNIRLostPackets 	0
scalar IntersectionExampleScenario.node[33].nic.mac1609_4 	RXTXLostPackets 	0
scalar IntersectionExampleScenario.node[33].nic.mac1609_4 	TotalLostPackets 	0
scalar IntersectionExampleScenario.node[33].nic.mac1609_4 	DroppedPacketsInMac 	0
scalar IntersectionExampleScenario.node[33].nic.mac1609_4 	TooLittleTime 	0
scalar IntersectionExampleScenario.node[33].nic.mac1609_4 	TimesIntoBackoff 	0
scalar IntersectionExampleScenario.node[33].nic.mac1609_4 	SlotsBackoff 	0
scalar IntersectionExampleScenario.node[33].nic.mac1609_4 	NumInternalContention 	0
scalar IntersectionExampleScenario.node[33].nic.mac1609_4 	totalBusyTime 	0
scalar IntersectionExampleScenario.node[33].veinsmobility 	startTime 	110.25
scalar IntersectionExampleScenario.node[33].veinsmobility 	totalTime 	66
scalar IntersectionExampleScenario.node[33].veinsmobility 	stopTime 	176.5
scalar IntersectionExampleScenario.node[33].veinsmobility 	minSpeed 	0
scalar IntersectionExampleScenario.node[33].veinsmobility 	maxSpeed 	16.125
scalar IntersectionExampleScenario.node[33].veinsmobility 	totalDistance 	554.46578979492
scalar IntersectionExampleScenario.node[33].veinsmobility 	totalCO2Emission 	159.41196027048
scalar IntersectionExampleScenario.node[42].appl 	VehicleRemoved 	0
scalar IntersectionExampleScenario.node[42].appl 	ArrivedAtDest 	1
scalar IntersectionExampleScenario.node[42].appl 	IntersectionEnterTime 	134.5
scalar IntersectionExampleScenario.node[42].appl 	IntersectionExitTime 	163.12225812548
scalar IntersectionExampleScenario.node[42].appl 	NumberOfCollisions 	0
scalar IntersectionExampleScenario.node[42].nic.phy80211p 	busyTime 	0
scalar IntersectionExampleScenario.node[42].nic.mac1609_4 	ReceivedUnicastPackets 	0
scalar IntersectionExampleScenario.node[42].nic.mac1609_4 	ReceivedBroadcasts 	0
scalar IntersectionExampleScenario.node[42].nic.mac1609_4 	SentPackets 	0
scalar IntersectionExampleScenario.node[42].nic.mac1609_4 	SNIRLostPackets 	0
scalar IntersectionExampleScenario.node[42].nic.mac1609_4 	RXTXLostPackets 	0
scalar IntersectionExampleScenario.node[42].nic.mac1609_4 	TotalLostPackets 	0
scalar IntersectionExampleScenario.node[42].nic.mac1609_4 	DroppedPacketsInMac 	0
scalar IntersectionExampleScenario.node[42].nic.mac1609_4 	TooLittleTime 	0
scalar IntersectionExampleScenario.node[42].nic.mac1609_4 	TimesIntoBackoff 	0
scalar IntersectionExampleScenario.node[42].nic.mac1609_4 	SlotsBackoff 	0
scalar IntersectionExampleScenario.node[42].nic.mac1609_4 	NumInternalContention 	0
scalar IntersectionExampleScenario.node[42].nic.mac1609_4 	totalBusyTime 	0
scalar IntersectionExampleScenario.node[42].veinsmobility 	startTime 	134.5
scalar IntersectionExampleScenario.node[42].veinsmobility 	totalTime 	45.5
scalar IntersectionExampleScenario.node[42].veinsmobility 	stopTime 	180.25
scalar IntersectionExampleScenario.node[42].veinsmobility 	minSpeed 	5.552285194397
scalar IntersectionExampleScenario.node[42].veinsmobility 	maxSpeed 	15.25
scalar IntersectionExampleScenario.node[42].veinsmobility 	totalDistance 	545.9487743024
scalar IntersectionExampleScenario.node[42].veinsmobility 	totalCO2Emission 	138.42993241225
scalar IntersectionExampleScenario.node[43].appl 	VehicleRemoved 	0
scalar IntersectionExampleScenario.node[43].appl 	ArrivedAtDest 	1
scalar IntersectionExampleScenario.node[43].appl 	IntersectionEnterTime 	135.75
scalar IntersectionExampleScenario.node[43].appl 	IntersectionExitTime 	165.06563861057
scalar IntersectionExampleScenario.node[43].appl 	NumberOfCollisions 	0
scalar IntersectionExampleScenario.node[43].nic.phy80211p 	busyTime 	0
scalar IntersectionExampleScenario.node[43].nic.mac1609_4 	ReceivedUnicastPackets 	0
scalar IntersectionExampleScenario.node[43].nic.mac1609_4 	ReceivedBroadcasts 	0
scalar IntersectionExampleScenario.node[43].nic.mac1609_4 	SentPackets 	0
scalar IntersectionExampleScenario.node[43].nic.mac1609_4 	SNIRLostPackets 	0
scalar IntersectionExampleScenario.node[43].nic.mac1609_4 	RXTXLostPackets 	0
scalar IntersectionExampleScenario.node[43].nic.mac1609_4 	TotalLostPackets 	0
scalar IntersectionExampleScenario.node[43].nic.mac1609_4 	DroppedPacketsInMac 	0
scalar IntersectionExampleScenario.node[43].nic.mac1609_4 	TooLittleTime 	0
scalar IntersectionExampleScenario.node[43].nic.mac1609_4 	TimesIntoBackoff 	0
scalar IntersectionExampleScenario.node[43].nic.mac1609_4 	SlotsBackoff 	0
scalar IntersectionExampleScenario.node[43].nic.mac1609_4 	NumInternalContention 	0
scalar IntersectionExampleScenario.node[43].nic.mac1609_4 	totalBusyTime 	0
scalar IntersectionExampleScenario.node[43].veinsmobility 	startTime 	135.75
scalar IntersectionExampleScenario.node[43].veinsmobility 	totalTime 	45.75
scalar IntersectionExampleScenario.node[43].veinsmobility 	stopTime 	181.75
scalar IntersectionExampleScenario.node[43].veinsmobility 	minSpeed 	5.6500000953674
scalar IntersectionExampleScenario.node[43].veinsmobility 	maxSpeed 	15.582680702209
scalar IntersectionExampleScenario.node[43].veinsmobility 	totalDistance 	566.38689970789
scalar IntersectionExampleScenario.node[43].veinsmobility 	totalCO2Emission 	139.24947776366
scalar IntersectionExampleScenario.node[48].appl 	VehicleRemoved 	0
scalar IntersectionExampleScenario.node[48].appl 	ArrivedAtDest 	1
scalar IntersectionExampleScenario.node[48].appl 	IntersectionEnterTime 	146.75
scalar IntersectionExampleScenario.node[48].appl 	IntersectionExitTime 	170.26094977607
scalar IntersectionExampleScenario.node[48].appl 	NumberOfCollisions 	0
scalar IntersectionExampleScenario.node[48].nic.phy80211p 	busyTime 	0
scalar IntersectionExampleScenario.node[48].nic.mac1609_4 	ReceivedUnicastPackets 	0
scalar IntersectionExampleScenario.node[48].nic.mac1609_4 	ReceivedBroadcasts 	0
scalar IntersectionExampleScenario.node[48].nic.mac1609_4 	SentPackets 	0
scalar IntersectionExampleScenario.node[48].nic.mac1609_4 	SNIRLostPackets 	0
scalar IntersectionExampleScenario.node[48].nic.mac1609_4 	RXTXLostPackets 	0
scalar IntersectionExampleScenario.node[48].nic.mac1609_4 	TotalLostPackets 	0
scalar IntersectionExampleScenario.node[48].nic.mac1609_4 	DroppedPacketsInMac 	0
scalar IntersectionExampleScenario.node[48].nic.mac1609_4 	TooLittleTime 	0
scalar IntersectionExampleScenario.node[48].nic.mac1609_4 	TimesIntoBackoff 	0
scalar IntersectionExampleScenario.node[48].nic.mac1609_4 	SlotsBackoff 	0
scalar IntersectionExampleScenario.node[48].nic.mac1609_4 	NumInternalContention 	0
scalar IntersectionExampleScenario.node[48].nic.mac1609_4 	totalBusyTime 	0
scalar IntersectionExampleScenario.node[48].veinsmobility 	startTime 	146.75
scalar IntersectionExampleScenario.node[48].veinsmobility 	totalTime 	40
scalar IntersectionExampleScenario.node[48].veinsmobility 	stopTime 	187
scalar IntersectionExampleScenario.node[48].veinsmobility 	minSpeed 	5.6500000953674
scalar IntersectionExampleScenario.node[48].veinsmobility 	maxSpeed 	15.875
scalar IntersectionExampleScenario.node[48].veinsmobility 	totalDistance 	545.97072093517
scalar IntersectionExampleScenario.node[48].veinsmobility 	totalCO2Emission 	131.45116892189
scalar IntersectionExampleScenario.node[51].appl 	VehicleRemoved 	0
scalar IntersectionExampleScenario.node[51].appl 	ArrivedAtDest 	1
scalar IntersectionExampleScenario.node[51].appl 	IntersectionEnterTime 	152.25
scalar IntersectionExampleScenario.node[51].appl 	IntersectionExitTime 	175.10616743349
scalar IntersectionExampleScenario.node[51].appl 	NumberOfCollisions 	0
scalar IntersectionExampleScenario.node[51].nic.phy80211p 	busyTime 	0
scalar IntersectionExampleScenario.node[51].nic.mac1609_4 	ReceivedUnicastPackets 	0
scalar IntersectionExampleScenario.node[51].nic.mac1609_4 	ReceivedBroadcasts 	0
scalar IntersectionExampleScenario.node[51].nic.mac1609_4 	SentPackets 	0
scalar IntersectionExampleScenario.node[51].nic.mac1609_4 	SNIRLostPackets 	0
scalar IntersectionExampleScenario.node[51].nic.mac1609_4 	RXTXLostPackets 	0
scalar IntersectionExampleScenario.node[51].nic.mac1609_4 	TotalLostPackets 	0
scalar IntersectionExampleScenario.node[51].nic.mac1609_4 	DroppedPacketsInMac 	0
scalar IntersectionExampleScenario.node[51].nic.mac1609_4 	TooLittleTime 	0
scalar IntersectionExampleScenario.node[51].nic.mac1609_4 	TimesIntoBackoff 	0
scalar IntersectionExampleScenario.node[51].nic.mac1609_4 	SlotsBackoff 	0
scalar IntersectionExampleScenario.node[51].nic.mac1609_4 	NumInternalContention 	0
scalar IntersectionExampleScenario.node[51].nic.mac1609_4 	totalBusyTime 	0
scalar IntersectionExampleScenario.node[51].veinsmobility 	startTime 	152.25
scalar IntersectionExampleScenario.node[51].veinsmobility 	totalTime 	38.75
scalar IntersectionExampleScenario.node[51].veinsmobility 	stopTime 	191.25
scalar IntersectionExampleScenario.node[51].veinsmobility 	minSpeed 	5.6500000953674
scalar IntersectionExampleScenario.node[51].veinsmobility 	maxSpeed 	16.014270782471
scalar IntersectionExampleScenario.node[51].veinsmobility 	totalDistance 	551.78558071339
scalar IntersectionExampleScenario.node[51].veinsmobility 	totalCO2Emission 	125.988130505
scalar IntersectionExampleScenario.node[53].appl 	VehicleRemoved 	0
scalar IntersectionExampleScenario.node[53].appl 	ArrivedAtDest 	1
scalar IntersectionExampleScenario.node[53].appl 	IntersectionEnterTime 	154.5
scalar IntersectionExampleScenario.node[53].appl 	IntersectionExitTime 	178.55418406581
scalar IntersectionExampleScenario.node[53].appl 	NumberOfCollisions 	0
scalar IntersectionExampleScenario.node[53].nic.phy80211p 	busyTime 	0
scalar IntersectionExampleScenario.node[53].nic.mac1609_4 	ReceivedUnicastPackets 	0
scalar IntersectionExampleScenario.node[53].nic.mac1609_4 	ReceivedBroadcasts 	0
scalar IntersectionExampleScenario.node[53].nic.mac1609_4 	SentPackets 	0
scalar IntersectionExampleScenario.node[53].nic.mac1609_4 	SNIRLostPackets 	0
scalar IntersectionExampleScenario.node[53].nic.mac1609_4 	RXTXLostPackets 	0
scalar IntersectionExampleScenario.node[53].nic.mac1609_4 	TotalLostPackets 	0
scalar IntersectionExampleScenario.node[53].nic.mac1609_4 	DroppedPacketsInMac 	0
scalar IntersectionExampleScenario.node[53].nic.mac1609_4 	TooLittleTime 	0
scalar IntersectionExampleScenario.node[53].nic.mac1609_4 	TimesIntoBackoff 	0
scalar IntersectionExampleScenario.node[53].nic.mac1609_4 	SlotsBackoff 	0
scalar IntersectionExampleScenario.node[53].nic.mac1609_4 	NumInternalContention 	0
scalar IntersectionExampleScenario.node[53].nic.mac1609_4 	totalBusyTime 	0
scalar IntersectionExampleScenario.node[53].veinsmobility 	startTime 	154.5
scalar IntersectionExampleScenario.node[53].veinsmobility 	totalTime 	40.25
scalar IntersectionExampleScenario.node[53].veinsmobility 	stopTime 	195
scalar IntersectionExampleScenario.node[53].veinsmobility 	minSpeed 	5.6500000953674
scalar IntersectionExampleScenario.node[53].veinsmobility 	maxSpeed 	16.27499961853
scalar IntersectionExampleScenario.node[53].veinsmobility 	totalDistance 	562.93654148887
scalar IntersectionExampleScenario.node[53].veinsmobility 	totalCO2Emission 	135.47324499492
scalar IntersectionExampleScenario.node[54].appl 	VehicleRemoved 	0
scalar IntersectionExampleScenario.node[54].appl 	ArrivedAtDest 	1
scalar IntersectionExampleScenario.node[54].appl 	IntersectionEnterTime 	154.75
scalar IntersectionExampleScenario.node[54].appl 	IntersectionExitTime 	181.00780360293
scalar IntersectionExampleScenario.node[54].appl 	NumberOfCollisions 	0
scalar IntersectionExampleScenario.node[54].nic.phy80211p 	busyTime 	0
scalar IntersectionExampleScenario.node[54].nic.mac1609_4 	ReceivedUnicastPackets 	0
scalar IntersectionExampleScenario.node[54].nic.mac1609_4 	ReceivedBroadcasts 	0
scalar IntersectionExampleScenario.node[54].nic.mac1609_4 	SentPackets 	0
scalar IntersectionExampleScenario.node[54].nic.mac1609_4 	SNIRLostPackets 	0
scalar IntersectionExampleScenario.node[54].nic.mac1609_4 	RXTXLostPackets 	0
scalar IntersectionExampleScenario.node[54].nic.mac1609_4 	TotalLostPackets 	0
scalar IntersectionExampleScenario.node[54].nic.mac1609_4 	DroppedPacketsInMac 	0
scalar IntersectionExampleScenario.node[54].nic.mac1609_4 	TooLittleTime 	0
scalar IntersectionExampleScenario.node[54].nic.mac1609_4 	TimesIntoBackoff 	0
scalar IntersectionExampleScenario.node[54].nic.mac1609_4 	SlotsBackoff 	0
scalar IntersectionExampleScenario.node[54].nic.mac1609_4 	NumInternalContention 	0
scalar IntersectionExampleScenario.node[54].nic.mac1609_4 	totalBusyTime 	0
scalar IntersectionExampleScenario.node[54].veinsmobility 	startTime 	154.75
scalar IntersectionExampleScenario.node[54].veinsmobility 	totalTime 	42.5
scalar IntersectionExampleScenario.node[54].veinsmobility 	stopTime 	197.5
scalar IntersectionExampleScenario.node[54].veinsmobility 	minSpeed 	5.6500000953674
scalar IntersectionExampleScenario.node[54].veinsmobility 	maxSpeed 	15.734210968018
scalar IntersectionExampleScenario.node[54].veinsmobility 	totalDistance 	582.25562422457
scalar IntersectionExampleScenario.node[54].veinsmobility 	totalCO2Emission 	136.59030862414
scalar IntersectionExampleScenario.node[26].appl 	VehicleRemoved 	0
scalar IntersectionExampleScenario.node[26].appl 	ArrivedAtDest 	1
scalar IntersectionExampleScenario.node[26].appl 	IntersectionEnterTime 	91.75
scalar IntersectionExampleScenario.node[26].appl 	IntersectionExitTime 	185.30051660715
scalar IntersectionExampleScenario.node[26].appl 	NumberOfCollisions 	0
scalar IntersectionExampleScenario.node[26].nic.phy80211p 	busyTime 	0
scalar IntersectionExampleScenario.node[26].nic.mac1609_4 	ReceivedUnicastPackets 	0
scalar IntersectionExampleScenario.node[26].nic.mac1609_4 	ReceivedBroadcasts 	0
scalar IntersectionExampleScenario.node[26].nic.mac1609_4 	SentPackets 	0
scalar IntersectionExampleScenario.node[26].nic.mac1609_4 	SNIRLostPackets 	0
scalar IntersectionExampleScenario.node[26].nic.mac1609_4 	RXTXLostPackets 	0
scalar IntersectionExampleScenario.node[26].nic.mac1609_4 	TotalLostPackets 	0
scalar IntersectionExampleScenario.node[26].nic.mac1609_4 	DroppedPacketsInMac 	0
scalar IntersectionExampleScenario.node[26].nic.mac1609_4 	TooLittleTime 	0
scalar IntersectionExampleScenario.node[26].nic.mac1609_4 	TimesIntoBackoff 	0
scalar IntersectionExampleScenario.node[26].nic.mac1609_4 	SlotsBackoff 	0
scalar IntersectionExampleScenario.node[26].nic.mac1609_4 	NumInternalContention 	0
scalar IntersectionExampleScenario.node[26].nic.mac1609_4 	totalBusyTime 	0
scalar IntersectionExampleScenario.node[26].veinsmobility 	startTime 	91.75
scalar IntersectionExampleScenario.node[26].veinsmobility 	totalTime 	109.75
scalar IntersectionExampleScenario.node[26].veinsmobility 	stopTime 	201.75
scalar IntersectionExampleScenario.node[26].veinsmobility 	minSpeed 	0
scalar IntersectionExampleScenario.node[26].veinsmobility 	maxSpeed 	15.375
scalar IntersectionExampleScenario.node[26].veinsmobility 	totalDistance 	552.21952819824
scalar IntersectionExampleScenario.node[26].veinsmobility 	totalCO2Emission 	198.08209236752
scalar IntersectionExampleScenario.node[27].appl 	VehicleRemoved 	0
scalar IntersectionExampleScenario.node[27].appl 	ArrivedAtDest 	1
scalar IntersectionExampleScenario.node[27].appl 	IntersectionEnterTime 	94.25
scalar IntersectionExampleScenario.node[27].appl 	IntersectionExitTime 	186.09348229435
scalar IntersectionExampleScenario.node[27].appl 	NumberOfCollisions 	0
scalar IntersectionExampleScenario.node[27].nic.phy80211p 	busyTime 	0
scalar IntersectionExampleScenario.node[27].nic.mac1609_4 	ReceivedUnicastPackets 	0
scalar IntersectionExampleScenario.node[27].nic.mac1609_4 	ReceivedBroadcasts 	0
scalar IntersectionExampleScenario.node[27].nic.mac1609_4 	SentPackets 	0
scalar IntersectionExampleScenario.node[27].nic.mac1609_4 	SNIRLostPackets 	0
scalar IntersectionExampleScenario.node[27].nic.mac1609_4 	RXTXLostPackets 	0
scalar IntersectionExampleScenario.node[27].nic.mac1609_4 	TotalLostPackets 	0
scalar IntersectionExampleScenario.node[27].nic.mac1609_4 	DroppedPacketsInMac 	0
scalar IntersectionExampleScenario.node[27].nic.mac1609_4 	TooLittleTime 	0
scalar IntersectionExampleScenario.node[27].nic.mac1609_4 	TimesIntoBackoff 	0
scalar IntersectionExampleScenario.node[27].nic.mac1609_4 	SlotsBackoff 	0
scalar IntersectionExampleScenario.node[27].nic.mac1609_4 	NumInternalContention 	0
scalar IntersectionExampleScenario.node[27].nic.mac1609_4 	totalBusyTime 	0
scalar IntersectionExampleScenario.node[27].veinsmobility 	startTime 	94.25
scalar IntersectionExampleScenario.node[27].veinsmobility 	totalTime 	108.75
scalar IntersectionExampleScenario.node[27].veinsmobility 	stopTime 	203.25
scalar IntersectionExampleScenario.node[27].veinsmobility 	minSpeed 	0
scalar IntersectionExampleScenario.node[27].veinsmobility 	maxSpeed 	15.25
scalar IntersectionExampleScenario.node[27].veinsmobility 	totalDistance 	559.76083023071
scalar IntersectionExampleScenario.node[27].veinsmobility 	totalCO2Emission 	197.94958054082
scalar IntersectionExampleScenario.node[41].appl 	VehicleRemoved 	0
scalar IntersectionExampleScenario.node[41].appl 	ArrivedAtDest 	1
scalar IntersectionExampleScenario.node[41].appl 	IntersectionEnterTime 	132.75
scalar IntersectionExampleScenario.node[41].appl 	IntersectionExitTime 	191.07940342443
scalar IntersectionExampleScenario.node[41].appl 	NumberOfCollisions 	0
scalar IntersectionExampleScenario.node[41].nic.phy80211p 	busyTime 	0
scalar IntersectionExampleScenario.node[41].nic.mac1609_4 	ReceivedUnicastPackets 	0
scalar IntersectionExampleScenario.node[41].nic.mac1609_4 	ReceivedBroadcasts 	0
scalar IntersectionExampleScenario.node[41].nic.mac1609_4 	SentPackets 	0
scalar IntersectionExampleScenario.node[41].nic.mac1609_4 	SNIRLostPackets 	0
scalar IntersectionExampleScenario.node[41].nic.mac1609_4 	RXTXLostPackets 	0
scalar IntersectionExampleScenario.node[41].nic.mac1609_4 	TotalLostPackets 	0
scalar IntersectionExampleScenario.node[41].nic.mac1609_4 	DroppedPacketsInMac 	0
scalar IntersectionExampleScenario.node[41].nic.mac1609_4 	TooLittleTime 	0
scalar IntersectionExampleScenario.node[41].nic.mac1609_4 	TimesIntoBackoff 	0
scalar IntersectionExampleScenario.node[41].nic.mac1609_4 	SlotsBackoff 	0
[...]
scalar IntersectionExampleScenario.node[593].veinsmobility 	minSpeed 	0
scalar IntersectionExampleScenario.node[593].veinsmobility 	maxSpeed 	16.424917221069
scalar IntersectionExampleScenario.node[593].veinsmobility 	totalDistance 	248.45886993408
scalar IntersectionExampleScenario.node[593].veinsmobility 	totalCO2Emission 	66.676504938176
scalar IntersectionExampleScenario.node[594].appl 	VehicleRemoved 	0
scalar IntersectionExampleScenario.node[594].appl 	ArrivedAtDest 	0
scalar IntersectionExampleScenario.node[594].appl 	IntersectionEnterTime 	1770.5
scalar IntersectionExampleScenario.node[594].appl 	IntersectionExitTime 	-1
scalar IntersectionExampleScenario.node[594].appl 	NumberOfCollisions 	0
scalar IntersectionExampleScenario.node[594].nic.phy80211p 	busyTime 	0
scalar IntersectionExampleScenario.node[594].nic.mac1609_4 	ReceivedUnicastPackets 	0
scalar IntersectionExampleScenario.node[594].nic.mac1609_4 	ReceivedBroadcasts 	0
scalar IntersectionExampleScenario.node[594].nic.mac1609_4 	SentPackets 	0
scalar IntersectionExampleScenario.node[594].nic.mac1609_4 	SNIRLostPackets 	0
scalar IntersectionExampleScenario.node[594].nic.mac1609_4 	RXTXLostPackets 	0
scalar IntersectionExampleScenario.node[594].nic.mac1609_4 	TotalLostPackets 	0
scalar IntersectionExampleScenario.node[594].nic.mac1609_4 	DroppedPacketsInMac 	0
scalar IntersectionExampleScenario.node[594].nic.mac1609_4 	TooLittleTime 	0
scalar IntersectionExampleScenario.node[594].nic.mac1609_4 	TimesIntoBackoff 	0
scalar IntersectionExampleScenario.node[594].nic.mac1609_4 	SlotsBackoff 	0
scalar IntersectionExampleScenario.node[594].nic.mac1609_4 	NumInternalContention 	0
scalar IntersectionExampleScenario.node[594].nic.mac1609_4 	totalBusyTime 	0
scalar IntersectionExampleScenario.node[594].veinsmobility 	startTime 	1770.5
scalar IntersectionExampleScenario.node[594].veinsmobility 	totalTime 	29.5
scalar IntersectionExampleScenario.node[594].veinsmobility 	stopTime 	1800
scalar IntersectionExampleScenario.node[594].veinsmobility 	minSpeed 	0
scalar IntersectionExampleScenario.node[594].veinsmobility 	maxSpeed 	16.27499961853
scalar IntersectionExampleScenario.node[594].veinsmobility 	totalDistance 	263.7631149292
scalar IntersectionExampleScenario.node[594].veinsmobility 	totalCO2Emission 	69.86507374818
scalar IntersectionExampleScenario.node[595].appl 	VehicleRemoved 	0
scalar IntersectionExampleScenario.node[595].appl 	ArrivedAtDest 	0
scalar IntersectionExampleScenario.node[595].appl 	IntersectionEnterTime 	1772.75
scalar IntersectionExampleScenario.node[595].appl 	IntersectionExitTime 	-1
scalar IntersectionExampleScenario.node[595].appl 	NumberOfCollisions 	0
scalar IntersectionExampleScenario.node[595].nic.phy80211p 	busyTime 	0
scalar IntersectionExampleScenario.node[595].nic.mac1609_4 	ReceivedUnicastPackets 	0
scalar IntersectionExampleScenario.node[595].nic.mac1609_4 	ReceivedBroadcasts 	0
scalar IntersectionExampleScenario.node[595].nic.mac1609_4 	SentPackets 	0
scalar IntersectionExampleScenario.node[595].nic.mac1609_4 	SNIRLostPackets 	0
scalar IntersectionExampleScenario.node[595].nic.mac1609_4 	RXTXLostPackets 	0
scalar IntersectionExampleScenario.node[595].nic.mac1609_4 	TotalLostPackets 	0
scalar IntersectionExampleScenario.node[595].nic.mac1609_4 	DroppedPacketsInMac 	0
scalar IntersectionExampleScenario.node[595].nic.mac1609_4 	TooLittleTime 	0
scalar IntersectionExampleScenario.node[595].nic.mac1609_4 	TimesIntoBackoff 	0
scalar IntersectionExampleScenario.node[595].nic.mac1609_4 	SlotsBackoff 	0
scalar IntersectionExampleScenario.node[595].nic.mac1609_4 	NumInternalContention 	0
scalar IntersectionExampleScenario.node[595].nic.mac1609_4 	totalBusyTime 	0
scalar IntersectionExampleScenario.node[595].veinsmobility 	startTime 	1772.75
scalar IntersectionExampleScenario.node[595].veinsmobility 	totalTime 	27.25
scalar IntersectionExampleScenario.node[595].veinsmobility 	stopTime 	1800
scalar IntersectionExampleScenario.node[595].veinsmobility 	minSpeed 	1.1023321151733
scalar IntersectionExampleScenario.node[595].veinsmobility 	maxSpeed 	15.77361869812
scalar IntersectionExampleScenario.node[595].veinsmobility 	totalDistance 	272.35903930664
scalar IntersectionExampleScenario.node[595].veinsmobility 	totalCO2Emission 	67.920105820558
scalar IntersectionExampleScenario.node[596].appl 	VehicleRemoved 	0
scalar IntersectionExampleScenario.node[596].appl 	ArrivedAtDest 	0
scalar IntersectionExampleScenario.node[596].appl 	IntersectionEnterTime 	1779.25
scalar IntersectionExampleScenario.node[596].appl 	IntersectionExitTime 	-1
scalar IntersectionExampleScenario.node[596].appl 	NumberOfCollisions 	0
scalar IntersectionExampleScenario.node[596].nic.phy80211p 	busyTime 	0
scalar IntersectionExampleScenario.node[596].nic.mac1609_4 	ReceivedUnicastPackets 	0
scalar IntersectionExampleScenario.node[596].nic.mac1609_4 	ReceivedBroadcasts 	0
scalar IntersectionExampleScenario.node[596].nic.mac1609_4 	SentPackets 	0
scalar IntersectionExampleScenario.node[596].nic.mac1609_4 	SNIRLostPackets 	0
scalar IntersectionExampleScenario.node[596].nic.mac1609_4 	RXTXLostPackets 	0
scalar IntersectionExampleScenario.node[596].nic.mac1609_4 	TotalLostPackets 	0
scalar IntersectionExampleScenario.node[596].nic.mac1609_4 	DroppedPacketsInMac 	0
scalar IntersectionExampleScenario.node[596].nic.mac1609_4 	TooLittleTime 	0
scalar IntersectionExampleScenario.node[596].nic.mac1609_4 	TimesIntoBackoff 	0
scalar IntersectionExampleScenario.node[596].nic.mac1609_4 	SlotsBackoff 	0
scalar IntersectionExampleScenario.node[596].nic.mac1609_4 	NumInternalContention 	0
scalar IntersectionExampleScenario.node[596].nic.mac1609_4 	totalBusyTime 	0
scalar IntersectionExampleScenario.node[596].veinsmobility 	startTime 	1779.25
scalar IntersectionExampleScenario.node[596].veinsmobility 	totalTime 	20.75
scalar IntersectionExampleScenario.node[596].veinsmobility 	stopTime 	1800
scalar IntersectionExampleScenario.node[596].veinsmobility 	minSpeed 	5.6500000953674
scalar IntersectionExampleScenario.node[596].veinsmobility 	maxSpeed 	15.64999961853
scalar IntersectionExampleScenario.node[596].veinsmobility 	totalDistance 	286.67063140869
scalar IntersectionExampleScenario.node[596].veinsmobility 	totalCO2Emission 	65.080740536204
scalar IntersectionExampleScenario.node[597].appl 	VehicleRemoved 	0
scalar IntersectionExampleScenario.node[597].appl 	ArrivedAtDest 	0
scalar IntersectionExampleScenario.node[597].appl 	IntersectionEnterTime 	1780.5
scalar IntersectionExampleScenario.node[597].appl 	IntersectionExitTime 	-1
scalar IntersectionExampleScenario.node[597].appl 	NumberOfCollisions 	0
scalar IntersectionExampleScenario.node[597].nic.phy80211p 	busyTime 	0
scalar IntersectionExampleScenario.node[597].nic.mac1609_4 	ReceivedUnicastPackets 	0
scalar IntersectionExampleScenario.node[597].nic.mac1609_4 	ReceivedBroadcasts 	0
scalar IntersectionExampleScenario.node[597].nic.mac1609_4 	SentPackets 	0
scalar IntersectionExampleScenario.node[597].nic.mac1609_4 	SNIRLostPackets 	0
scalar IntersectionExampleScenario.node[597].nic.mac1609_4 	RXTXLostPackets 	0
scalar IntersectionExampleScenario.node[597].nic.mac1609_4 	TotalLostPackets 	0
scalar IntersectionExampleScenario.node[597].nic.mac1609_4 	DroppedPacketsInMac 	0
scalar IntersectionExampleScenario.node[597].nic.mac1609_4 	TooLittleTime 	0
scalar IntersectionExampleScenario.node[597].nic.mac1609_4 	TimesIntoBackoff 	0
scalar IntersectionExampleScenario.node[597].nic.mac1609_4 	SlotsBackoff 	0
scalar IntersectionExampleScenario.node[597].nic.mac1609_4 	NumInternalContention 	0
scalar IntersectionExampleScenario.node[597].nic.mac1609_4 	totalBusyTime 	0
scalar IntersectionExampleScenario.node[597].veinsmobility 	startTime 	1780.5
scalar IntersectionExampleScenario.node[597].veinsmobility 	totalTime 	19.5
scalar IntersectionExampleScenario.node[597].veinsmobility 	stopTime 	1800
scalar IntersectionExampleScenario.node[597].veinsmobility 	minSpeed 	4.3129181861877
scalar IntersectionExampleScenario.node[597].veinsmobility 	maxSpeed 	15.02499961853
scalar IntersectionExampleScenario.node[597].veinsmobility 	totalDistance 	221.4744644165
scalar IntersectionExampleScenario.node[597].veinsmobility 	totalCO2Emission 	51.912248028826
scalar IntersectionExampleScenario.node[598].appl 	VehicleRemoved 	0
scalar IntersectionExampleScenario.node[598].appl 	ArrivedAtDest 	0
scalar IntersectionExampleScenario.node[598].appl 	IntersectionEnterTime 	1784
scalar IntersectionExampleScenario.node[598].appl 	IntersectionExitTime 	-1
scalar IntersectionExampleScenario.node[598].appl 	NumberOfCollisions 	0
scalar IntersectionExampleScenario.node[598].nic.phy80211p 	busyTime 	0
scalar IntersectionExampleScenario.node[598].nic.mac1609_4 	ReceivedUnicastPackets 	0
scalar IntersectionExampleScenario.node[598].nic.mac1609_4 	ReceivedBroadcasts 	0
scalar IntersectionExampleScenario.node[598].nic.mac1609_4 	SentPackets 	0
scalar IntersectionExampleScenario.node[598].nic.mac1609_4 	SNIRLostPackets 	0
scalar IntersectionExampleScenario.node[598].nic.mac1609_4 	RXTXLostPackets 	0
scalar IntersectionExampleScenario.node[598].nic.mac1609_4 	TotalLostPackets 	0
scalar IntersectionExampleScenario.node[598].nic.mac1609_4 	DroppedPacketsInMac 	0
scalar IntersectionExampleScenario.node[598].nic.mac1609_4 	TooLittleTime 	0
scalar IntersectionExampleScenario.node[598].nic.mac1609_4 	TimesIntoBackoff 	0
scalar IntersectionExampleScenario.node[598].nic.mac1609_4 	SlotsBackoff 	0
scalar IntersectionExampleScenario.node[598].nic.mac1609_4 	NumInternalContention 	0
scalar IntersectionExampleScenario.node[598].nic.mac1609_4 	totalBusyTime 	0
scalar IntersectionExampleScenario.node[598].veinsmobility 	startTime 	1784
scalar IntersectionExampleScenario.node[598].veinsmobility 	totalTime 	16
scalar IntersectionExampleScenario.node[598].veinsmobility 	stopTime 	1800
scalar IntersectionExampleScenario.node[598].veinsmobility 	minSpeed 	5.6500000953674
scalar IntersectionExampleScenario.node[598].veinsmobility 	maxSpeed 	15.02499961853
scalar IntersectionExampleScenario.node[598].veinsmobility 	totalDistance 	211.17910766602
scalar IntersectionExampleScenario.node[598].veinsmobility 	totalCO2Emission 	52.28478110271
scalar IntersectionExampleScenario.node[599].appl 	VehicleRemoved 	0
scalar IntersectionExampleScenario.node[599].appl 	ArrivedAtDest 	0
scalar IntersectionExampleScenario.node[599].appl 	IntersectionEnterTime 	1785.75
scalar IntersectionExampleScenario.node[599].appl 	IntersectionExitTime 	-1
scalar IntersectionExampleScenario.node[599].appl 	NumberOfCollisions 	0
scalar IntersectionExampleScenario.node[599].nic.phy80211p 	busyTime 	0
scalar IntersectionExampleScenario.node[599].nic.mac1609_4 	ReceivedUnicastPackets 	0
scalar IntersectionExampleScenario.node[599].nic.mac1609_4 	ReceivedBroadcasts 	0
scalar IntersectionExampleScenario.node[599].nic.mac1609_4 	SentPackets 	0
scalar IntersectionExampleScenario.node[599].nic.mac1609_4 	SNIRLostPackets 	0
scalar IntersectionExampleScenario.node[599].nic.mac1609_4 	RXTXLostPackets 	0
scalar IntersectionExampleScenario.node[599].nic.mac1609_4 	TotalLostPackets 	0
scalar IntersectionExampleScenario.node[599].nic.mac1609_4 	DroppedPacketsInMac 	0
scalar IntersectionExampleScenario.node[599].nic.mac1609_4 	TooLittleTime 	0
scalar IntersectionExampleScenario.node[599].nic.mac1609_4 	TimesIntoBackoff 	0
scalar IntersectionExampleScenario.node[599].nic.mac1609_4 	SlotsBackoff 	0
scalar IntersectionExampleScenario.node[599].nic.mac1609_4 	NumInternalContention 	0
scalar IntersectionExampleScenario.node[599].nic.mac1609_4 	totalBusyTime 	0
scalar IntersectionExampleScenario.node[599].veinsmobility 	startTime 	1785.75
scalar IntersectionExampleScenario.node[599].veinsmobility 	totalTime 	14.25
scalar IntersectionExampleScenario.node[599].veinsmobility 	stopTime 	1800
scalar IntersectionExampleScenario.node[599].veinsmobility 	minSpeed 	5.6500000953674
scalar IntersectionExampleScenario.node[599].veinsmobility 	maxSpeed 	15.02499961853
scalar IntersectionExampleScenario.node[599].veinsmobility 	totalDistance 	184.84522247314
scalar IntersectionExampleScenario.node[599].veinsmobility 	totalCO2Emission 	46.16051257296
scalar IntersectionExampleScenario.node[600].appl 	VehicleRemoved 	0
scalar IntersectionExampleScenario.node[600].appl 	ArrivedAtDest 	0
scalar IntersectionExampleScenario.node[600].appl 	IntersectionEnterTime 	1785.75
scalar IntersectionExampleScenario.node[600].appl 	IntersectionExitTime 	-1
scalar IntersectionExampleScenario.node[600].appl 	NumberOfCollisions 	0
scalar IntersectionExampleScenario.node[600].nic.phy80211p 	busyTime 	0
scalar IntersectionExampleScenario.node[600].nic.mac1609_4 	ReceivedUnicastPackets 	0
scalar IntersectionExampleScenario.node[600].nic.mac1609_4 	ReceivedBroadcasts 	0
scalar IntersectionExampleScenario.node[600].nic.mac1609_4 	SentPackets 	0
scalar IntersectionExampleScenario.node[600].nic.mac1609_4 	SNIRLostPackets 	0
scalar IntersectionExampleScenario.node[600].nic.mac1609_4 	RXTXLostPackets 	0
scalar IntersectionExampleScenario.node[600].nic.mac1609_4 	TotalLostPackets 	0
scalar IntersectionExampleScenario.node[600].nic.mac1609_4 	DroppedPacketsInMac 	0
scalar IntersectionExampleScenario.node[600].nic.mac1609_4 	TooLittleTime 	0
scalar IntersectionExampleScenario.node[600].nic.mac1609_4 	TimesIntoBackoff 	0
scalar IntersectionExampleScenario.node[600].nic.mac1609_4 	SlotsBackoff 	0
scalar IntersectionExampleScenario.node[600].nic.mac1609_4 	NumInternalContention 	0
scalar IntersectionExampleScenario.node[600].nic.mac1609_4 	totalBusyTime 	0
scalar IntersectionExampleScenario.node[600].veinsmobility 	startTime 	1785.75
scalar IntersectionExampleScenario.node[600].veinsmobility 	totalTime 	14.25
scalar IntersectionExampleScenario.node[600].veinsmobility 	stopTime 	1800
scalar IntersectionExampleScenario.node[600].veinsmobility 	minSpeed 	5.6500000953674
scalar IntersectionExampleScenario.node[600].veinsmobility 	maxSpeed 	15.378365516663
scalar IntersectionExampleScenario.node[600].veinsmobility 	totalDistance 	196.43060302734
scalar IntersectionExampleScenario.node[600].veinsmobility 	totalCO2Emission 	53.360203085606
scalar IntersectionExampleScenario.node[601].appl 	VehicleRemoved 	0
scalar IntersectionExampleScenario.node[601].appl 	ArrivedAtDest 	0
scalar IntersectionExampleScenario.node[601].appl 	IntersectionEnterTime 	1796.25
scalar IntersectionExampleScenario.node[601].appl 	IntersectionExitTime 	-1
scalar IntersectionExampleScenario.node[601].appl 	NumberOfCollisions 	0
scalar IntersectionExampleScenario.node[601].nic.phy80211p 	busyTime 	0
scalar IntersectionExampleScenario.node[601].nic.mac1609_4 	ReceivedUnicastPackets 	0
scalar IntersectionExampleScenario.node[601].nic.mac1609_4 	ReceivedBroadcasts 	0
scalar IntersectionExampleScenario.node[601].nic.mac1609_4 	SentPackets 	0
scalar IntersectionExampleScenario.node[601].nic.mac1609_4 	SNIRLostPackets 	0
scalar IntersectionExampleScenario.node[601].nic.mac1609_4 	RXTXLostPackets 	0
scalar IntersectionExampleScenario.node[601].nic.mac1609_4 	TotalLostPackets 	0
scalar IntersectionExampleScenario.node[601].nic.mac1609_4 	DroppedPacketsInMac 	0
scalar IntersectionExampleScenario.node[601].nic.mac1609_4 	TooLittleTime 	0
scalar IntersectionExampleScenario.node[601].nic.mac1609_4 	TimesIntoBackoff 	0
scalar IntersectionExampleScenario.node[601].nic.mac1609_4 	SlotsBackoff 	0
scalar IntersectionExampleScenario.node[601].nic.mac1609_4 	NumInternalContention 	0
scalar IntersectionExampleScenario.node[601].nic.mac1609_4 	totalBusyTime 	0
scalar IntersectionExampleScenario.node[601].veinsmobility 	startTime 	1796.25
scalar IntersectionExampleScenario.node[601].veinsmobility 	totalTime 	3.75
scalar IntersectionExampleScenario.node[601].veinsmobility 	stopTime 	1800
scalar IntersectionExampleScenario.node[601].veinsmobility 	minSpeed 	5.6500000953674
scalar IntersectionExampleScenario.node[601].veinsmobility 	maxSpeed 	14.39999961853
scalar IntersectionExampleScenario.node[601].veinsmobility 	totalDistance 	36.421867370605
scalar IntersectionExampleScenario.node[601].veinsmobility 	totalCO2Emission 	27.850414058068
scalar IntersectionExampleScenario.node[602].appl 	VehicleRemoved 	0
scalar IntersectionExampleScenario.node[602].appl 	ArrivedAtDest 	0
scalar IntersectionExampleScenario.node[602].appl 	IntersectionEnterTime 	1797.25
scalar IntersectionExampleScenario.node[602].appl 	IntersectionExitTime 	-1
scalar IntersectionExampleScenario.node[602].appl 	NumberOfCollisions 	0
scalar IntersectionExampleScenario.node[602].nic.phy80211p 	busyTime 	0
scalar IntersectionExampleScenario.node[602].nic.mac1609_4 	ReceivedUnicastPackets 	0
scalar IntersectionExampleScenario.node[602].nic.mac1609_4 	ReceivedBroadcasts 	0
scalar IntersectionExampleScenario.node[602].nic.mac1609_4 	SentPackets 	0
scalar IntersectionExampleScenario.node[602].nic.mac1609_4 	SNIRLostPackets 	0
scalar IntersectionExampleScenario.node[602].nic.mac1609_4 	RXTXLostPackets 	0
scalar IntersectionExampleScenario.node[602].nic.mac1609_4 	TotalLostPackets 	0
scalar IntersectionExampleScenario.node[602].nic.mac1609_4 	DroppedPacketsInMac 	0
scalar IntersectionExampleScenario.node[602].nic.mac1609_4 	TooLittleTime 	0
scalar IntersectionExampleScenario.node[602].nic.mac1609_4 	TimesIntoBackoff 	0
scalar IntersectionExampleScenario.node[602].nic.mac1609_4 	SlotsBackoff 	0
scalar IntersectionExampleScenario.node[602].nic.mac1609_4 	NumInternalContention 	0
scalar IntersectionExampleScenario.node[602].nic.mac1609_4 	totalBusyTime 	0
scalar IntersectionExampleScenario.node[602].veinsmobility 	startTime 	1797.25
scalar IntersectionExampleScenario.node[602].veinsmobility 	totalTime 	2.75
scalar IntersectionExampleScenario.node[602].veinsmobility 	stopTime 	1800
scalar IntersectionExampleScenario.node[602].veinsmobility 	minSpeed 	5.6500000953674
scalar IntersectionExampleScenario.node[602].veinsmobility 	maxSpeed 	11.89999961853
scalar IntersectionExampleScenario.node[602].veinsmobility 	totalDistance 	23.271858215332
scalar IntersectionExampleScenario.node[602].veinsmobility 	totalCO2Emission 	17.752607434053
scalar IntersectionExampleScenario.node[603].appl 	VehicleRemoved 	0
scalar IntersectionExampleScenario.node[603].appl 	ArrivedAtDest 	0
scalar IntersectionExampleScenario.node[603].appl 	IntersectionEnterTime 	1800
scalar IntersectionExampleScenario.node[603].appl 	IntersectionExitTime 	-1
scalar IntersectionExampleScenario.node[603].appl 	NumberOfCollisions 	0
scalar IntersectionExampleScenario.node[603].nic.phy80211p 	busyTime 	nan
scalar IntersectionExampleScenario.node[603].nic.mac1609_4 	ReceivedUnicastPackets 	0
scalar IntersectionExampleScenario.node[603].nic.mac1609_4 	ReceivedBroadcasts 	0
scalar IntersectionExampleScenario.node[603].nic.mac1609_4 	SentPackets 	0
scalar IntersectionExampleScenario.node[603].nic.mac1609_4 	SNIRLostPackets 	0
scalar IntersectionExampleScenario.node[603].nic.mac1609_4 	RXTXLostPackets 	0
scalar IntersectionExampleScenario.node[603].nic.mac1609_4 	TotalLostPackets 	0
scalar IntersectionExampleScenario.node[603].nic.mac1609_4 	DroppedPacketsInMac 	0
scalar IntersectionExampleScenario.node[603].nic.mac1609_4 	TooLittleTime 	0
scalar IntersectionExampleScenario.node[603].nic.mac1609_4 	TimesIntoBackoff 	0
scalar IntersectionExampleScenario.node[603].nic.mac1609_4 	SlotsBackoff 	0
scalar IntersectionExampleScenario.node[603].nic.mac1609_4 	NumInternalContention 	0
scalar IntersectionExampleScenario.node[603].nic.mac1609_4 	totalBusyTime 	0
scalar IntersectionExampleScenario.node[603].veinsmobility 	startTime 	1800
scalar IntersectionExampleScenario.node[603].veinsmobility 	totalTime 	0
scalar IntersectionExampleScenario.node[603].veinsmobility 	stopTime 	1800
scalar IntersectionExampleScenario.node[603].veinsmobility 	totalDistance 	0
scalar IntersectionExampleScenario.node[603].veinsmobility 	totalCO2Emission 	0
