file 28826850 1591421698                                        
version 2
run nodebug-3-20200606-01:29:39-22484
attr configname nodebug
attr datetime 20200606-01:29:39
attr experiment nodebug
attr inifile omnetpp.ini
attr iterationvars ""
attr iterationvars2 $repetition=3
attr measurement ""
attr network "\"org.car2x.veins.modules.application.ExtTraCIScenarioManagerLaunchd.IntersectionExampleScenario\""
attr processid 22484
attr repetition 3
attr replication #3
attr resultdir results
attr runnumber 3
attr seedset 3
param **.coreDebug false
param **.debug false
param *.**.nic.mac1609_4.bitrate 18Mbps
param *.**.nic.mac1609_4.txPower 20mW
param *.**.nic.mac1609_4.useServiceChannel false
param *.**.nic.phy80211p.analogueModels "xmldoc(\"config.xml\")"
param *.**.nic.phy80211p.decider "xmldoc(\"config.xml\")"
param *.**.nic.phy80211p.sensitivity -89dBm
param *.**.nic.phy80211p.thermalNoise -110dBm
param *.**.nic.phy80211p.usePropagationDelay true
param *.**.nic.phy80211p.useThermalNoise true
param *.annotations.draw false
param *.connectionManager.alpha 2.0
param *.connectionManager.carrierFrequency "5.890e9 Hz"
param *.connectionManager.pMax 20mW
param *.connectionManager.sat -89dBm
param *.connectionManager.sendDirect true
param *.manager.autoShutdown true
param *.manager.host "\"localhost\""
param *.manager.launchConfig "xmldoc(\"paramics.launchd.xml\")"
param *.manager.margin 25
param *.manager.moduleDisplayString "\"\""
param *.manager.moduleName "\"node\""
param *.manager.moduleType "\"org.car2x.veins.nodes.Car\""
param *.manager.port 9999
param *.manager.updateInterval 250ms
param *.node[*0].veinsmobility.accidentCount 0
param *.node[*0].veinsmobility.accidentDuration 30s
param *.node[*0].veinsmobility.accidentStart 75s
param *.node[*].appl.LiderSelectZoneRadio 55.0
param *.node[*].appl.ShareDataZoneRadio 110.0
param *.node[*].appl.TiempoSemaforo 30.0
param *.node[*].appl.beaconInterval 1s
param *.node[*].appl.beaconPriority 3
param *.node[*].appl.dataOnSch false
param *.node[*].appl.dataPriority 2
param *.node[*].appl.debug false
param *.node[*].appl.headerLength "256 bit"
param *.node[*].appl.maxOffset 0.005s
param *.node[*].appl.sendBeacons false
param *.node[*].appl.sendData true
param *.node[*].applType "\"Dummy\""
param *.node[*].mobilityType "\"TraCIMobility\""
param *.node[*].mobilityType.debug true
param *.node[*].veinsmobility.x 0
param *.node[*].veinsmobility.y 0
param *.node[*].veinsmobility.z 1.895
param *.node[*].veinsmobilityType "\"org.car2x.veins.modules.mobility.traci.TraCIMobility\""
param *.node[*].veinsmobilityType.debug true
param *.playgroundSizeX 8500m
param *.playgroundSizeY 8500m
param *.playgroundSizeZ 50m
param *.world.use2D false
param *.world.useTorus false

vector 6  IntersectionExampleScenario.manager  vehiclesinsim  ETV
attr type  int
vector 7  IntersectionExampleScenario.manager  realtime  ETV
attr type  int
attr unit  s
vector 10  IntersectionExampleScenario.node[0].veinsmobility  posx  ETV
vector 11  IntersectionExampleScenario.node[0].veinsmobility  posy  ETV
vector 12  IntersectionExampleScenario.node[0].veinsmobility  speed  ETV
vector 13  IntersectionExampleScenario.node[0].veinsmobility  acceleration  ETV
vector 14  IntersectionExampleScenario.node[0].veinsmobility  co2emission  ETV
vector 17  IntersectionExampleScenario.node[1].veinsmobility  posx  ETV
vector 18  IntersectionExampleScenario.node[1].veinsmobility  posy  ETV
vector 19  IntersectionExampleScenario.node[1].veinsmobility  speed  ETV
vector 20  IntersectionExampleScenario.node[1].veinsmobility  acceleration  ETV
vector 21  IntersectionExampleScenario.node[1].veinsmobility  co2emission  ETV
vector 24  IntersectionExampleScenario.node[2].veinsmobility  posx  ETV
vector 25  IntersectionExampleScenario.node[2].veinsmobility  posy  ETV
vector 26  IntersectionExampleScenario.node[2].veinsmobility  speed  ETV
vector 27  IntersectionExampleScenario.node[2].veinsmobility  acceleration  ETV
vector 28  IntersectionExampleScenario.node[2].veinsmobility  co2emission  ETV
vector 31  IntersectionExampleScenario.node[3].veinsmobility  posx  ETV
vector 32  IntersectionExampleScenario.node[3].veinsmobility  posy  ETV
vector 33  IntersectionExampleScenario.node[3].veinsmobility  speed  ETV
vector 38  IntersectionExampleScenario.node[4].veinsmobility  posx  ETV
vector 39  IntersectionExampleScenario.node[4].veinsmobility  posy  ETV
vector 34  IntersectionExampleScenario.node[3].veinsmobility  acceleration  ETV
vector 35  IntersectionExampleScenario.node[3].veinsmobility  co2emission  ETV
vector 40  IntersectionExampleScenario.node[4].veinsmobility  speed  ETV
vector 41  IntersectionExampleScenario.node[4].veinsmobility  acceleration  ETV
vector 42  IntersectionExampleScenario.node[4].veinsmobility  co2emission  ETV
vector 45  IntersectionExampleScenario.node[5].veinsmobility  posx  ETV
vector 46  IntersectionExampleScenario.node[5].veinsmobility  posy  ETV
vector 47  IntersectionExampleScenario.node[5].veinsmobility  speed  ETV
vector 48  IntersectionExampleScenario.node[5].veinsmobility  acceleration  ETV
vector 49  IntersectionExampleScenario.node[5].veinsmobility  co2emission  ETV
vector 52  IntersectionExampleScenario.node[6].veinsmobility  posx  ETV
vector 53  IntersectionExampleScenario.node[6].veinsmobility  posy  ETV
vector 59  IntersectionExampleScenario.node[7].veinsmobility  posx  ETV
vector 60  IntersectionExampleScenario.node[7].veinsmobility  posy  ETV
vector 54  IntersectionExampleScenario.node[6].veinsmobility  speed  ETV
vector 61  IntersectionExampleScenario.node[7].veinsmobility  speed  ETV
vector 55  IntersectionExampleScenario.node[6].veinsmobility  acceleration  ETV
vector 56  IntersectionExampleScenario.node[6].veinsmobility  co2emission  ETV
vector 62  IntersectionExampleScenario.node[7].veinsmobility  acceleration  ETV
vector 63  IntersectionExampleScenario.node[7].veinsmobility  co2emission  ETV
vector 66  IntersectionExampleScenario.node[8].veinsmobility  posx  ETV
vector 67  IntersectionExampleScenario.node[8].veinsmobility  posy  ETV
vector 68  IntersectionExampleScenario.node[8].veinsmobility  speed  ETV
vector 69  IntersectionExampleScenario.node[8].veinsmobility  acceleration  ETV
vector 70  IntersectionExampleScenario.node[8].veinsmobility  co2emission  ETV
vector 73  IntersectionExampleScenario.node[9].veinsmobility  posx  ETV
vector 74  IntersectionExampleScenario.node[9].veinsmobility  posy  ETV
vector 75  IntersectionExampleScenario.node[9].veinsmobility  speed  ETV
vector 76  IntersectionExampleScenario.node[9].veinsmobility  acceleration  ETV
vector 77  IntersectionExampleScenario.node[9].veinsmobility  co2emission  ETV
vector 80  IntersectionExampleScenario.node[10].veinsmobility  posx  ETV
vector 81  IntersectionExampleScenario.node[10].veinsmobility  posy  ETV
vector 82  IntersectionExampleScenario.node[10].veinsmobility  speed  ETV
vector 83  IntersectionExampleScenario.node[10].veinsmobility  acceleration  ETV
vector 84  IntersectionExampleScenario.node[10].veinsmobility  co2emission  ETV
vector 87  IntersectionExampleScenario.node[11].veinsmobility  posx  ETV
vector 88  IntersectionExampleScenario.node[11].veinsmobility  posy  ETV
vector 89  IntersectionExampleScenario.node[11].veinsmobility  speed  ETV
vector 90  IntersectionExampleScenario.node[11].veinsmobility  acceleration  ETV
vector 91  IntersectionExampleScenario.node[11].veinsmobility  co2emission  ETV
vector 94  IntersectionExampleScenario.node[12].veinsmobility  posx  ETV
vector 95  IntersectionExampleScenario.node[12].veinsmobility  posy  ETV
vector 96  IntersectionExampleScenario.node[12].veinsmobility  speed  ETV
vector 97  IntersectionExampleScenario.node[12].veinsmobility  acceleration  ETV
vector 98  IntersectionExampleScenario.node[12].veinsmobility  co2emission  ETV
vector 101  IntersectionExampleScenario.node[13].veinsmobility  posx  ETV
vector 102  IntersectionExampleScenario.node[13].veinsmobility  posy  ETV
vector 103  IntersectionExampleScenario.node[13].veinsmobility  speed  ETV
vector 104  IntersectionExampleScenario.node[13].veinsmobility  acceleration  ETV
vector 105  IntersectionExampleScenario.node[13].veinsmobility  co2emission  ETV
vector 108  IntersectionExampleScenario.node[14].veinsmobility  posx  ETV
vector 109  IntersectionExampleScenario.node[14].veinsmobility  posy  ETV
vector 110  IntersectionExampleScenario.node[14].veinsmobility  speed  ETV
vector 111  IntersectionExampleScenario.node[14].veinsmobility  acceleration  ETV
vector 112  IntersectionExampleScenario.node[14].veinsmobility  co2emission  ETV
vector 115  IntersectionExampleScenario.node[15].veinsmobility  posx  ETV
vector 116  IntersectionExampleScenario.node[15].veinsmobility  posy  ETV
vector 117  IntersectionExampleScenario.node[15].veinsmobility  speed  ETV
vector 118  IntersectionExampleScenario.node[15].veinsmobility  acceleration  ETV
vector 119  IntersectionExampleScenario.node[15].veinsmobility  co2emission  ETV
vector 122  IntersectionExampleScenario.node[16].veinsmobility  posx  ETV
vector 123  IntersectionExampleScenario.node[16].veinsmobility  posy  ETV
vector 124  IntersectionExampleScenario.node[16].veinsmobility  speed  ETV
vector 125  IntersectionExampleScenario.node[16].veinsmobility  acceleration  ETV
vector 126  IntersectionExampleScenario.node[16].veinsmobility  co2emission  ETV
28	9454 4459 187 3839 14.5 52.75 154 0.973 11.648172402475 472.37063277033 2468.6221642102
27	13913 3987 187 3839 14.5 52.75 154 -3.3639030456543 2.5 38.511121749878 193.75141553485
26	17900 4362 180 3839 14.25 52.75 155 5.6500000953674 15.64999961853 2221.424943924 32483.242225398
25	22262 4595 173 3839 14 52.75 156 184.17810058594 734.3458404541 70055.718383789 35615242.946009
24	26857 4624 173 3839 14 52.75 156 486.85000610352 486.85000610352 75948.600952148 36975576.837107
vector 129  IntersectionExampleScenario.node[17].veinsmobility  posx  ETV
vector 130  IntersectionExampleScenario.node[17].veinsmobility  posy  ETV
vector 131  IntersectionExampleScenario.node[17].veinsmobility  speed  ETV
vector 132  IntersectionExampleScenario.node[17].veinsmobility  acceleration  ETV
vector 133  IntersectionExampleScenario.node[17].veinsmobility  co2emission  ETV
vector 136  IntersectionExampleScenario.node[18].veinsmobility  posx  ETV
vector 137  IntersectionExampleScenario.node[18].veinsmobility  posy  ETV
vector 138  IntersectionExampleScenario.node[18].veinsmobility  speed  ETV
vector 139  IntersectionExampleScenario.node[18].veinsmobility  acceleration  ETV
vector 140  IntersectionExampleScenario.node[18].veinsmobility  co2emission  ETV
vector 143  IntersectionExampleScenario.node[19].veinsmobility  posx  ETV
vector 144  IntersectionExampleScenario.node[19].veinsmobility  posy  ETV
vector 145  IntersectionExampleScenario.node[19].veinsmobility  speed  ETV
vector 146  IntersectionExampleScenario.node[19].veinsmobility  acceleration  ETV
vector 147  IntersectionExampleScenario.node[19].veinsmobility  co2emission  ETV
vector 150  IntersectionExampleScenario.node[20].veinsmobility  posx  ETV
vector 151  IntersectionExampleScenario.node[20].veinsmobility  posy  ETV
vector 152  IntersectionExampleScenario.node[20].veinsmobility  speed  ETV
vector 153  IntersectionExampleScenario.node[20].veinsmobility  acceleration  ETV
vector 154  IntersectionExampleScenario.node[20].veinsmobility  co2emission  ETV
vector 157  IntersectionExampleScenario.node[21].veinsmobility  posx  ETV
vector 158  IntersectionExampleScenario.node[21].veinsmobility  posy  ETV
vector 159  IntersectionExampleScenario.node[21].veinsmobility  speed  ETV
vector 160  IntersectionExampleScenario.node[21].veinsmobility  acceleration  ETV
vector 161  IntersectionExampleScenario.node[21].veinsmobility  co2emission  ETV
105	33436 5161 1918 7683 37.5 80.25 172 0.973 10.756497587458 475.59765661231 2224.253999029
104	38597 4665 1918 7683 37.5 80.25 172 -3.4046306610107 2.5 32.569761276245 238.32052295311
103	43262 5057 1891 7683 37.25 80.25 173 5.6500000953674 14.39999961853 2191.9752802849 28680.00059387
102	48319 5370 1864 7683 37 80.25 174 184.17810058594 483.14999389648 69347.949554443 29477287.838727
101	53689 5382 1864 7683 37 80.25 174 486.85000610352 735.6432800293 93890.835388184 51700566.856911
35	59071 6585 254 7831 16.75 81.25 259 0.973 12.099024792222 644.85305807716 3143.2427368687
34	65656 6289 254 7831 16.75 81.25 259 -9.2126970291138 4 38.069681167603 517.06323389488
33	71945 6355 245 7831 16.5 81.25 260 0 16.27499961853 2212.4520401955 31176.617129204
32	78300 7784 236 7831 16.25 81.25 261 483.14999389648 483.14999389648 126102.14840698 60926252.233167
31	86084 7747 236 7831 16.25 81.25 261 184.17810058594 733.30345153809 120439.179245 59834547.89932
63	93831 6859 482 8127 21.25 83.25 249 0.973 11.200708441096 592.61377786125 2546.5016934142
62	100690 7659 482 8127 21.25 83.25 249 -3.9357173442841 2.5 35.795095443726 317.34274357979
61	108349 7354 465 8127 21 83.25 250 0 15.02499961853 2220.5218207585 29202.462616234
60	115703 7501 448 8127 20.75 83.25 251 483.14999389648 483.14999389648 121270.64846802 58591913.067145
59	123204 7460 448 8127 20.75 83.25 251 184.17810058594 734.77496337891 114021.52297974 56114175.893806
vector 164  IntersectionExampleScenario.node[22].veinsmobility  posx  ETV
vector 165  IntersectionExampleScenario.node[22].veinsmobility  posy  ETV
vector 166  IntersectionExampleScenario.node[22].veinsmobility  speed  ETV
vector 167  IntersectionExampleScenario.node[22].veinsmobility  acceleration  ETV
vector 168  IntersectionExampleScenario.node[22].veinsmobility  co2emission  ETV
vector 171  IntersectionExampleScenario.node[23].veinsmobility  posx  ETV
vector 172  IntersectionExampleScenario.node[23].veinsmobility  posy  ETV
vector 173  IntersectionExampleScenario.node[23].veinsmobility  speed  ETV
vector 174  IntersectionExampleScenario.node[23].veinsmobility  acceleration  ETV
vector 175  IntersectionExampleScenario.node[23].veinsmobility  co2emission  ETV
vector 178  IntersectionExampleScenario.node[24].veinsmobility  posx  ETV
vector 179  IntersectionExampleScenario.node[24].veinsmobility  posy  ETV
vector 180  IntersectionExampleScenario.node[24].veinsmobility  speed  ETV
vector 181  IntersectionExampleScenario.node[24].veinsmobility  acceleration  ETV
vector 182  IntersectionExampleScenario.node[24].veinsmobility  co2emission  ETV
vector 185  IntersectionExampleScenario.node[25].veinsmobility  posx  ETV
vector 186  IntersectionExampleScenario.node[25].veinsmobility  posy  ETV
vector 187  IntersectionExampleScenario.node[25].veinsmobility  speed  ETV
vector 192  IntersectionExampleScenario.node[26].veinsmobility  posx  ETV
vector 193  IntersectionExampleScenario.node[26].veinsmobility  posy  ETV
vector 188  IntersectionExampleScenario.node[25].veinsmobility  acceleration  ETV
vector 189  IntersectionExampleScenario.node[25].veinsmobility  co2emission  ETV
vector 194  IntersectionExampleScenario.node[26].veinsmobility  speed  ETV
vector 195  IntersectionExampleScenario.node[26].veinsmobility  acceleration  ETV
vector 196  IntersectionExampleScenario.node[26].veinsmobility  co2emission  ETV
vector 199  IntersectionExampleScenario.node[27].veinsmobility  posx  ETV
vector 200  IntersectionExampleScenario.node[27].veinsmobility  posy  ETV
vector 201  IntersectionExampleScenario.node[27].veinsmobility  speed  ETV
vector 206  IntersectionExampleScenario.node[28].veinsmobility  posx  ETV
vector 207  IntersectionExampleScenario.node[28].veinsmobility  posy  ETV
vector 202  IntersectionExampleScenario.node[27].veinsmobility  acceleration  ETV
vector 203  IntersectionExampleScenario.node[27].veinsmobility  co2emission  ETV
vector 208  IntersectionExampleScenario.node[28].veinsmobility  speed  ETV
vector 209  IntersectionExampleScenario.node[28].veinsmobility  acceleration  ETV
vector 210  IntersectionExampleScenario.node[28].veinsmobility  co2emission  ETV
vector 213  IntersectionExampleScenario.node[29].veinsmobility  posx  ETV
vector 214  IntersectionExampleScenario.node[29].veinsmobility  posy  ETV
vector 215  IntersectionExampleScenario.node[29].veinsmobility  speed  ETV
vector 216  IntersectionExampleScenario.node[29].veinsmobility  acceleration  ETV
vector 217  IntersectionExampleScenario.node[29].veinsmobility  co2emission  ETV
vector 220  IntersectionExampleScenario.node[30].veinsmobility  posx  ETV
vector 221  IntersectionExampleScenario.node[30].veinsmobility  posy  ETV
vector 222  IntersectionExampleScenario.node[30].veinsmobility  speed  ETV
vector 223  IntersectionExampleScenario.node[30].veinsmobility  acceleration  ETV
vector 224  IntersectionExampleScenario.node[30].veinsmobility  co2emission  ETV
vector 227  IntersectionExampleScenario.node[31].veinsmobility  posx  ETV
vector 228  IntersectionExampleScenario.node[31].veinsmobility  posy  ETV
vector 229  IntersectionExampleScenario.node[31].veinsmobility  speed  ETV
vector 230  IntersectionExampleScenario.node[31].veinsmobility  acceleration  ETV
vector 231  IntersectionExampleScenario.node[31].veinsmobility  co2emission  ETV
14	134574 10075 18 12578 3.25 110.75 431 0.973 11.200708441096 773.34845879132 2863.7499408201
13	144649 8522 18 12578 3.25 110.75 431 -8.6476802825928 4 35.795072555542 472.97505521195
12	153171 8962 15 12578 3 110.75 432 0 15.02499961853 2171.2141442299 29466.991903709
11	162133 12931 12 12578 2.75 110.75 433 486.63604736328 785.82187652588 228112.97382355 122510268.71165
10	175064 12874 12 12578 2.75 110.75 433 238.08221435547 483.14999389648 200763.18682861 94296615.1864
21	187938 10256 118 13051 11.25 113.5 410 0.973 11.200708441096 744.47299538196 2790.1834060348
20	198194 10259 118 13051 11.25 113.5 410 -3.8456094264984 2.5 35.625318527222 309.33147558412
19	208453 10171 113 13051 11 113.5 411 0 15.02499961853 2175.8627243657 27688.258395199
18	218624 12263 108 13051 10.75 113.5 412 486.77197265625 785.82187652588 219835.02042389 119515850.32877
17	230887 12412 108 13051 10.75 113.5 412 238.46160888672 483.14999389648 190619.3538208 89394301.450576
49	243299 9750 357 13094 19 113.75 380 0.973 11.990504229548 761.16159074344 3287.8424530725
48	253049 9816 357 13094 19 113.75 380 -3.9051122665405 2.5 41.396924972534 353.84015767644
47	262865 9957 344 13094 18.75 113.75 381 0 16.125 2213.1596930111 29635.748457506
46	272822 11517 331 13094 18.5 113.75 382 237.55389404297 785.82187652588 198239.21282196 106925795.33498
45	284339 11554 331 13094 18.5 113.75 382 483.14999389648 483.14999389648 184563.29766846 89171756.14203
vector 234  IntersectionExampleScenario.node[32].veinsmobility  posx  ETV
vector 235  IntersectionExampleScenario.node[32].veinsmobility  posy  ETV
vector 236  IntersectionExampleScenario.node[32].veinsmobility  speed  ETV
vector 237  IntersectionExampleScenario.node[32].veinsmobility  acceleration  ETV
vector 238  IntersectionExampleScenario.node[32].veinsmobility  co2emission  ETV
70	296284 10364 605 14037 23 119 385 0.973 10.916047529558 723.21745407662 2732.7355252982
69	306648 10492 605 14037 23 119 385 -4.5 2.5 34.267293930054 403.0685205736
68	317140 10426 586 14037 22.75 119 386 0 14.625 2216.6675505582 27682.154439027
67	327566 11739 567 14037 22.5 119 387 486.83139038086 792.02188110352 210537.51243591 116740546.79799
66	339305 11748 567 14037 22.5 119 387 234.80072021484 483.14999389648 178094.01818848 83222146.574447
112	351053 9304 2030 14263 38.5 120.25 328 0.973 11.200708441096 686.08310946299 2892.6436065648
111	360357 9674 2030 14263 38.5 120.25 328 -5.7608909606934 2.5 35.964826583862 363.47652419264
110	370031 9692 2001 14263 38.25 120.25 329 0 15.02499961853 2212.1760453703 27904.854224745
109	379723 10377 1972 14263 38 120.25 330 482.9553527832 785.82187652588 181405.38503265 101709338.92258
108	390100 10397 1972 14263 38 120.25 330 483.14999389648 734.6109161377 168268.75114441 87045818.163487
vector 241  IntersectionExampleScenario.node[33].veinsmobility  posx  ETV
vector 242  IntersectionExampleScenario.node[33].veinsmobility  posy  ETV
vector 243  IntersectionExampleScenario.node[33].veinsmobility  speed  ETV
126	400723 8642 3014 14535 46.5 121.75 302 0.973 11.093806525473 637.19140352177 2696.6115139679
125	409365 9337 3014 14535 46.5 121.75 302 -3.8020462989807 2.5 34.94630241394 315.11290958309
124	418702 9310 2981 14535 46.25 121.75 303 0 14.875 2212.3777797315 27341.894928288
123	428012 9567 2948 14535 46 121.75 304 237.88989257812 785.82187652588 160601.05314636 89190494.413314
122	437579 9619 2948 14535 46 121.75 304 483.14999389648 483.14999389648 146877.59814453 70963910.64706
vector 244  IntersectionExampleScenario.node[33].veinsmobility  acceleration  ETV
vector 245  IntersectionExampleScenario.node[33].veinsmobility  co2emission  ETV
vector 248  IntersectionExampleScenario.node[34].veinsmobility  posx  ETV
vector 249  IntersectionExampleScenario.node[34].veinsmobility  posy  ETV
vector 250  IntersectionExampleScenario.node[34].veinsmobility  speed  ETV
vector 251  IntersectionExampleScenario.node[34].veinsmobility  acceleration  ETV
vector 252  IntersectionExampleScenario.node[34].veinsmobility  co2emission  ETV
168	447754 4988 8427 15202 85.25 125.25 161 0.973 11.403165615349 511.46947810195 2857.4554746111
167	452742 4737 8427 15202 85.25 125.25 161 -3.2509460449219 2.5 36.813589096069 258.20827688161
166	457479 4970 8388 15202 85 125.25 162 5.6500000953674 15.308358192444 2212.8128118515 31037.278232947
165	462449 5268 8349 15202 84.75 125.25 163 483.14999389648 785.82187652588 93155.290931702 55042213.009898
164	467717 5271 8349 15202 84.75 125.25 163 483.14999389648 734.52709960938 87461.893234253 47923739.082518
vector 255  IntersectionExampleScenario.node[35].veinsmobility  posx  ETV
vector 256  IntersectionExampleScenario.node[35].veinsmobility  posy  ETV
vector 257  IntersectionExampleScenario.node[35].veinsmobility  speed  ETV
vector 258  IntersectionExampleScenario.node[35].veinsmobility  acceleration  ETV
vector 259  IntersectionExampleScenario.node[35].veinsmobility  co2emission  ETV
vector 262  IntersectionExampleScenario.node[36].veinsmobility  posx  ETV
vector 263  IntersectionExampleScenario.node[36].veinsmobility  posy  ETV
vector 269  IntersectionExampleScenario.node[37].veinsmobility  posx  ETV
vector 270  IntersectionExampleScenario.node[37].veinsmobility  posy  ETV
vector 264  IntersectionExampleScenario.node[36].veinsmobility  speed  ETV
vector 265  IntersectionExampleScenario.node[36].veinsmobility  acceleration  ETV
vector 266  IntersectionExampleScenario.node[36].veinsmobility  co2emission  ETV
vector 271  IntersectionExampleScenario.node[37].veinsmobility  speed  ETV
vector 272  IntersectionExampleScenario.node[37].veinsmobility  acceleration  ETV
vector 273  IntersectionExampleScenario.node[37].veinsmobility  co2emission  ETV
196	474161 5038 10898 17858 100.75 140 158 0.973 11.810082123732 513.43619907667 2875.6901887968
195	479199 4648 10898 17858 100.75 140 158 -3.2696113586426 2.5 39.529638290405 284.07429327694
194	483847 4916 10857 17858 100.5 140 159 5.6500000953674 15.875 2188.4402418137 31584.250986053
193	488763 5275 10816 17858 100.25 140 160 486.85000610352 785.82187652588 91574.494667053 54143684.307907
192	494038 5271 10816 17858 100.25 140 160 235.67498779297 483.14999389648 69186.786682129 30839536.155566
42	499309 11650 276 18011 17.25 141 496 0.973 11.90022389248 868.49565338356 3354.852829325
41	510959 10058 276 18011 17.25 141 496 -8.013355255127 4 39.529638290405 491.35818162182
40	521017 10271 265 18011 17 141 497 0 16 2201.7318792343 31602.528258395
39	531288 15236 254 18011 16.75 141 498 236.87365722656 486.85000610352 234205.24157715 111381510.31974
38	546524 15234 254 18011 16.75 141 498 483.14999389648 785.82187652588 259830.45050812 137908370.14356
vector 276  IntersectionExampleScenario.node[38].veinsmobility  posx  ETV
vector 277  IntersectionExampleScenario.node[38].veinsmobility  posy  ETV
vector 278  IntersectionExampleScenario.node[38].veinsmobility  speed  ETV
vector 279  IntersectionExampleScenario.node[38].veinsmobility  acceleration  ETV
vector 280  IntersectionExampleScenario.node[38].veinsmobility  co2emission  ETV
56	562149 12066 482 18391 21.25 143.5 490 0.973 11.90022389248 871.09870158987 3362.7683900428
55	574215 11045 482 18391 21.25 143.5 490 -4.5 2.5000004768372 40.548154830933 446.19703153123
54	585260 11226 465 18391 21 143.5 491 0 16 2224.2485076319 31801.196740078
53	596486 15095 448 18391 20.75 143.5 492 238.31439208984 486.85000610352 231490.47369385 110116352.47493
52	611581 15075 448 18391 20.75 143.5 492 482.96038818359 792.02188110352 259461.41220856 139187527.61989
77	626656 11933 894 18757 26.75 146 478 0.973 11.648172402475 844.05222488818 3269.0462102769
76	638589 11590 894 18757 26.75 146 478 -3.7195179462433 2.5 38.341367721558 350.78647756198
75	650179 11712 873 18757 26.5 146 479 0 15.64999961853 2214.3563043205 29195.352172207
74	661891 14782 852 18757 26.25 146 480 486.85000610352 486.85000610352 233688.00292969 113771005.65264
73	676673 14746 852 18757 26.25 146 480 237.10107421875 785.82187652588 247790.02779388 132086613.50096
vector 283  IntersectionExampleScenario.node[39].veinsmobility  posx  ETV
vector 284  IntersectionExampleScenario.node[39].veinsmobility  posy  ETV
84	691569 12722 961 19162 27.5 149 487 0.973 11.882693917199 894.60341578485 3526.5496844603
83	704291 12395 961 19162 27.5 149 487 -4.5 2.5000019073486 39.699392318726 528.56580469317
82	716686 12394 938 19162 27.25 149 488 0 15.975706100464 2280.2617204413 30183.301105092
81	729080 15072 915 19162 27 149 489 486.85000610352 733.96067810059 246136.42243958 125083151.71491
80	744152 15044 915 19162 27 149 489 486.85000610352 808.82032012939 264662.7173996 145782319.54509
vector 285  IntersectionExampleScenario.node[39].veinsmobility  speed  ETV
vector 286  IntersectionExampleScenario.node[39].veinsmobility  acceleration  ETV
vector 287  IntersectionExampleScenario.node[39].veinsmobility  co2emission  ETV
91	759437 12359 1655 19547 35 151.75 468 0.973 11.00486315618 842.47519574765 3178.9191018281
90	771796 12296 1655 19547 35 151.75 468 -3.9705123901367 2.5 35.964826583862 398.6347175193
89	784092 12322 1630 19547 34.75 151.75 469 0 14.867084503174 2212.5917223329 27917.389225398
88	796414 14524 1605 19547 34.5 151.75 470 235.17797851562 486.85000610352 219973.27398682 104271875.44043
87	810938 14506 1605 19547 34.5 151.75 470 483.12533569336 785.82187652588 254862.33441162 140255001.83526
vector 290  IntersectionExampleScenario.node[40].veinsmobility  posx  ETV
vector 291  IntersectionExampleScenario.node[40].veinsmobility  posy  ETV
vector 292  IntersectionExampleScenario.node[40].veinsmobility  speed  ETV
vector 293  IntersectionExampleScenario.node[40].veinsmobility  acceleration  ETV
vector 294  IntersectionExampleScenario.node[40].veinsmobility  co2emission  ETV
98	825835 12809 1784 19798 36.25 153.5 470 0.973 11.810082123732 887.47734330515 3482.7602716224
97	838644 12844 1784 19798 36.25 153.5 470 -4.5 2.5 39.869146347046 498.84049874292
96	851488 12656 1757 19798 36 153.5 471 0 15.875 2279.7707685465 30187.87371133
95	864144 14587 1730 19798 35.75 153.5 472 486.85000610352 735.07350158691 237917.54496765 121124275.65196
94	878731 14555 1730 19798 35.75 153.5 472 486.82092285156 807.09531402588 259434.36204529 144924412.96243
vector 297  IntersectionExampleScenario.node[41].veinsmobility  posx  ETV
vector 298  IntersectionExampleScenario.node[41].veinsmobility  posy  ETV
vector 304  IntersectionExampleScenario.node[42].veinsmobility  posx  ETV
vector 305  IntersectionExampleScenario.node[42].veinsmobility  posy  ETV
vector 299  IntersectionExampleScenario.node[41].veinsmobility  speed  ETV
vector 300  IntersectionExampleScenario.node[41].veinsmobility  acceleration  ETV
vector 301  IntersectionExampleScenario.node[41].veinsmobility  co2emission  ETV
vector 306  IntersectionExampleScenario.node[42].veinsmobility  speed  ETV
vector 307  IntersectionExampleScenario.node[42].veinsmobility  acceleration  ETV
vector 308  IntersectionExampleScenario.node[42].veinsmobility  co2emission  ETV
119	894068 12023 2266 20115 40.5 155.5 461 0.973 11.648172402475 841.48372008154 3281.2674808132
118	906091 11632 2266 20115 40.5 155.5 461 -4.273530960083 2.5000019073486 38.511121749878 502.82208885286
117	917723 11454 2235 20115 40.25 155.5 462 0 15.64999961853 2269.6270030215 29837.486910797
116	929177 14808 2204 20115 40 155.5 463 237.02502441406 486.85000610352 217027.16015625 102971826.75555
115	943985 14781 2204 20115 40 155.5 463 483.14999389648 800.81954193115 256138.06531525 143875070.89176
133	958766 10453 4107 20193 54.75 156 406 0.96333723109819 12.099024792222 800.9967352609 3633.6002957426
132	969219 9995 4107 20193 54.75 156 406 -4.5 2.5 40.208654403687 430.71890225008
131	979214 10187 4072 20193 54.5 156 407 0 16.27499961853 2209.5533818007 29309.592590175
130	989401 13117 4037 20193 54.25 156 408 486.85000610352 486.85000610352 198634.80249023 96705354.804742
129	1002518 13048 4037 20193 54.25 156 408 238.50799560547 785.82187652588 219820.72518158 122535078.38899
vector 311  IntersectionExampleScenario.node[43].veinsmobility  posx  ETV
vector 312  IntersectionExampleScenario.node[43].veinsmobility  posy  ETV
vector 313  IntersectionExampleScenario.node[43].veinsmobility  speed  ETV
vector 314  IntersectionExampleScenario.node[43].veinsmobility  acceleration  ETV
vector 315  IntersectionExampleScenario.node[43].veinsmobility  co2emission  ETV
154	1015957 10041 7142 20877 76.5 160.5 337 0.973 11.36141391502 741.31655176728 3378.908172352
153	1025998 10925 7142 20877 76.5 160.5 337 -3.3553495407104 2.5 37.32285118103 434.68445908932
152	1036923 11057 7107 20877 76.25 160.5 338 0 15.25 2188.0936711149 27331.681690204
151	1047980 10992 7072 20877 76 160.5 339 486.85000610352 734.6623840332 173463.57432556 89937801.393047
150	1058972 10991 7072 20877 76 160.5 339 486.85000610352 785.82187652588 190970.66385651 109391085.74018
vector 318  IntersectionExampleScenario.node[44].veinsmobility  posx  ETV
vector 319  IntersectionExampleScenario.node[44].veinsmobility  posy  ETV
vector 320  IntersectionExampleScenario.node[44].veinsmobility  speed  ETV
vector 321  IntersectionExampleScenario.node[44].veinsmobility  acceleration  ETV
vector 322  IntersectionExampleScenario.node[44].veinsmobility  co2emission  ETV
210	1070354 6889 11227 21024 102.75 161.5 236 0.973 12.338020266837 667.79886202959 3800.333622537
209	1077243 7506 11227 21024 102.75 161.5 236 -3.8585870265961 2.5 43.817426681519 424.89468734059
208	1084749 7505 11184 21024 102.5 161.5 237 0 16.604356765747 2182.6029199846 27828.554631957
207	1092254 7848 11141 21024 102.25 161.5 238 486.85000610352 732.81448364258 123770.19496155 65398763.188336
206	1100102 7831 11141 21024 102.25 161.5 238 486.85000610352 785.82187652588 135787.41587067 79215064.466319
238	1107933 5846 13227 21246 114.5 163 195 0.973 11.648172402475 578.15613868878 3199.0762127889
237	1113779 5884 13227 21246 114.5 163 195 -4.5 2.5000019073486 38.001859664917 359.4570619043
236	1119663 6220 13182 21246 114.25 163 196 4.2338738441467 15.64999961853 2211.4957361221 28052.660156495
235	1125883 6499 13137 21246 114 163 197 486.85000610352 486.85000610352 95909.451202393 46693516.90327
234	1132382 6468 13137 21246 114 163 197 237.97540283203 785.82187652588 105198.49846649 60452219.111929
vector 325  IntersectionExampleScenario.node[45].veinsmobility  posx  ETV
vector 326  IntersectionExampleScenario.node[45].veinsmobility  posy  ETV
vector 327  IntersectionExampleScenario.node[45].veinsmobility  speed  ETV
vector 328  IntersectionExampleScenario.node[45].veinsmobility  acceleration  ETV
vector 329  IntersectionExampleScenario.node[45].veinsmobility  co2emission  ETV
vector 332  IntersectionExampleScenario.node[46].veinsmobility  posx  ETV
vector 333  IntersectionExampleScenario.node[46].veinsmobility  posy  ETV
vector 334  IntersectionExampleScenario.node[46].veinsmobility  speed  ETV
vector 335  IntersectionExampleScenario.node[46].veinsmobility  acceleration  ETV
vector 336  IntersectionExampleScenario.node[46].veinsmobility  co2emission  ETV
vector 339  IntersectionExampleScenario.node[47].veinsmobility  posx  ETV
vector 340  IntersectionExampleScenario.node[47].veinsmobility  posy  ETV
vector 341  IntersectionExampleScenario.node[47].veinsmobility  speed  ETV
vector 342  IntersectionExampleScenario.node[47].veinsmobility  acceleration  ETV
vector 343  IntersectionExampleScenario.node[47].veinsmobility  co2emission  ETV
140	1140023 11624 4496 22479 57.5 171.25 456 0.973 11.648172402475 821.84827313783 3203.0015762191
139	1151647 10106 4496 22479 57.5 171.25 456 -7.775092124939 4 38.511121749878 480.02722360891
138	1161753 10452 4459 22479 57.25 171.25 457 0 15.64999961853 2214.2519137859 31459.955894097
137	1172205 14761 4422 22479 57 171.25 458 184.17810058594 733.9766998291 212415.1302948 102716177.31839
136	1186966 14788 4422 22479 57 171.25 458 486.85000610352 486.85000610352 222977.30279541 108556501.22689
147	1201754 11875 5203 22715 62.25 173 444 0.973 11.36141391502 795.10026109273 2993.540339096
146	1213629 11143 5203 22715 62.25 173 444 -3.8562562465668 2.5 37.492597579956 358.86029626268
145	1224772 11259 5165 22715 62 173 445 0 15.25 2188.6092444342 29386.097637524
144	1236031 14396 5126 22715 61.75 173 446 184.17810058594 483.14999389648 196175.06509399 88511122.286903
143	1250427 14424 5126 22715 61.75 173 446 486.85000610352 734.21929931641 225497.66043091 115230659.33794
vector 346  IntersectionExampleScenario.node[48].veinsmobility  posx  ETV
vector 347  IntersectionExampleScenario.node[48].veinsmobility  posy  ETV
vector 348  IntersectionExampleScenario.node[48].veinsmobility  speed  ETV
175	1265077 9674 9367 23014 91.25 175.25 337 0.973 11.450879080643 688.32131265179 2894.5811632208
174	1274751 9868 9367 23014 91.25 175.25 337 -3.703996181488 2.5 37.15309715271 327.33825828796
173	1284619 9872 9326 23014 91 175.25 338 0 15.375 2208.6363643548 28637.116643341
172	1294491 11027 9285 23014 90.75 175.25 339 184.17810058594 486.85000610352 145095.34973145 64191096.075089
171	1305518 11130 9285 23014 90.75 175.25 339 237.03839111328 486.85000610352 156489.81488037 73447362.983191
vector 349  IntersectionExampleScenario.node[48].veinsmobility  acceleration  ETV
vector 350  IntersectionExampleScenario.node[48].veinsmobility  co2emission  ETV
182	1316813 10264 9576 23361 92.5 177.75 342 0.973 11.36141391502 723.25098735272 3035.9069394907
181	1327077 10400 9576 23361 92.5 177.75 342 -4.5 2.5 37.492597579956 446.06473055182
180	1337477 10522 9533 23361 92.25 177.75 343 0 15.25 2276.4091438409 29176.263495821
179	1347999 11274 9490 23361 92 177.75 344 162.90466308594 483.15591430664 143974.82696533 62662596.786879
178	1359273 11304 9490 23361 92 177.75 344 486.85000610352 734.87367248535 175888.56404114 91113596.772999
203	1370577 9406 11141 23692 102.25 180.25 313 0.973 11.450879080643 661.3579939679 2923.5276419924
202	1379983 10041 11141 23692 102.25 180.25 313 -3.6060292720795 2.5 36.643835067749 338.79617229731
201	1390024 9942 11100 23692 102 180.25 314 0 15.375 2209.7676569102 27979.574701203
200	1399966 10362 11059 23692 101.75 180.25 315 184.17810058594 486.87686157227 131950.24676514 57251821.203533
199	1410328 10389 11059 23692 101.75 180.25 315 236.3544921875 486.85000610352 144696.32296753 67675901.612917
vector 353  IntersectionExampleScenario.node[49].veinsmobility  posx  ETV
vector 354  IntersectionExampleScenario.node[49].veinsmobility  posy  ETV
231	1420867 8833 12449 23989 110 182.5 291 0.973 11.200708441096 639.999098778 2808.6819119352
230	1429700 9358 12449 23989 110 182.5 291 -3.7676782608032 2.5 37.32285118103 329.11880981151
229	1439058 9326 12406 23989 109.75 182.5 292 0 15.305629730225 2211.0620205719 28292.129369615
228	1448384 9631 12363 23989 109.5 182.5 293 184.17810058594 486.85000610352 121506.5692749 52299279.755333
227	1458015 9660 12363 23989 109.5 182.5 293 236.51525878906 486.85003662109 134080.53494263 62535560.518646
vector 355  IntersectionExampleScenario.node[49].veinsmobility  speed  ETV
vector 356  IntersectionExampleScenario.node[49].veinsmobility  acceleration  ETV
vector 357  IntersectionExampleScenario.node[49].veinsmobility  co2emission  ETV
vector 360  IntersectionExampleScenario.node[50].veinsmobility  posx  ETV
vector 361  IntersectionExampleScenario.node[50].veinsmobility  posy  ETV
252	1468066 7220 14774 24303 123 184.75 248 0.973 11.648172402475 636.90284913672 3228.9523078964
251	1475286 7506 14774 24303 123 184.75 248 -3.9573113918304 2.5000001192093 38.511121749878 454.08979407756
250	1482792 7561 14725 24303 122.75 184.75 249 0 15.64999961853 2191.1094523221 27938.075648445
249	1490353 8216 14676 24303 122.5 184.75 250 184.17810058594 483.14999389648 101832.36248779 43287639.321813
248	1498569 8248 14676 24303 122.5 184.75 250 486.84994506836 734.66833496094 129984.38194275 68671316.259889
vector 362  IntersectionExampleScenario.node[50].veinsmobility  speed  ETV
vector 363  IntersectionExampleScenario.node[50].veinsmobility  acceleration  ETV
vector 364  IntersectionExampleScenario.node[50].veinsmobility  co2emission  ETV
vector 367  IntersectionExampleScenario.node[51].veinsmobility  posx  ETV
vector 368  IntersectionExampleScenario.node[51].veinsmobility  posy  ETV
vector 369  IntersectionExampleScenario.node[51].veinsmobility  speed  ETV
266	1507284 6742 15713 24480 128 186 233 0.973 11.648172402475 629.28078344008 3293.8879324
265	1514026 6617 15713 24480 128 186 233 -4.5 2.5 40.548154830933 441.38620005418
264	1520643 6887 15663 24480 127.75 186 234 0 15.823970794678 2202.5097606033 29736.916673404
263	1527530 7731 15614 24480 127.5 186 235 184.17810058594 486.85000610352 95492.986755371 40598037.742137
262	1535261 7742 15614 24480 127.5 186 235 238.18145751953 486.85000610352 106354.51467896 49188968.768667
vector 370  IntersectionExampleScenario.node[51].veinsmobility  acceleration  ETV
vector 371  IntersectionExampleScenario.node[51].veinsmobility  co2emission  ETV
280	1543168 5544 18274 24734 142.75 187.75 181 0.97223939240464 11.648172402475 565.25427383928 3152.5263310665
279	1548712 5429 18274 24734 142.75 187.75 181 -4.5 2.5 38.680875778198 337.95091249806
278	1554141 5777 18235 24734 142.5 187.75 182 4.4746427536011 15.64999961853 2222.3478145599 29417.886626531
277	1559918 6012 18196 24734 142.25 187.75 183 184.17810058594 734.38987731934 80930.343811035 40005634.146551
276	1565930 6041 18196 24734 142.25 187.75 183 486.85000610352 486.85000610352 89093.551116943 43375195.905068
vector 374  IntersectionExampleScenario.node[52].veinsmobility  posx  ETV
vector 375  IntersectionExampleScenario.node[52].veinsmobility  posy  ETV
vector 376  IntersectionExampleScenario.node[52].veinsmobility  speed  ETV
vector 377  IntersectionExampleScenario.node[52].veinsmobility  acceleration  ETV
vector 378  IntersectionExampleScenario.node[52].veinsmobility  co2emission  ETV
vector 381  IntersectionExampleScenario.node[53].veinsmobility  posx  ETV
vector 382  IntersectionExampleScenario.node[53].veinsmobility  posy  ETV
vector 383  IntersectionExampleScenario.node[53].veinsmobility  speed  ETV
vector 384  IntersectionExampleScenario.node[53].veinsmobility  acceleration  ETV
vector 385  IntersectionExampleScenario.node[53].veinsmobility  co2emission  ETV
vector 388  IntersectionExampleScenario.node[54].veinsmobility  posx  ETV
vector 389  IntersectionExampleScenario.node[54].veinsmobility  posy  ETV
vector 390  IntersectionExampleScenario.node[54].veinsmobility  speed  ETV
vector 391  IntersectionExampleScenario.node[54].veinsmobility  acceleration  ETV
vector 392  IntersectionExampleScenario.node[54].veinsmobility  co2emission  ETV
vector 395  IntersectionExampleScenario.node[55].veinsmobility  posx  ETV
vector 396  IntersectionExampleScenario.node[55].veinsmobility  posy  ETV
vector 397  IntersectionExampleScenario.node[55].veinsmobility  speed  ETV
vector 398  IntersectionExampleScenario.node[55].veinsmobility  acceleration  ETV
vector 399  IntersectionExampleScenario.node[55].veinsmobility  co2emission  ETV
308	1573535 5028 19993 25620 154.75 193.5 156 0.973 11.54047740176 464.35632967799 2349.6524424599
307	1578563 4912 19993 25620 154.75 193.5 156 -3.7408332824707 2.5 37.15309715271 189.75807520427
306	1583475 4943 19952 25620 154.5 193.5 157 5.6500000953674 15.5 2214.9660520554 31822.042902453
305	1588418 5188 19911 25620 154.25 193.5 158 184.17810058594 732.83963012695 70892.150115967 35999302.53187
304	1593606 5215 19911 25620 154.25 193.5 158 486.85000610352 486.85000610352 76922.300964355 37449622.693993
vector 402  IntersectionExampleScenario.node[56].veinsmobility  posx  ETV
vector 403  IntersectionExampleScenario.node[56].veinsmobility  posy  ETV
vector 404  IntersectionExampleScenario.node[56].veinsmobility  speed  ETV
vector 405  IntersectionExampleScenario.node[56].veinsmobility  acceleration  ETV
vector 406  IntersectionExampleScenario.node[56].veinsmobility  co2emission  ETV
161	1599212 12435 7461 26784 78.75 200.5 488 0.973 12.26218747632 880.99657355508 3628.0224899489
160	1611647 10830 7461 26784 78.75 200.5 488 -7.2936153411865 4 42.245687484741 502.44978328179
159	1622477 11062 7424 26784 78.5 200.5 489 0 16.5 2181.1264519691 32226.817790138
158	1633539 15938 7387 26784 78.25 200.5 490 236.20288085938 483.14999389648 228980.53344727 108152747.50106
157	1649477 15986 7387 26784 78.25 200.5 490 184.17810058594 483.36395263672 219497.0295105 100606183.44782
vector 409  IntersectionExampleScenario.node[57].veinsmobility  posx  ETV
vector 410  IntersectionExampleScenario.node[57].veinsmobility  posy  ETV
189	1665613 11416 10816 27257 100.25 203.25 413 0.93438186594183 12.26218747632 793.60491781157 3489.0273247299
188	1677029 11439 10816 27257 100.25 203.25 413 -3.9311633110046 2.5 41.057416915894 363.2300209605
187	1688468 11260 10777 27257 100 203.25 414 0 16.5 2190.2902018344 29838.728353154
186	1699728 13691 10738 27257 99.75 203.25 415 235.55474853516 483.14999389648 192578.2505188 90517357.042865
185	1713419 13659 10738 27257 99.75 203.25 415 184.17810058594 483.14999389648 181686.15789795 81687320.697822
vector 411  IntersectionExampleScenario.node[57].veinsmobility  speed  ETV
vector 412  IntersectionExampleScenario.node[57].veinsmobility  acceleration  ETV
vector 413  IntersectionExampleScenario.node[57].veinsmobility  co2emission  ETV
vector 416  IntersectionExampleScenario.node[58].veinsmobility  posx  ETV
vector 417  IntersectionExampleScenario.node[58].veinsmobility  posy  ETV
259	1727469 9279 15567 27751 127.25 206 316 0.973 11.810082123732 687.85487577476 3132.0562141701
258	1736748 9588 15567 27751 127.25 206 316 -3.869392156601 2.5000009536743 39.869146347046 342.59222562611
257	1746336 9523 15520 27751 127 206 317 0 15.875 2191.998588888 29144.535096181
256	1755859 10490 15473 27751 126.75 206 318 235.43621826172 483.14999389648 145555.37341309 67748689.225318
255	1766349 10463 15473 27751 126.75 206 318 184.17810058594 483.14999389648 135425.09613037 59678754.815595
vector 423  IntersectionExampleScenario.node[59].veinsmobility  posx  ETV
vector 424  IntersectionExampleScenario.node[59].veinsmobility  posy  ETV
vector 418  IntersectionExampleScenario.node[58].veinsmobility  speed  ETV
vector 419  IntersectionExampleScenario.node[58].veinsmobility  acceleration  ETV
vector 420  IntersectionExampleScenario.node[58].veinsmobility  co2emission  ETV
vector 425  IntersectionExampleScenario.node[59].veinsmobility  speed  ETV
vector 426  IntersectionExampleScenario.node[59].veinsmobility  acceleration  ETV
vector 427  IntersectionExampleScenario.node[59].veinsmobility  co2emission  ETV
vector 430  IntersectionExampleScenario.node[60].veinsmobility  posx  ETV
vector 431  IntersectionExampleScenario.node[60].veinsmobility  posy  ETV
vector 432  IntersectionExampleScenario.node[60].veinsmobility  speed  ETV
vector 433  IntersectionExampleScenario.node[60].veinsmobility  acceleration  ETV
vector 434  IntersectionExampleScenario.node[60].veinsmobility  co2emission  ETV
vector 437  IntersectionExampleScenario.node[61].veinsmobility  posx  ETV
vector 438  IntersectionExampleScenario.node[61].veinsmobility  posy  ETV
vector 439  IntersectionExampleScenario.node[61].veinsmobility  speed  ETV
vector 440  IntersectionExampleScenario.node[61].veinsmobility  acceleration  ETV
vector 441  IntersectionExampleScenario.node[61].veinsmobility  co2emission  ETV
vector 444  IntersectionExampleScenario.node[62].veinsmobility  posx  ETV
vector 445  IntersectionExampleScenario.node[62].veinsmobility  posy  ETV
vector 446  IntersectionExampleScenario.node[62].veinsmobility  speed  ETV
vector 447  IntersectionExampleScenario.node[62].veinsmobility  acceleration  ETV
vector 448  IntersectionExampleScenario.node[62].veinsmobility  co2emission  ETV
vector 451  IntersectionExampleScenario.node[63].veinsmobility  posx  ETV
vector 452  IntersectionExampleScenario.node[63].veinsmobility  posy  ETV
vector 453  IntersectionExampleScenario.node[63].veinsmobility  speed  ETV
vector 454  IntersectionExampleScenario.node[63].veinsmobility  acceleration  ETV
vector 455  IntersectionExampleScenario.node[63].veinsmobility  co2emission  ETV
vector 458  IntersectionExampleScenario.node[64].veinsmobility  posx  ETV
vector 459  IntersectionExampleScenario.node[64].veinsmobility  posy  ETV
357	1779158 5053 24059 30926 183 222 157 0.973 11.54047740176 464.515727801 2331.5343583805
356	1784211 4542 24059 30926 183 222 157 -3.6199226379395 2.5 36.98334312439 185.99752778846
355	1788753 4960 24024 30926 182.75 222 158 5.6500000953674 15.5 2220.1633729935 31769.099536895
354	1793713 5246 23989 30926 182.5 222 159 483.14999389648 483.14999389648 76820.849029541 37115992.739745
353	1798959 5208 23989 30926 182.5 222 159 184.17810058594 734.11010742188 71456.595001221 36341496.178864
vector 460  IntersectionExampleScenario.node[64].veinsmobility  speed  ETV
vector 461  IntersectionExampleScenario.node[64].veinsmobility  acceleration  ETV
vector 462  IntersectionExampleScenario.node[64].veinsmobility  co2emission  ETV
vector 465  IntersectionExampleScenario.node[65].veinsmobility  posx  ETV
vector 466  IntersectionExampleScenario.node[65].veinsmobility  posy  ETV
vector 467  IntersectionExampleScenario.node[65].veinsmobility  speed  ETV
vector 472  IntersectionExampleScenario.node[66].veinsmobility  posx  ETV
vector 473  IntersectionExampleScenario.node[66].veinsmobility  posy  ETV
vector 468  IntersectionExampleScenario.node[65].veinsmobility  acceleration  ETV
vector 469  IntersectionExampleScenario.node[65].veinsmobility  co2emission  ETV
vector 474  IntersectionExampleScenario.node[66].veinsmobility  speed  ETV
vector 475  IntersectionExampleScenario.node[66].veinsmobility  acceleration  ETV
vector 476  IntersectionExampleScenario.node[66].veinsmobility  co2emission  ETV
vector 479  IntersectionExampleScenario.node[67].veinsmobility  posx  ETV
vector 480  IntersectionExampleScenario.node[67].veinsmobility  posy  ETV
vector 481  IntersectionExampleScenario.node[67].veinsmobility  speed  ETV
vector 482  IntersectionExampleScenario.node[67].veinsmobility  acceleration  ETV
vector 483  IntersectionExampleScenario.node[67].veinsmobility  co2emission  ETV
vector 486  IntersectionExampleScenario.node[68].veinsmobility  posx  ETV
vector 487  IntersectionExampleScenario.node[68].veinsmobility  posy  ETV
vector 493  IntersectionExampleScenario.node[69].veinsmobility  posx  ETV
vector 494  IntersectionExampleScenario.node[69].veinsmobility  posy  ETV
vector 488  IntersectionExampleScenario.node[68].veinsmobility  speed  ETV
vector 489  IntersectionExampleScenario.node[68].veinsmobility  acceleration  ETV
vector 490  IntersectionExampleScenario.node[68].veinsmobility  co2emission  ETV
vector 495  IntersectionExampleScenario.node[69].veinsmobility  speed  ETV
vector 496  IntersectionExampleScenario.node[69].veinsmobility  acceleration  ETV
vector 497  IntersectionExampleScenario.node[69].veinsmobility  co2emission  ETV
392	1806363 4879 25179 32291 190.75 229 154 0.93438186594183 12.26218747632 523.85975107503 3144.8615460325
391	1811242 4662 25179 32291 190.75 229 154 -4.1242256164551 2.5 41.057416915894 316.53085916641
390	1815904 4767 25140 32291 190.5 229 155 5.6500000953674 16.5 2174.8210077286 32099.930340654
389	1820671 5142 25101 32291 190.25 229 156 238.99981689453 483.14999389648 67651.553833008 30206988.106167
388	1825813 5117 25101 32291 190.25 229 156 184.17810058594 483.14999389648 61913.615447998 26274228.301692
217	1830930 13174 11605 32826 105 231.75 508 0.973 11.200708441096 851.02968290777 2999.8651394506
216	1844104 11532 11605 32826 105 231.75 508 -8.6562614440918 4 35.795072555542 480.07258295636
215	1855636 11782 11562 32826 104.75 231.75 509 0 15.02499961853 2188.7632908821 29750.865636548
214	1867418 16824 11519 32826 104.5 231.75 510 486.63604736328 790.18281555176 266858.92955017 142121101.13111
213	1884242 16767 11519 32826 104.5 231.75 510 238.08221435547 483.14999389648 237965.73635864 112271026.76477
224	1901009 13178 11897 32920 106.75 232.25 503 0.973 11.54047740176 877.1519369977 3175.8227333302
223	1914187 11312 11897 32920 106.75 232.25 503 -4.5 2.5 38.850629806519 476.18896276706
222	1925499 11877 11854 32920 106.5 232.25 504 0 15.5 2305.1634453638 32708.115038696
221	1937376 16645 11811 32920 106.25 232.25 505 235.9013671875 807.23828887939 259333.13387299 137881865.5146
220	1954021 16666 11811 32920 106.25 232.25 505 483.14999389648 483.14999389648 243990.74691772 117884127.8841
vector 500  IntersectionExampleScenario.node[70].veinsmobility  posx  ETV
vector 501  IntersectionExampleScenario.node[70].veinsmobility  posy  ETV
vector 507  IntersectionExampleScenario.node[71].veinsmobility  posx  ETV
vector 508  IntersectionExampleScenario.node[71].veinsmobility  posy  ETV
vector 502  IntersectionExampleScenario.node[70].veinsmobility  speed  ETV
vector 503  IntersectionExampleScenario.node[70].veinsmobility  acceleration  ETV
vector 504  IntersectionExampleScenario.node[70].veinsmobility  co2emission  ETV
vector 509  IntersectionExampleScenario.node[71].veinsmobility  speed  ETV
vector 510  IntersectionExampleScenario.node[71].veinsmobility  acceleration  ETV
vector 511  IntersectionExampleScenario.node[71].veinsmobility  co2emission  ETV
245	1971469 12358 14582 33403 122 234.75 452 0.973 11.200708441096 800.82023911993 2958.2015909745
244	1983827 12145 14582 33403 122 234.75 452 -3.7038962841034 2.5 37.15309715271 323.22452998589
243	1995972 12216 14535 33403 121.75 234.75 453 0 15.370410919189 2215.2525645494 29017.245541895
242	2008188 14946 14488 33403 121.5 234.75 454 237.08557128906 785.82187652588 234322.50722504 125161705.33743
241	2023134 14983 14488 33403 121.5 234.75 454 483.14999389648 483.14999389648 219350.097229 105978998.13739
273	2038117 12172 15762 33782 128.25 236.75 435 0.973 11.200708441096 789.68926357221 2993.6239504042
272	2050289 12148 15762 33782 128.25 236.75 435 -3.9986119270325 2.5 38.511121749878 334.41219946237
271	2062437 12192 15713 33782 128 236.75 436 0 15.404907226562 2220.7785495212 28845.954094478
270	2074629 14256 15663 33782 127.75 236.75 437 235.60852050781 785.82187652588 227768.3015976 122916745.92634
269	2088885 14422 15663 33782 127.75 236.75 437 483.14999389648 483.14999389648 211136.54733276 102010621.55515
vector 514  IntersectionExampleScenario.node[72].veinsmobility  posx  ETV
vector 515  IntersectionExampleScenario.node[72].veinsmobility  posy  ETV
301	2103457 9752 19952 34149 154.5 238.75 338 0.94600815583079 12.26218747632 741.13262421961 3602.6406127993
300	2113209 9998 19952 34149 154.5 238.75 338 -3.866119146347 2.5 41.566686630249 407.95437212505
299	2123207 9958 19911 34149 154.25 238.75 339 0 16.5 2180.2363581853 29150.760326043
298	2133165 11191 19872 34149 154 238.75 340 486.66522216797 785.82187652588 186524.09307098 104222604.05764
297	2144356 11213 19872 34149 154 238.75 340 238.37426757812 483.14999389648 156573.19613647 73180069.95472
vector 516  IntersectionExampleScenario.node[72].veinsmobility  speed  ETV
vector 517  IntersectionExampleScenario.node[72].veinsmobility  acceleration  ETV
vector 518  IntersectionExampleScenario.node[72].veinsmobility  co2emission  ETV
343	2155810 8679 22079 34479 168.5 240.5 289 0.973 11.648172402475 672.92813989977 3168.2188013443
342	2164489 9083 22079 34479 168.5 240.5 289 -4.1017990112305 2.5 39.699392318726 366.7220029037
341	2173572 9149 22042 34479 168.25 240.5 290 0 15.64999961853 2221.3724207878 29554.118212366
340	2182721 9567 22004 34479 168 240.5 291 236.26110839844 785.82187652588 153698.55483246 85306614.148726
339	2192288 9602 22004 34479 168 240.5 291 483.14999389648 483.14999389648 140596.64822388 67929269.731232
350	2201890 7735 23049 35043 175.5 243.5 273 0.973 11.450879080643 638.94998547439 3114.0230408736
349	2209625 8080 23049 35043 175.5 243.5 273 -4.7561378479004 2.5 37.32285118103 433.51624961019
348	2217705 8082 23014 35043 175.25 243.5 274 0 15.375 2201.3912916183 28033.615677318
347	2225787 9054 22979 35043 175 243.5 275 482.97399902344 785.82187652588 154077.75339508 88191868.397124
346	2234841 9068 22979 35043 175 243.5 275 483.14999389648 732.28816223145 141344.46957397 73795402.340835
371	2243909 6765 24517 35325 186.25 245 236 0.973 12.099024792222 620.11668687753 3284.431752868
370	2250674 6998 24517 35325 186.25 245 236 -4.3256559371948 4 41.057416915894 415.88927356365
369	2257672 7108 24480 35325 186 245 237 0 16.27499961853 2204.0524367094 28872.583064028
368	2264780 7755 24443 35325 185.75 245 238 483.14999389648 785.82187652588 134614.61969757 77929837.811655
367	2272535 7848 24443 35325 185.75 245 238 483.14999389648 732.56634521484 123032.10954285 64662199.860475
378	2280383 6741 24913 35513 189 246 229 0.973 12.099024792222 636.80046292239 3549.3542725247
377	2287124 6711 24913 35513 189 246 229 -4.5 2.5 41.227170944214 455.48175119096
376	2293835 6980 24876 35513 188.75 246 230 -0.48561477661133 16.27499961853 2269.9395334097 31239.479506884
375	2300815 7582 24839 35513 188.5 246 231 237.76617431641 800.04531860352 124192.58331299 71108422.887024
374	2308397 7622 24839 35513 188.5 246 231 483.14999389648 483.14999389648 111607.64859009 53923234.735102
vector 521  IntersectionExampleScenario.node[73].veinsmobility  posx  ETV
vector 522  IntersectionExampleScenario.node[73].veinsmobility  posy  ETV
vector 523  IntersectionExampleScenario.node[73].veinsmobility  speed  ETV
vector 524  IntersectionExampleScenario.node[73].veinsmobility  acceleration  ETV
vector 525  IntersectionExampleScenario.node[73].veinsmobility  co2emission  ETV
399	2316410 6720 25456 36063 192.5 249 227 0.973 12.26218747632 666.62500284168 3899.3631882423
398	2323130 6681 25456 36063 192.5 249 227 -4.3187284469604 2.5 41.227170944214 527.4352949561
397	2329811 6800 25415 36063 192.25 249 228 0 16.5 2244.465586409 30202.158031903
396	2336611 7546 25374 36063 192 249 229 486.85000610352 802.57735443115 131317.99066162 77294056.206946
395	2344157 7544 25374 36063 192 249 229 238.13446044922 483.14999389648 102883.48168945 47221043.007828
vector 528  IntersectionExampleScenario.node[74].veinsmobility  posx  ETV
vector 529  IntersectionExampleScenario.node[74].veinsmobility  posy  ETV
vector 530  IntersectionExampleScenario.node[74].veinsmobility  speed  ETV
vector 531  IntersectionExampleScenario.node[74].veinsmobility  acceleration  ETV
vector 532  IntersectionExampleScenario.node[74].veinsmobility  co2emission  ETV
441	2352092 5122 28472 36420 209.75 251 166 0.973 11.90022389248 597.86426124677 3849.1960227102
440	2357214 4927 28472 36420 209.75 251 166 -4.6699867248535 2.5 39.699392318726 416.7384008758
439	2362141 5201 28421 36420 209.5 251 167 5.6500000953674 16 2200.7896671295 30148.15265878
438	2367342 5531 28370 36420 209.25 251 168 482.97485351562 785.82187652588 96301.178382874 56970779.083922
437	2372873 5542 28370 36420 209.25 251 168 483.14999389648 732.57070922852 89359.714370728 48492310.999161
vector 535  IntersectionExampleScenario.node[75].veinsmobility  posx  ETV
vector 536  IntersectionExampleScenario.node[75].veinsmobility  posy  ETV
vector 537  IntersectionExampleScenario.node[75].veinsmobility  speed  ETV
vector 538  IntersectionExampleScenario.node[75].veinsmobility  acceleration  ETV
vector 539  IntersectionExampleScenario.node[75].veinsmobility  co2emission  ETV
448	2378806 5499 28629 36995 210.5 254.25 176 0.973 11.461529109343 564.860519478 3124.9312365763
447	2384305 5270 28629 36995 210.5 254.25 176 -4.5 2.5 38.171613693237 363.53561620103
446	2389575 5533 28576 36995 210.25 254.25 177 5.6500000953674 15.389867782593 2276.0383825302 30695.008629069
445	2395108 5845 28523 36995 210 254.25 178 486.8125 808.82032012939 103508.70881653 62335936.482613
444	2400953 5867 28523 36995 210 254.25 178 236.75244140625 483.14999389648 77780.467559814 34953394.897236
vector 542  IntersectionExampleScenario.node[76].veinsmobility  posx  ETV
vector 543  IntersectionExampleScenario.node[76].veinsmobility  posy  ETV
vector 544  IntersectionExampleScenario.node[76].veinsmobility  speed  ETV
vector 545  IntersectionExampleScenario.node[76].veinsmobility  acceleration  ETV
vector 546  IntersectionExampleScenario.node[76].veinsmobility  co2emission  ETV
vector 549  IntersectionExampleScenario.node[77].veinsmobility  posx  ETV
vector 550  IntersectionExampleScenario.node[77].veinsmobility  posy  ETV
vector 551  IntersectionExampleScenario.node[77].veinsmobility  speed  ETV
vector 552  IntersectionExampleScenario.node[77].veinsmobility  acceleration  ETV
vector 553  IntersectionExampleScenario.node[77].veinsmobility  co2emission  ETV
287	2407602 11804 19232 38279 149.5 262 451 0.973 11.648172402475 821.02844143259 3279.7705115579
286	2419406 10367 19232 38279 149.5 262 451 -8.3905239105225 4 38.850629806519 504.72572748333
285	2429773 10649 19197 38279 149.25 262 452 0 15.812363624573 2203.2971043587 31499.767984382
284	2440422 14947 19162 38279 149 262 453 486.85000610352 486.85000610352 220543.05276489 107371386.58468
283	2455369 14935 19162 38279 149 262 453 238.74694824219 785.82187652588 229536.96439362 120440621.31692
vector 556  IntersectionExampleScenario.node[78].veinsmobility  posx  ETV
vector 557  IntersectionExampleScenario.node[78].veinsmobility  posy  ETV
294	2470454 12092 19761 38525 153.25 263.5 442 0.97223939240464 11.648172402475 808.57874556534 3159.3680334029
293	2482546 11388 19761 38525 153.25 263.5 442 -4.1712036132812 2.5 38.680875778198 396.37038113569
292	2493934 11427 19724 38525 153 263.5 443 0 15.64999961853 2236.242155062 31005.750809072
291	2505361 14643 19687 38525 152.75 263.5 444 237.39239501953 486.85000610352 207833.71463013 98513339.637817
290	2520004 14624 19687 38525 152.75 263.5 444 483.13436889648 793.78281402588 235611.45335388 127419991.15385
vector 558  IntersectionExampleScenario.node[78].veinsmobility  speed  ETV
vector 559  IntersectionExampleScenario.node[78].veinsmobility  acceleration  ETV
vector 560  IntersectionExampleScenario.node[78].veinsmobility  co2emission  ETV
315	2534869 12109 20383 38955 157.25 266 436 0.973 11.810082123732 824.87429834004 3354.3094663937
314	2546978 11707 20383 38955 157.25 266 436 -4.5 2.5 40.887662887573 397.29553960376
313	2558685 11846 20344 38955 157 266 437 0 15.936511039734 2228.6578990035 30060.440250969
312	2570531 14445 20305 38955 156.75 266 438 486.85000610352 734.08137512207 221184.93624878 112854429.3616
311	2584976 14426 20305 38955 156.75 266 438 486.82037353516 796.00234985352 235140.6198349 128523584.30776
vector 563  IntersectionExampleScenario.node[79].veinsmobility  posx  ETV
vector 564  IntersectionExampleScenario.node[79].veinsmobility  posy  ETV
vector 565  IntersectionExampleScenario.node[79].veinsmobility  speed  ETV
vector 566  IntersectionExampleScenario.node[79].veinsmobility  acceleration  ETV
vector 567  IntersectionExampleScenario.node[79].veinsmobility  co2emission  ETV
vector 570  IntersectionExampleScenario.node[80].veinsmobility  posx  ETV
vector 571  IntersectionExampleScenario.node[80].veinsmobility  posy  ETV
322	2599943 12124 21024 39348 161.5 268.25 428 0.973 11.54047740176 777.93345538279 2987.2262950883
321	2612067 12048 21024 39348 161.5 268.25 428 -4.1522750854492 2.5 37.15309715271 366.06464776398
320	2624115 12038 20987 39348 161.25 268.25 429 0 15.5 2256.8962105159 29838.325333617
319	2636153 14189 20950 39348 161 268.25 430 486.85000610352 486.85000610352 209345.50262451 101919859.23049
318	2650342 14109 20950 39348 161 268.25 430 236.12579345703 795.27305603027 224322.75628662 121474139.9156
vector 572  IntersectionExampleScenario.node[80].veinsmobility  speed  ETV
vector 573  IntersectionExampleScenario.node[80].veinsmobility  acceleration  ETV
vector 574  IntersectionExampleScenario.node[80].veinsmobility  co2emission  ETV
329	2664692 12290 21360 39630 163.75 269.75 425 0.973 11.200708441096 806.76633201577 3005.0463119672
328	2676982 12349 21360 39630 163.75 269.75 425 -4.5 2.5 39.020376205444 374.6394714122
327	2689331 12381 21322 39630 163.5 269.75 426 0 15.44988822937 2308.8668971797 30582.884565218
326	2701712 14093 21283 39630 163.25 269.75 427 486.85000610352 486.85000610352 207884.9526062 101208790.44516
325	2715805 14038 21283 39630 163.25 269.75 427 235.78845214844 807.43341064453 225936.89871216 124206521.77819
vector 577  IntersectionExampleScenario.node[81].veinsmobility  posx  ETV
vector 578  IntersectionExampleScenario.node[81].veinsmobility  posy  ETV
vector 579  IntersectionExampleScenario.node[81].veinsmobility  speed  ETV
vector 580  IntersectionExampleScenario.node[81].veinsmobility  acceleration  ETV
vector 581  IntersectionExampleScenario.node[81].veinsmobility  co2emission  ETV
336	2730234 12876 21512 40339 164.75 273.5 436 0.973 11.36141391502 830.79405240456 3204.3576424328
335	2743110 13107 21512 40339 164.75 273.5 436 -4.5 2.5000019073486 38.363395690918 447.69552127205
334	2756217 12928 21473 40339 164.5 273.5 437 0 15.25 2319.7179478481 29538.488716736
333	2769145 14449 21434 40339 164.25 273.5 438 486.85000610352 734.11982727051 221647.19143677 113383659.69676
332	2783594 14425 21434 40339 164.25 273.5 438 486.85000610352 818.80265045166 242874.78131866 137354209.91885
406	2798019 8670 26526 40826 199 276 309 0.973 11.36141391502 664.60619739422 2914.9260270102
405	2806689 8585 26526 40826 199 276 309 -3.8590006828308 2.5 37.492597579956 365.4202930299
404	2815274 8700 26483 40826 198.75 276 310 0 15.25 2193.8850418329 27597.334401012
403	2823974 10258 26440 40826 198.5 276 311 486.85000610352 735.36976623535 159858.50842285 83335243.805658
402	2834232 10238 26440 40826 198.5 276 311 486.79541015625 785.82187652588 173408.21456146 98546479.508878
vector 584  IntersectionExampleScenario.node[82].veinsmobility  posx  ETV
vector 585  IntersectionExampleScenario.node[82].veinsmobility  posy  ETV
vector 586  IntersectionExampleScenario.node[82].veinsmobility  speed  ETV
vector 587  IntersectionExampleScenario.node[82].veinsmobility  acceleration  ETV
vector 588  IntersectionExampleScenario.node[82].veinsmobility  co2emission  ETV
504	2844861 5632 33158 41299 233.5 278.5 181 0.973 11.200708441096 540.00842223704 2874.8890027821
503	2850493 5482 33158 41299 233.5 278.5 181 -4.5 2.5 35.795072555542 328.47971056544
502	2855975 5716 33109 41299 233.25 278.5 182 5.6500000953674 15.02499961853 2182.3001198769 27835.931770802
501	2861691 6010 33061 41299 233 278.5 183 486.85000610352 732.8938293457 97596.785491943 53046890.551993
500	2867701 6026 33061 41299 233 278.5 183 486.85000610352 785.82187652588 104400.16880035 61358525.651595
vector 591  IntersectionExampleScenario.node[83].veinsmobility  posx  ETV
vector 592  IntersectionExampleScenario.node[83].veinsmobility  posy  ETV
vector 593  IntersectionExampleScenario.node[83].veinsmobility  speed  ETV
vector 594  IntersectionExampleScenario.node[83].veinsmobility  acceleration  ETV
vector 595  IntersectionExampleScenario.node[83].veinsmobility  co2emission  ETV
vector 598  IntersectionExampleScenario.node[84].veinsmobility  posx  ETV
vector 599  IntersectionExampleScenario.node[84].veinsmobility  posy  ETV
vector 600  IntersectionExampleScenario.node[84].veinsmobility  speed  ETV
vector 601  IntersectionExampleScenario.node[84].veinsmobility  acceleration  ETV
vector 602  IntersectionExampleScenario.node[84].veinsmobility  co2emission  ETV
vector 605  IntersectionExampleScenario.node[85].veinsmobility  posx  ETV
vector 606  IntersectionExampleScenario.node[85].veinsmobility  posy  ETV
vector 607  IntersectionExampleScenario.node[85].veinsmobility  speed  ETV
vector 608  IntersectionExampleScenario.node[85].veinsmobility  acceleration  ETV
vector 609  IntersectionExampleScenario.node[85].veinsmobility  co2emission  ETV
364	2874900 11279 24373 43737 185.25 292 428 0.973 11.810082123732 801.50349147058 3271.7153330216
363	2886179 9884 24373 43737 185.25 292 428 -7.26416015625 4 39.699392318726 483.29115084588
362	2896063 10148 24338 43737 185 292 429 0 15.875 2180.8752837181 31208.171219839
361	2906211 14162 24303 43737 184.75 292 430 184.17810058594 483.36395263672 190935.66802979 87060031.159584
360	2920373 14120 24303 43737 184.75 292 430 486.85000610352 733.87629699707 217408.3634491 111093625.6653
385	2934493 11565 25027 44142 189.75 294.5 420 0.973 11.810082123732 784.40768288837 3202.7531291446
384	2946058 11348 25027 44142 189.75 294.5 420 -3.705322265625 2.5 38.850629806519 370.57532846569
383	2957406 11156 24989 44142 189.5 294.5 421 0 15.875 2191.6162508111 30129.101613365
382	2968562 13886 24950 44142 189.25 294.5 422 184.17810058594 483.33477783203 185220.65753174 83481279.871626
381	2982448 13915 24950 44142 189.25 294.5 422 486.85000610352 734.91529846191 213677.48622131 109391283.57454
vector 612  IntersectionExampleScenario.node[86].veinsmobility  posx  ETV
vector 613  IntersectionExampleScenario.node[86].veinsmobility  posy  ETV
vector 619  IntersectionExampleScenario.node[87].veinsmobility  posx  ETV
vector 620  IntersectionExampleScenario.node[87].veinsmobility  posy  ETV
vector 614  IntersectionExampleScenario.node[86].veinsmobility  speed  ETV
vector 615  IntersectionExampleScenario.node[86].veinsmobility  acceleration  ETV
vector 616  IntersectionExampleScenario.node[86].veinsmobility  co2emission  ETV
vector 621  IntersectionExampleScenario.node[87].veinsmobility  speed  ETV
vector 622  IntersectionExampleScenario.node[87].veinsmobility  acceleration  ETV
vector 623  IntersectionExampleScenario.node[87].veinsmobility  co2emission  ETV
vector 626  IntersectionExampleScenario.node[88].veinsmobility  posx  ETV
vector 627  IntersectionExampleScenario.node[88].veinsmobility  posy  ETV
434	2997295 10179 28223 44592 208.5 297.25 356 0.973 11.450879080643 704.62727148006 2908.8935967051
433	3007474 10411 28223 44592 208.5 297.25 356 -3.829000711441 2.5 36.813589096069 328.81282641782
432	3017885 10321 28174 44592 208.25 297.25 357 0 15.375 2203.3044718215 28447.913498575
431	3028206 11767 28125 44592 208 297.25 358 184.17810058594 486.85000610352 153770.23751831 68157064.649392
430	3039973 11805 28125 44592 208 297.25 358 238.27917480469 486.85000610352 165779.6499939 77976176.203479
vector 633  IntersectionExampleScenario.node[89].veinsmobility  posx  ETV
vector 634  IntersectionExampleScenario.node[89].veinsmobility  posy  ETV
vector 628  IntersectionExampleScenario.node[88].veinsmobility  speed  ETV
vector 629  IntersectionExampleScenario.node[88].veinsmobility  acceleration  ETV
vector 630  IntersectionExampleScenario.node[88].veinsmobility  co2emission  ETV
vector 635  IntersectionExampleScenario.node[89].veinsmobility  speed  ETV
vector 636  IntersectionExampleScenario.node[89].veinsmobility  acceleration  ETV
vector 637  IntersectionExampleScenario.node[89].veinsmobility  co2emission  ETV
455	3052410 10086 29317 44860 213.75 298.75 341 0.973 11.54047740176 702.04460405433 2946.6921020112
454	3062496 10444 29317 44860 213.75 298.75 341 -3.9974708557129 2.5 38.511121749878 355.56855810013
453	3072940 10449 29264 44860 213.5 298.75 342 0 15.5 2219.5532486569 29181.920975325
452	3083389 11271 29211 44860 213.25 298.75 343 184.17810058594 734.12373352051 153710.28387451 73064846.76383
451	3094660 11321 29211 44860 213.25 298.75 343 486.85000610352 486.85000610352 166989.55209351 81298864.455947
476	3105981 9256 31260 45311 223.75 301.25 311 0.973 11.810082123732 699.49252992434 3324.3818652153
475	3115237 9957 31260 45311 223.75 301.25 311 -3.9471032619476 2.5 41.227170944214 382.87312313091
474	3125194 9803 31211 45311 223.5 301.25 312 0 16.020776748657 2190.8700309871 28936.585512516
473	3134997 10285 31162 45311 223.25 301.25 313 184.17810058594 483.14999389648 131095.16809082 56801373.717515
472	3145282 10320 31162 45311 223.25 301.25 313 486.85000610352 734.35614013672 160297.78451538 83193793.37318
vector 640  IntersectionExampleScenario.node[90].veinsmobility  posx  ETV
vector 641  IntersectionExampleScenario.node[90].veinsmobility  posy  ETV
vector 642  IntersectionExampleScenario.node[90].veinsmobility  speed  ETV
497	3155828 9229 32291 45763 229 303.75 300 0.973 11.810082123732 678.8353211284 3175.5198585683
496	3165057 9652 32291 45763 229 303.75 300 -4.3544120788574 2.5 39.869146347046 415.13875798277
495	3174709 9526 32240 45763 228.75 303.75 301 0 15.875 2179.3982209135 28767.493246715
494	3184235 9920 32189 45763 228.5 303.75 302 184.17810058594 483.14999389648 125538.29879761 54037187.916283
493	3194155 9959 32189 45763 228.5 303.75 302 486.85000610352 731.50393676758 154927.9412384 80554853.828441
vector 643  IntersectionExampleScenario.node[90].veinsmobility  acceleration  ETV
vector 644  IntersectionExampleScenario.node[90].veinsmobility  co2emission  ETV
vector 647  IntersectionExampleScenario.node[91].veinsmobility  posx  ETV
vector 648  IntersectionExampleScenario.node[91].veinsmobility  posy  ETV
vector 654  IntersectionExampleScenario.node[92].veinsmobility  posx  ETV
vector 655  IntersectionExampleScenario.node[92].veinsmobility  posy  ETV
vector 649  IntersectionExampleScenario.node[91].veinsmobility  speed  ETV
vector 656  IntersectionExampleScenario.node[92].veinsmobility  speed  ETV
vector 650  IntersectionExampleScenario.node[91].veinsmobility  acceleration  ETV
vector 651  IntersectionExampleScenario.node[91].veinsmobility  co2emission  ETV
vector 657  IntersectionExampleScenario.node[92].veinsmobility  acceleration  ETV
vector 658  IntersectionExampleScenario.node[92].veinsmobility  co2emission  ETV
511	3205061 8342 33207 46100 233.75 305.5 288 0.973 11.810082123732 688.19996320068 3294.0556379868
510	3213403 8334 33207 46100 233.75 305.5 288 -4.5 2.5 42.415441513062 511.61478378651
509	3221737 8230 33158 46100 233.5 305.5 289 0 16.301048278809 2190.647764802 30164.169124838
508	3229967 9535 33109 46100 233.25 305.5 290 184.17810058594 483.14999389648 119619.10757446 51128657.048246
507	3239502 9566 33109 46100 233.25 305.5 290 486.84991455078 734.32205200195 148974.91506958 77597206.044634
560	3249068 5532 38611 46586 264 308 177 0.973 11.200708441096 535.46721016111 2843.3122762674
559	3254600 5217 38611 46586 264 308 177 -3.8714981079102 2.5 35.625318527222 304.7974113858
558	3259817 5649 38568 46586 263.75 308 178 5.6500000953674 15.02499961853 2221.1448292732 28936.447342009
557	3265466 5861 38525 46586 263.5 308 179 184.17810058594 734.26119995117 79909.288726807 40007689.539824
556	3271327 5906 38525 46586 263.5 308 179 486.85000610352 486.85000610352 87146.151092529 42427104.191296
574	3277233 5232 39442 47141 268.75 311 170 0.973 11.00486315618 493.25781358172 2620.7584371672
573	3282465 5224 39442 47141 268.75 311 170 -3.8211364746094 2.5 34.437047958374 246.9127339338
572	3287689 5366 39395 47141 268.5 311 171 5.6500000953674 14.75 2209.6677284241 29276.663643001
571	3293055 5649 39348 47141 268.25 311 172 184.17810058594 486.85000610352 68682.30090332 29271084.713957
570	3298704 5666 39348 47141 268.25 311 172 236.220703125 486.85000610352 74744.389923096 33515080.083499
581	3304370 4935 40339 47453 273.5 312.75 158 0.93438186594183 12.26218747632 518.48718208366 2896.1799982457
580	3309305 4869 40339 47453 273.5 312.75 158 -4.5 2.5 41.057416915894 286.5351603074
579	3314174 4911 40290 47453 273.25 312.75 159 5.6500000953674 16.5 2189.2050628662 31622.994836227
578	3319085 5264 40241 47453 273 312.75 160 184.17810058594 483.33331298828 63413.139343262 26873505.574599
577	3324349 5274 40241 47453 273 312.75 160 486.85000610352 734.23910522461 85811.024642944 46931336.708475
vector 661  IntersectionExampleScenario.node[93].veinsmobility  posx  ETV
vector 662  IntersectionExampleScenario.node[93].veinsmobility  posy  ETV
vector 663  IntersectionExampleScenario.node[93].veinsmobility  speed  ETV
vector 664  IntersectionExampleScenario.node[93].veinsmobility  acceleration  ETV
vector 665  IntersectionExampleScenario.node[93].veinsmobility  co2emission  ETV
vector 668  IntersectionExampleScenario.node[94].veinsmobility  posx  ETV
vector 669  IntersectionExampleScenario.node[94].veinsmobility  posy  ETV
vector 670  IntersectionExampleScenario.node[94].veinsmobility  speed  ETV
vector 675  IntersectionExampleScenario.node[95].veinsmobility  posx  ETV
vector 676  IntersectionExampleScenario.node[95].veinsmobility  posy  ETV
vector 671  IntersectionExampleScenario.node[94].veinsmobility  acceleration  ETV
vector 672  IntersectionExampleScenario.node[94].veinsmobility  co2emission  ETV
vector 677  IntersectionExampleScenario.node[95].veinsmobility  speed  ETV
vector 682  IntersectionExampleScenario.node[96].veinsmobility  posx  ETV
vector 683  IntersectionExampleScenario.node[96].veinsmobility  posy  ETV
vector 678  IntersectionExampleScenario.node[95].veinsmobility  acceleration  ETV
vector 679  IntersectionExampleScenario.node[95].veinsmobility  co2emission  ETV
vector 684  IntersectionExampleScenario.node[96].veinsmobility  speed  ETV
413	3331022 12255 27347 48960 203.75 321.75 473 0.973 12.099024792222 860.15713343267 3528.3572898732
412	3343277 10697 27347 48960 203.75 321.75 473 -7.3289093971252 4 40.887662887573 498.01316722791
411	3353974 10973 27302 48960 203.5 321.75 474 0 16.27499961853 2179.0089606047 31645.527223236
410	3364947 15603 27257 48960 203.25 321.75 475 236.62127685547 483.14999389648 221600.57498169 104543084.58555
409	3380550 15658 27257 48960 203.25 321.75 475 184.17810058594 483.36395263672 212302.24230957 97176793.489097
vector 685  IntersectionExampleScenario.node[96].veinsmobility  acceleration  ETV
vector 686  IntersectionExampleScenario.node[96].veinsmobility  co2emission  ETV
420	3396373 12546 27843 49140 206.5 322.75 466 0.973 12.099024792222 859.44628803304 3505.48434324
419	3408919 11627 27843 49140 206.5 322.75 466 -4.5 2.5 41.057416915894 473.60024860184
418	3420546 11674 27796 49140 206.25 322.75 467 0 16.27499961853 2275.5373692149 33098.58631395
417	3432220 15444 27751 49140 206 322.75 468 483.14999389648 483.14999389648 226114.19714355 109247072.96982
416	3447664 15401 27751 49140 206 322.75 468 169.95465087891 733.75981140137 213846.2618103 102111179.05496
vector 689  IntersectionExampleScenario.node[97].veinsmobility  posx  ETV
vector 690  IntersectionExampleScenario.node[97].veinsmobility  posy  ETV
vector 691  IntersectionExampleScenario.node[97].veinsmobility  speed  ETV
vector 692  IntersectionExampleScenario.node[97].veinsmobility  acceleration  ETV
vector 693  IntersectionExampleScenario.node[97].veinsmobility  co2emission  ETV
427	3463456 13201 27890 49731 206.75 326 478 0.973 11.512248853161 850.02901058898 3127.5816888317
426	3476657 12803 27890 49731 206.75 326 478 -4.5 2.5 38.341367721558 366.59017033816
425	3489460 12809 27843 49731 206.5 326 479 0 15.460638046265 2327.9519964326 30659.786638042
424	3502269 15835 27796 49731 206.25 326 480 483.14999389648 731.97479248047 240242.60888672 121478975.29958
423	3518104 15812 27796 49731 206.25 326 480 152.65545654297 486.85806274414 206488.77108765 91862058.184832
vector 696  IntersectionExampleScenario.node[98].veinsmobility  posx  ETV
vector 697  IntersectionExampleScenario.node[98].veinsmobility  posy  ETV
vector 698  IntersectionExampleScenario.node[98].veinsmobility  speed  ETV
vector 699  IntersectionExampleScenario.node[98].veinsmobility  acceleration  ETV
vector 700  IntersectionExampleScenario.node[98].veinsmobility  co2emission  ETV
469	3534307 11826 31162 50359 223.25 329.25 425 0.973 11.36141391502 779.99832941402 3032.7001198523
468	3546133 11797 31162 50359 223.25 329.25 425 -3.7747142314911 2.5 37.15309715271 343.15404422726
467	3557930 11703 31115 50359 223 329.25 426 0 15.25 2190.6445155982 27921.058120509
466	3569633 14086 31067 50359 222.75 329.25 427 235.59918212891 483.14999389648 197877.57562256 92919368.566933
465	3583719 14061 31067 50359 222.75 329.25 427 184.17810058594 483.25634765625 183528.474823 80942405.987637
518	3597780 10507 34243 50594 239.25 330.5 366 0.973 11.54047740176 718.30417998603 2934.2035593937
517	3608287 10724 34243 50594 239.25 330.5 366 -3.9656348228455 2.5 36.98334312439 327.61715563668
516	3619011 10688 34196 50594 239 330.5 367 0 15.5 2212.9975051172 28693.939555596
515	3629699 12144 34149 50594 238.75 330.5 368 483.14999389648 483.14999389648 177799.19775391 85903681.3096
514	3641843 12096 34149 50594 238.75 330.5 368 184.17810058594 732.0595703125 163863.25679016 77171481.138617
vector 703  IntersectionExampleScenario.node[99].veinsmobility  posx  ETV
vector 704  IntersectionExampleScenario.node[99].veinsmobility  posy  ETV
vector 705  IntersectionExampleScenario.node[99].veinsmobility  speed  ETV
vector 706  IntersectionExampleScenario.node[99].veinsmobility  acceleration  ETV
vector 707  IntersectionExampleScenario.node[99].veinsmobility  co2emission  ETV
525	3654330 9959 35700 51082 247 333 345 0.973 12.099024792222 730.13711977476 3377.8364815359
524	3664289 10546 35700 51082 247 333 345 -3.8115317821503 2.5 40.038900375366 400.60563026907
523	3674835 10447 35653 51082 246.75 333 346 0 16.27499961853 2178.7072752342 28029.728740495
522	3685282 11439 35606 51082 246.5 333 347 238.48760986328 483.14999389648 159765.26446533 74659299.903427
521	3696721 11408 35606 51082 246.5 333 347 184.17810058594 483.14999389648 144912.88150024 62390192.461547
vector 710  IntersectionExampleScenario.node[100].veinsmobility  posx  ETV
vector 711  IntersectionExampleScenario.node[100].veinsmobility  posy  ETV
vector 712  IntersectionExampleScenario.node[100].veinsmobility  speed  ETV
vector 713  IntersectionExampleScenario.node[100].veinsmobility  acceleration  ETV
vector 714  IntersectionExampleScenario.node[100].veinsmobility  co2emission  ETV
vector 717  IntersectionExampleScenario.node[101].veinsmobility  posx  ETV
vector 718  IntersectionExampleScenario.node[101].veinsmobility  posy  ETV
vector 719  IntersectionExampleScenario.node[101].veinsmobility  speed  ETV
vector 720  IntersectionExampleScenario.node[101].veinsmobility  acceleration  ETV
vector 721  IntersectionExampleScenario.node[101].veinsmobility  co2emission  ETV
532	3708921 9578 36375 51742 250.75 336.25 343 0.973 11.36141391502 695.85538955169 2943.6394677343
531	3718499 9841 36375 51742 250.75 336.25 343 -3.8971538543701 2.5000001192093 37.32285118103 410.08761614696
530	3728340 9679 36330 51742 250.5 336.25 344 0 15.25 2221.5814743936 28092.334530826
529	3738019 11381 36285 51742 250.25 336.25 345 235.31951904297 483.14999389648 158264.00271606 73783196.686007
528	3749400 11349 36285 51742 250.25 336.25 345 176.21716308594 483.14999389648 142246.31182861 60651857.726829
vector 724  IntersectionExampleScenario.node[102].veinsmobility  posx  ETV
vector 725  IntersectionExampleScenario.node[102].veinsmobility  posy  ETV
vector 726  IntersectionExampleScenario.node[102].veinsmobility  speed  ETV
vector 727  IntersectionExampleScenario.node[102].veinsmobility  acceleration  ETV
[...]
3626	27399247 10956 276945 293501 1694.75 1780.25 343 0.973 11.54047740176 696.70634039764 2926.1777969723
3625	27410203 11225 276945 293501 1694.75 1780.25 343 -3.9738209247589 2.5000019073486 36.98334312439 330.68655905996
3624	27421428 11223 276908 293501 1694.5 1780.25 344 0 15.5 2225.9764870014 29051.804461127
3623	27432651 12421 276871 293501 1694.25 1780.25 345 483.14999389648 483.14999389648 166686.74789429 80534701.22775
3622	27445072 12360 276871 293501 1694.25 1780.25 345 184.17810058594 735.3705291748 155059.37211609 73966366.107579
vector 3867  IntersectionExampleScenario.node[551].veinsmobility  posx  ETV
vector 3868  IntersectionExampleScenario.node[551].veinsmobility  posy  ETV
vector 3869  IntersectionExampleScenario.node[551].veinsmobility  speed  ETV
vector 3870  IntersectionExampleScenario.node[551].veinsmobility  acceleration  ETV
vector 3871  IntersectionExampleScenario.node[551].veinsmobility  co2emission  ETV
3633	27457833 11507 277134 293983 1696 1782.25 346 0.973 11.200708441096 722.81454780326 2879.4402082102
3632	27469340 11716 277134 293983 1696 1782.25 346 -4.5 2.5 37.492597579956 412.8064271472
3631	27481056 11807 277095 293983 1695.75 1782.25 347 0 15.181047439575 2309.7067102436 30000.159077772
3630	27492863 12528 277056 293983 1695.5 1782.25 348 483.14999389648 483.14999389648 168136.19787598 81235002.977556
3629	27505391 12461 277056 293983 1695.5 1782.25 348 162.90466308594 735.09680175781 153161.52151489 72157153.396083
3703	27517852 8859 280980 294837 1719.5 1785.75 266 0.973 10.756497587458 597.30536100057 2485.2971250168
3702	27526711 9099 280980 294837 1719.5 1785.75 266 -3.7118272781372 2.5000019073486 34.097539901733 299.18577527805
3701	27535810 9317 280933 294837 1719.25 1785.75 267 0 14.39999961853 2219.9013088476 27619.507787476
3700	27545127 9648 280885 294837 1719 1785.75 268 483.14999389648 483.14999389648 129484.19836426 62560289.649382
3699	27554775 9593 280885 294837 1719 1785.75 268 184.17810058594 733.93775939941 119036.57102966 57287704.526836
3773	27564368 5395 286600 295264 1749 1787.5 155 0.96621817512925 11.914658360086 497.89397592854 2678.0297428924
3772	27569763 5335 286600 295264 1749 1787.5 155 -2.9195823669434 2.5 39.699392318726 201.65949236069
3771	27575098 5400 286551 295264 1748.75 1787.5 156 5.6500000953674 16.019998550415 2224.9967765808 32416.994723798
3770	27580498 5652 286501 295264 1748.5 1787.5 157 483.14999389648 483.14999389648 75854.549041748 36649124.906541
3769	27586150 5618 286501 295264 1748.5 1787.5 157 184.17810058594 735.12782287598 70489.374038696 35778096.597543
vector 3874  IntersectionExampleScenario.node[552].veinsmobility  posx  ETV
vector 3875  IntersectionExampleScenario.node[552].veinsmobility  posy  ETV
vector 3876  IntersectionExampleScenario.node[552].veinsmobility  speed  ETV
vector 3877  IntersectionExampleScenario.node[552].veinsmobility  acceleration  ETV
vector 3878  IntersectionExampleScenario.node[552].veinsmobility  co2emission  ETV
vector 3881  IntersectionExampleScenario.node[553].veinsmobility  posx  ETV
vector 3882  IntersectionExampleScenario.node[553].veinsmobility  posy  ETV
vector 3883  IntersectionExampleScenario.node[553].veinsmobility  speed  ETV
3584	27592401 14009 274713 297995 1678 1800 489 0.973 11.450879080643 826.78197337412 3090.1018560993
3583	27606410 12466 274713 297995 1678 1800 489 -9.0592842102051 4 37.492609024048 505.53515374828
3582	27618876 12628 274680 297995 1677.75 1800 490 0 15.375 1944.313066721 27042.911172643
3581	27631504 17668 274647 297995 1677.5 1800 491 303.22296142578 785.82187652588 252413.1185379 132962178.36247
3580	27649172 17675 274647 297995 1677.5 1800 491 483.14999389648 483.14999389648 237226.64700317 114616053.05167
3598	27666847 14033 275141 297995 1681.25 1800 476 0.973 11.90022389248 841.91448215191 3240.8619208596
3597	27680880 13139 275141 297995 1681.25 1800 476 -4.5 2.5 41.227186203003 448.78004317026
3596	27694019 12985 275108 297995 1681 1800 477 0 16.016788482666 1933.262993074 27346.352196862
3595	27707004 17182 275075 297995 1680.75 1800 478 483.13439941406 797.07032012939 253233.81743622 136590162.77326
3594	27724186 17205 275075 297995 1680.75 1800 478 483.14999389648 653.20091247559 234746.52174377 115681535.18431
3605	27741391 13847 275466 297995 1683.75 1800 466 0.973 11.36141391502 779.51376094584 2934.7357787159
3604	27755238 13622 275466 297995 1683.75 1800 466 -3.7365894317627 2.5000009536743 35.973001480103 348.2865034359
3603	27768860 13440 275433 297995 1683.5 1800 467 0 15.25 1759.627709792 21441.236748096
3602	27782300 16826 275400 297995 1683.25 1800 468 486.85000610352 807.03985595703 252683.7694931 138988522.26085
3601	27799126 16845 275400 297995 1683.25 1800 468 363.96340942383 483.14999389648 224027.75384521 107393474.70405
3619	27815971 12915 276626 297995 1692.5 1800 431 0.973 11.297212266828 717.98226166241 2762.8410757902
3618	27828886 12871 276626 297995 1692.5 1800 431 -3.9973390102386 2.5 37.222364425659 320.33581060023
3617	27841757 12722 276591 297995 1692.25 1800 432 0 15.245834350586 1529.246609523 17637.113845725
3616	27854479 15565 276556 297995 1692 1800 433 486.81872558594 785.82187652588 235355.9695816 129888965.52575
3615	27870044 15575 276556 297995 1692 1800 433 400.48095703125 483.14999389648 208151.00674438 100115007.44804
3647	27885619 12690 277367 297995 1697.5 1800 411 0.973 11.450879080643 721.16063373067 2917.8711217723
3646	27898309 12533 277367 297995 1697.5 1800 411 -4.5 2.5000019073486 38.518117904663 445.53508339541
3645	27910842 12402 277326 297995 1697.25 1800 412 0 15.375 1441.7652237536 17601.435195127
3644	27923244 14839 277285 297995 1697 1800 413 483.13943481445 785.82187652588 226576.08400726 126126010.23809
3643	27938083 14865 277285 297995 1697 1800 413 483.14999389648 541.50140380859 200096.71429443 96965913.808547
3654	27952948 11904 278295 297995 1703.75 1800 386 0.97223939240464 11.648172402475 643.73343770364 2360.7155122572
3653	27964852 11961 278295 297995 1703.75 1800 386 -3.7320322990417 2.5 18.39999961853 377.09062952463
3652	27976813 11917 278258 297995 1703.5 1800 387 0 15.64999961853 1278.2594936388 14860.659506776
3651	27988730 13937 278221 297995 1703.25 1800 388 486.82843017578 785.82187652588 215711.73459625 121599871.49203
3650	28002667 13966 278221 297995 1703.25 1800 388 461.95779418945 483.14999389648 187331.55453491 90447919.672258
3668	28016633 10569 278565 297995 1705.5 1800 379 0.973 11.648172402475 573.65024298142 1842.162237054
3667	28027202 9437 278565 297995 1705.5 1800 379 -21.978492736816 2.5 -22.60000038147 772.06132264683
3666	28036639 9530 278524 297995 1705.25 1800 380 0 16.435785293579 1233.3528747559 18761.419172216
3665	28046169 13714 278483 297995 1705 1800 381 486.85000610352 486.85000610352 185489.85232544 90305735.736781
3664	28059883 13705 278483 297995 1705 1800 381 498.39999389648 807.99687957764 204005.76456451 111841994.24945
3689	28073588 9431 280652 297995 1717.75 1800 330 0.973 11.648172402475 537.25678412717 1982.9073148226
3688	28083019 9351 280652 297995 1717.75 1800 330 -3.6764006614685 2.5 5.3999996185303 325.21964915846
3687	28092370 9343 280607 297995 1717.5 1800 331 0 15.79926776886 1197.2576742172 13543.501129326
3686	28101713 11925 280562 297995 1717.25 1800 332 489.65408325195 785.82187652588 188358.22992706 108344148.08816
3685	28113638 11951 280562 297995 1717.25 1800 332 479.84555053711 483.14999389648 160397.49893188 77492060.131221
3696	28125589 9509 280791 297995 1718.5 1800 327 0.973 12.099024792222 498.66073374554 1884.9956692166
3695	28135098 9733 280791 297995 1718.5 1800 327 -3.7023186683655 2.5 -22.60000038147 210.8970013468
3694	28144831 9651 280744 297995 1718.25 1800 328 0 16.27499961853 1123.0820439234 14287.597701896
3693	28154482 11842 280697 297995 1718 1800 329 486.85000610352 486.85000610352 160173.65200806 77980543.457745
3692	28166324 11812 280697 297995 1718 1800 329 504.79989624023 785.82187652588 178851.16008759 99178323.116902
3710	28178136 9606 281313 297995 1721.25 1800 316 0.973 11.648172402475 489.98344992434 1658.8651180039
3709	28187742 10153 281313 297995 1721.25 1800 316 -4.5 2.5 -22.60000038147 249.93394507931
3708	28197895 9904 281264 297995 1721 1800 317 0 15.64999961853 1153.5417824984 14142.292879429
3707	28207799 11447 281215 297995 1720.75 1800 318 486.85000610352 486.85000610352 154818.30194092 75373291.244872
3706	28219246 11423 281215 297995 1720.75 1800 318 511.19897460938 800.04531860352 176548.76012421 100077985.12274
3724	28230669 7973 283135 297995 1730.5 1800 279 0.973 12.099024792222 489.73870877574 2002.8696291777
3723	28238642 7876 283135 297995 1730.5 1800 279 -4.0131187438965 4 9.5678195953369 324.97107882713
3722	28246518 8024 283087 297995 1730.25 1800 280 0 16.27499961853 1138.0282668769 13190.888587616
3721	28254542 9928 283038 297995 1730 1800 281 503.47900390625 785.82187652588 162472.84288788 95234101.548262
3720	28264470 10114 283038 297995 1730 1800 281 483.14999389648 483.14999389648 135765.14828491 65594930.56521
3738	28274584 7774 284359 297995 1737 1800 253 0.973 10.756497587458 395.45603650066 1299.6558345774
3737	28282358 8440 284359 297995 1737 1800 253 -3.9233672618866 2.5 -22.60000038147 167.36842224044
3736	28290798 8229 284312 297995 1736.75 1800 254 0 14.39999961853 1071.9653950231 12556.29548674
3735	28299027 9179 284265 297995 1736.5 1800 255 486.85000610352 486.85000610352 124146.7515564 60440846.752963
3734	28308206 9161 284265 297995 1736.5 1800 255 517.59872436523 785.82187652588 144443.92434692 83466733.271225
3745	28317367 7504 284597 297995 1738.25 1800 248 0.973 11.648172402475 436.67899660434 1758.9012322391
3744	28324871 8179 284597 297995 1738.25 1800 248 -2.2428779602051 2.5 15.158254623413 229.90675355045
3743	28333050 8175 284549 297995 1738 1800 249 0 15.64999961853 1059.0510346271 12326.437088532
3742	28341225 8909 284500 297995 1737.75 1800 250 523.58987426758 785.82187652588 146897.53359222 87489313.018303
3741	28350134 8999 284500 297995 1737.75 1800 250 483.14999389648 483.14999389648 120787.49847412 58358479.150543
3752	28359133 7146 285463 297995 1743 1800 229 0.973 11.200708441096 403.58028624825 1535.7582736459
3751	28366279 7846 285463 297995 1743 1800 229 -3.6129581928253 2.5 8.2483425140381 225.1191133558
3750	28374125 7660 285418 297995 1742.75 1800 230 0 15.02499961853 986.5440801112 10588.651121568
3749	28381785 8290 285373 297995 1742.5 1800 231 541.28527832031 785.82187652588 138100.52683258 83619597.099864
3748	28390075 8315 285373 297995 1742.5 1800 231 483.14999389648 483.14999389648 111607.64859009 53923234.735102
3759	28398390 6934 285782 297995 1744.75 1800 222 0.973 11.200708441096 363.04955412558 1357.2038125498
3758	28405324 7912 285782 297995 1744.75 1800 222 -3.8924264907837 2.5 -22.60000038147 180.30936799397
3757	28413236 7702 285735 297995 1744.5 1800 223 0 15.02499961853 1045.6330076754 12150.837961787
3756	28420938 8064 285688 297995 1744.25 1800 224 486.85000610352 486.85000610352 109054.40136719 53093135.97123
3755	28429002 8048 285688 297995 1744.25 1800 224 523.99578857422 785.82187652588 129325.19867706 76105428.236842
3766	28437050 6186 286256 297995 1747.25 1800 212 0.973 11.648172402475 388.19590246508 1574.5266530429
3765	28443236 5640 286256 297995 1747.25 1800 212 -7.26416015625 2.5 -22.60000038147 322.33522546065
3764	28448876 5886 286207 297995 1747 1800 213 0 15.64999961853 1146.9076485634 16340.138202678
3763	28454762 7676 286158 297995 1746.75 1800 214 184.17810058594 471.60000610352 88239.604156494 38227555.723435
3762	28462438 7703 286158 297995 1746.75 1800 214 486.85000610352 486.85000610352 104185.90130615 50722906.6868
3780	28470141 6535 286800 297995 1750 1800 201 0.973 11.200708441096 350.39679632434 1367.4434371193
3779	28476676 7251 286800 297995 1750 1800 201 -3.6854207515717 2.5 -2.640266418457 213.98115859528
3778	28483927 7152 286749 297995 1749.75 1800 202 0 15.208159446716 931.8987267958 10574.304993958
3777	28491079 7284 286698 297995 1749.5 1800 203 554.18530273438 785.82187652588 123108.57320404 75598576.028851
3776	28498363 7307 286698 297995 1749.5 1800 203 483.14999389648 483.14999389648 98079.448760986 47387085.070241
3787	28505670 6409 287263 297995 1752.25 1800 192 0.973 11.568223747221 352.24982536673 1444.2384031167
3786	28512079 6967 287263 297995 1752.25 1800 192 -4.5 2.5 -9.2014446258545 274.29454004106
3785	28519046 6891 287210 297995 1752 1800 193 0 15.53867149353 951.29759461433 11349.909095707
3784	28525937 6958 287157 297995 1751.75 1800 194 565.53433227539 802.70781707764 120011.62096405 75277353.058486
3783	28532895 6983 287157 297995 1751.75 1800 194 483.14999389648 483.14999389648 93731.098815918 45286179.820821
3794	28539878 6158 287638 297995 1754 1800 185 0.973 11.61881887534 356.00715490382 1514.2155507602
3793	28546036 6662 287638 297995 1754 1800 185 -3.9289224147797 2.5 -12.968259811401 260.50583586797
3792	28552698 6675 287583 297995 1753.75 1800 186 0 15.609142303467 954.93394196965 11189.226913574
3791	28559373 6701 287528 297995 1753.5 1800 187 575.02230834961 813.50078582764 117718.87536621 75136033.469183
3790	28566074 6731 287528 297995 1753.5 1800 187 483.14999389648 483.14999389648 90349.048858643 43652142.404606
3801	28572805 5671 287967 297995 1755.5 1800 179 0.973 11.648172402475 325.38408404601 1434.1250465007
3800	28578476 6537 287967 297995 1755.5 1800 179 -3.8141379356384 2.5 -22.60000038147 179.59380349393
3799	28585013 6433 287912 297995 1755.25 1800 180 0 15.64999961853 1020.695929423 12229.150122661
3798	28591446 6514 287857 297995 1755 1800 181 486.85000610352 486.85000610352 88119.851104736 42901150.048182
3797	28597960 6498 287857 297995 1755 1800 181 530.49996948242 785.82187652588 107117.74848175 64626475.30618
3808	28604458 5556 288301 297995 1757 1800 173 0.973 11.200708441096 327.23833925136 1349.5714983383
3807	28610014 6357 288301 297995 1757 1800 173 -3.877375125885 2.5 -22.48705098033 182.71660139945
3806	28616371 6218 288244 297995 1756.75 1800 174 0 15.02499961853 1122.6324450448 13645.060139476
3805	28622589 6264 288187 297995 1756.5 1800 175 184.17810058594 465.13488769531 68170.439239502 28085052.972038
3804	28628853 6299 288187 297995 1756.5 1800 175 486.85000610352 486.85000610352 85198.751068115 41479012.477524
3815	28635152 4625 289183 297995 1761 1800 157 0.973 11.648172402475 299.81394646924 1405.1744110878
3814	28639777 4846 289183 297995 1761 1800 157 -4.2562484741211 2.5 -22.001738905907 231.84269321153
3813	28644623 4856 289128 297995 1760.75 1800 158 0 15.64999961853 989.84230589867 12796.767839092
3812	28649479 5723 289073 297995 1760.5 1800 159 486.85000610352 486.85000610352 77409.150970459 37686645.622436
3811	28655202 5711 289073 297995 1760.5 1800 159 538.50448608398 785.82187652588 95598.232795715 58580402.593432
3822	28660913 4715 289616 297995 1763 1800 149 0.973 11.200708441096 307.61009320397 1362.3411458569
3821	28665628 5406 289616 297995 1763 1800 149 -3.7608382701874 2.5 -22.372607976198 203.29393308682
3820	28671034 5358 289561 297995 1762.75 1800 150 0 15.59848690033 1092.4823762793 13191.269352054
3819	28676392 5409 289506 297995 1762.5 1800 151 184.17810058594 457.90948486328 56542.251068115 22434023.285657
3818	28681801 5435 289506 297995 1762.5 1800 151 486.85000610352 486.85000610352 73514.350921631 35790462.194892
3829	28687236 4303 290051 297995 1765 1800 141 0.973 11.200708441096 261.10421399074 1212.181094079
3828	28691539 5031 290051 297995 1765 1800 141 -3.7946839332581 2.5 -16.957618713379 173.38845174082
3827	28696570 5080 289996 297995 1764.75 1800 142 0 15.02499961853 808.94556602836 8438.6201449582
3826	28701650 5140 289941 297995 1764.5 1800 143 583.69436645508 785.82187652588 91370.700950623 58987869.505424
3825	28706790 5147 289941 297995 1764.5 1800 143 483.14999389648 483.14999389648 69090.449127197 33381050.074111
3836	28711937 4370 290275 297995 1766 1800 137 0.973 11.200708441096 287.24686239112 1303.8376245762
3835	28716307 4948 290275 297995 1766 1800 137 -4.5 2.5 -21.081902384758 237.66188341922
3834	28721255 4937 290218 297995 1765.75 1800 138 0 15.02499961853 1115.5475912914 14006.393024872
3833	28726192 4979 290161 297995 1765.5 1800 139 171.40313720703 450.29431152344 49825.708129883 19138523.198463
3832	28731171 5003 290161 297995 1765.5 1800 139 486.85000610352 486.85000610352 67672.150848389 32946187.053576
3843	28736174 3681 290939 297995 1769 1800 125 0.973 11.200708441096 256.98338428416 1238.7435751908
3842	28739855 4236 290939 297995 1769 1800 125 -3.5 2.5 -22.60000038147 170.46607269701
3841	28744091 4251 290883 297995 1768.75 1800 126 0 15.02499961853 959.1147197485 11376.399415217
3840	28748342 4571 290826 297995 1768.5 1800 127 486.85000610352 486.85000610352 61829.950775146 30101911.91226
3839	28752913 4552 290826 297995 1768.5 1800 127 545.71820068359 785.82187652588 79230.307746887 50278499.479182
3850	28757465 3656 291653 297995 1772.25 1800 112 0.973 10.756497587458 270.6731732305 1212.6280413625
3849	28761121 3444 291653 297995 1772.25 1800 112 -7.8153886795044 2.5 -22.60000038147 300.21385290824
3848	28764565 3758 291598 297995 1772 1800 113 0 14.39999961853 1146.2424900532 15187.43418989
3847	28768323 4103 291543 297995 1771.75 1800 114 483.14999389648 483.14999389648 55079.099304199 26611466.492648
3846	28772426 4078 291543 297995 1771.75 1800 114 184.17810058594 471.60000610352 40347.766448975 15419523.919558
3857	28776504 3514 291987 297995 1773.75 1800 106 0.973 10.756497587458 296.35500439937 1364.1844390663
3856	28780018 3597 291987 297995 1773.75 1800 106 -4.5 2.5 -22.60000038147 332.44175803847
3855	28783615 3672 291930 297995 1773.5 1800 107 0 15.966116905212 1203.4180442886 17260.92019315
3854	28787287 3888 291873 297995 1773.25 1800 108 483.14999389648 483.14999389648 52180.19934082 25210862.993035
3853	28791175 3867 291873 297995 1773.25 1800 108 163.88433837891 465.20104980469 36358.118591309 13438412.883961
3864	28795042 2777 292675 297995 1776.75 1800 94 0.973 11.200708441096 215.1666875235 1173.0225603085
3863	28797819 3360 292675 297995 1776.75 1800 94 -1.6492309570312 2.5 -17.892116069794 148.25386111942
3862	28801179 3395 292616 297995 1776.5 1800 95 1.176971077919 15.02499961853 925.99781692028 10997.138727835
3861	28804574 3456 292557 297995 1776.25 1800 96 486.85000610352 486.85000610352 46737.600585938 22754201.130527
3860	28808030 3448 292557 297995 1776.25 1800 96 554.38323974609 785.82187652588 62458.222999573 41221281.129456
3871	28811478 2434 293800 297995 1781.5 1800 75 0.973 11.648172402475 225.99793317138 1349.5739705624
3870	28813912 2616 293800 297995 1781.5 1800 75 -2.0557518005371 2.5 0.37159538269043 160.73449376187
3869	28816528 2720 293739 297995 1781.25 1800 76 5.6500000953674 15.64999961853 936.6129693985 12381.428226593
3868	28819248 2739 293678 297995 1781 1800 77 184.17810058594 416.52154541016 23279.428009033 7484968.2580626
3867	28821987 2770 293678 297995 1781 1800 77 486.85000610352 486.85000610352 37487.450469971 18250765.49011
3878	28824757 144 297839 297995 1799.25 1800 4 5.2162187258585 6.4635356930995 23.356389703243 137.24455235531
3877	28824901 108 297839 297995 1799.25 1800 4 2.4999980926514 2.5 9.9999980926514 24.99999046326
3876	28825009 178 297788 297995 1799 1800 5 5.6500000953674 8.1499996185303 34.5 241.95624880791
3875	28825187 215 297737 297995 1798.75 1800 6 483.14999389648 483.14999389648 2898.8999633789 1400603.499613
3874	28825402 210 297737 297995 1798.75 1800 6 184.17810058594 190.453125 1119.9749755859 209089.4263842
3883	28825612 34 297995 297995 1800 1800 1 5.6500000953674 5.6500000953674 5.6500000953674 31.922501077652
3882	28825646 71 297941 297995 1799.75 1800 2 486.85000610352 486.85000610352 973.70001220703 474045.85688599
3881	28825717 71 297941 297995 1799.75 1800 2 785.82187652588 785.82187652588 1571.6437530518 1235032.0432533
6	28825788 521 0 297994 0 1800 31 0 32 778 20616
7	28826309 541 0 297994 0 1800 31 0 319 4979 1086565
