version 2
run nodebug-12-20200606-01:48:09-22484
attr configname nodebug
attr datetime 20200606-01:48:09
attr experiment nodebug
attr inifile omnetpp.ini
attr iterationvars ""
attr iterationvars2 $repetition=12
attr measurement ""
attr network "\"org.car2x.veins.modules.application.ExtTraCIScenarioManagerLaunchd.IntersectionExampleScenario\""
attr processid 22484
attr repetition 12
attr replication #12
attr resultdir results
attr runnumber 12
attr seedset 12
param **.coreDebug false
param **.debug false
param *.**.nic.mac1609_4.bitrate 18Mbps
param *.**.nic.mac1609_4.txPower 20mW
param *.**.nic.mac1609_4.useServiceChannel false
param *.**.nic.phy80211p.analogueModels "xmldoc(\"config.xml\")"
param *.**.nic.phy80211p.decider "xmldoc(\"config.xml\")"
param *.**.nic.phy80211p.sensitivity -89dBm
param *.**.nic.phy80211p.thermalNoise -110dBm
param *.**.nic.phy80211p.usePropagationDelay true
param *.**.nic.phy80211p.useThermalNoise true
param *.annotations.draw false
param *.connectionManager.alpha 2.0
param *.connectionManager.carrierFrequency "5.890e9 Hz"
param *.connectionManager.pMax 20mW
param *.connectionManager.sat -89dBm
param *.connectionManager.sendDirect true
param *.manager.autoShutdown true
param *.manager.host "\"localhost\""
param *.manager.launchConfig "xmldoc(\"paramics.launchd.xml\")"
param *.manager.margin 25
param *.manager.moduleDisplayString "\"\""
param *.manager.moduleName "\"node\""
param *.manager.moduleType "\"org.car2x.veins.nodes.Car\""
param *.manager.port 9999
param *.manager.updateInterval 250ms
param *.node[*0].veinsmobility.accidentCount 0
param *.node[*0].veinsmobility.accidentDuration 30s
param *.node[*0].veinsmobility.accidentStart 75s
param *.node[*].appl.LiderSelectZoneRadio 55.0
param *.node[*].appl.ShareDataZoneRadio 110.0
param *.node[*].appl.TiempoSemaforo 30.0
param *.node[*].appl.beaconInterval 1s
param *.node[*].appl.beaconPriority 3
param *.node[*].appl.dataOnSch false
param *.node[*].appl.dataPriority 2
param *.node[*].appl.debug false
param *.node[*].appl.headerLength "256 bit"
param *.node[*].appl.maxOffset 0.005s
param *.node[*].appl.sendBeacons false
param *.node[*].appl.sendData true
param *.node[*].applType "\"Dummy\""
param *.node[*].mobilityType "\"TraCIMobility\""
param *.node[*].mobilityType.debug true
param *.node[*].veinsmobility.x 0
param *.node[*].veinsmobility.y 0
param *.node[*].veinsmobility.z 1.895
param *.node[*].veinsmobilityType "\"org.car2x.veins.modules.mobility.traci.TraCIMobility\""
param *.node[*].veinsmobilityType.debug true
param *.playgroundSizeX 8500m
param *.playgroundSizeY 8500m
param *.playgroundSizeZ 50m
param *.world.use2D false
param *.world.useTorus false

scalar IntersectionExampleScenario.node[2].appl 	VehicleRemoved 	0
scalar IntersectionExampleScenario.node[2].appl 	ArrivedAtDest 	1
scalar IntersectionExampleScenario.node[2].appl 	IntersectionEnterTime 	7.5
scalar IntersectionExampleScenario.node[2].appl 	IntersectionExitTime 	31.325760397362
scalar IntersectionExampleScenario.node[2].appl 	NumberOfCollisions 	0
scalar IntersectionExampleScenario.node[2].nic.phy80211p 	busyTime 	0
scalar IntersectionExampleScenario.node[2].nic.mac1609_4 	ReceivedUnicastPackets 	0
scalar IntersectionExampleScenario.node[2].nic.mac1609_4 	ReceivedBroadcasts 	0
scalar IntersectionExampleScenario.node[2].nic.mac1609_4 	SentPackets 	0
scalar IntersectionExampleScenario.node[2].nic.mac1609_4 	SNIRLostPackets 	0
scalar IntersectionExampleScenario.node[2].nic.mac1609_4 	RXTXLostPackets 	0
scalar IntersectionExampleScenario.node[2].nic.mac1609_4 	TotalLostPackets 	0
scalar IntersectionExampleScenario.node[2].nic.mac1609_4 	DroppedPacketsInMac 	0
scalar IntersectionExampleScenario.node[2].nic.mac1609_4 	TooLittleTime 	0
scalar IntersectionExampleScenario.node[2].nic.mac1609_4 	TimesIntoBackoff 	0
scalar IntersectionExampleScenario.node[2].nic.mac1609_4 	SlotsBackoff 	0
scalar IntersectionExampleScenario.node[2].nic.mac1609_4 	NumInternalContention 	0
scalar IntersectionExampleScenario.node[2].nic.mac1609_4 	totalBusyTime 	0
scalar IntersectionExampleScenario.node[2].veinsmobility 	startTime 	7.5
scalar IntersectionExampleScenario.node[2].veinsmobility 	totalTime 	40.5
scalar IntersectionExampleScenario.node[2].veinsmobility 	stopTime 	48.25
scalar IntersectionExampleScenario.node[2].veinsmobility 	minSpeed 	5.6500000953674
scalar IntersectionExampleScenario.node[2].veinsmobility 	maxSpeed 	15.02499961853
scalar IntersectionExampleScenario.node[2].veinsmobility 	totalDistance 	548.9492850568
scalar IntersectionExampleScenario.node[2].veinsmobility 	totalCO2Emission 	118.99422540761
scalar IntersectionExampleScenario.node[6].appl 	VehicleRemoved 	0
scalar IntersectionExampleScenario.node[6].appl 	ArrivedAtDest 	1
scalar IntersectionExampleScenario.node[6].appl 	IntersectionEnterTime 	13
scalar IntersectionExampleScenario.node[6].appl 	IntersectionExitTime 	36.102021037368
scalar IntersectionExampleScenario.node[6].appl 	NumberOfCollisions 	0
scalar IntersectionExampleScenario.node[6].nic.phy80211p 	busyTime 	0
scalar IntersectionExampleScenario.node[6].nic.mac1609_4 	ReceivedUnicastPackets 	0
scalar IntersectionExampleScenario.node[6].nic.mac1609_4 	ReceivedBroadcasts 	0
scalar IntersectionExampleScenario.node[6].nic.mac1609_4 	SentPackets 	0
scalar IntersectionExampleScenario.node[6].nic.mac1609_4 	SNIRLostPackets 	0
scalar IntersectionExampleScenario.node[6].nic.mac1609_4 	RXTXLostPackets 	0
scalar IntersectionExampleScenario.node[6].nic.mac1609_4 	TotalLostPackets 	0
scalar IntersectionExampleScenario.node[6].nic.mac1609_4 	DroppedPacketsInMac 	0
scalar IntersectionExampleScenario.node[6].nic.mac1609_4 	TooLittleTime 	0
scalar IntersectionExampleScenario.node[6].nic.mac1609_4 	TimesIntoBackoff 	0
scalar IntersectionExampleScenario.node[6].nic.mac1609_4 	SlotsBackoff 	0
scalar IntersectionExampleScenario.node[6].nic.mac1609_4 	NumInternalContention 	0
scalar IntersectionExampleScenario.node[6].nic.mac1609_4 	totalBusyTime 	0
scalar IntersectionExampleScenario.node[6].veinsmobility 	startTime 	13
scalar IntersectionExampleScenario.node[6].veinsmobility 	totalTime 	39
scalar IntersectionExampleScenario.node[6].veinsmobility 	stopTime 	52.25
scalar IntersectionExampleScenario.node[6].veinsmobility 	minSpeed 	5.6500000953674
scalar IntersectionExampleScenario.node[6].veinsmobility 	maxSpeed 	16
scalar IntersectionExampleScenario.node[6].veinsmobility 	totalDistance 	548.55616205961
scalar IntersectionExampleScenario.node[6].veinsmobility 	totalCO2Emission 	123.88070095533
scalar IntersectionExampleScenario.node[13].appl 	VehicleRemoved 	0
scalar IntersectionExampleScenario.node[13].appl 	ArrivedAtDest 	1
scalar IntersectionExampleScenario.node[13].appl 	IntersectionEnterTime 	31.5
scalar IntersectionExampleScenario.node[13].appl 	IntersectionExitTime 	54.305399946577
scalar IntersectionExampleScenario.node[13].appl 	NumberOfCollisions 	0
scalar IntersectionExampleScenario.node[13].nic.phy80211p 	busyTime 	0
scalar IntersectionExampleScenario.node[13].nic.mac1609_4 	ReceivedUnicastPackets 	0
scalar IntersectionExampleScenario.node[13].nic.mac1609_4 	ReceivedBroadcasts 	0
scalar IntersectionExampleScenario.node[13].nic.mac1609_4 	SentPackets 	0
scalar IntersectionExampleScenario.node[13].nic.mac1609_4 	SNIRLostPackets 	0
scalar IntersectionExampleScenario.node[13].nic.mac1609_4 	RXTXLostPackets 	0
scalar IntersectionExampleScenario.node[13].nic.mac1609_4 	TotalLostPackets 	0
scalar IntersectionExampleScenario.node[13].nic.mac1609_4 	DroppedPacketsInMac 	0
scalar IntersectionExampleScenario.node[13].nic.mac1609_4 	TooLittleTime 	0
scalar IntersectionExampleScenario.node[13].nic.mac1609_4 	TimesIntoBackoff 	0
scalar IntersectionExampleScenario.node[13].nic.mac1609_4 	SlotsBackoff 	0
scalar IntersectionExampleScenario.node[13].nic.mac1609_4 	NumInternalContention 	0
scalar IntersectionExampleScenario.node[13].nic.mac1609_4 	totalBusyTime 	0
scalar IntersectionExampleScenario.node[13].veinsmobility 	startTime 	31.5
scalar IntersectionExampleScenario.node[13].veinsmobility 	totalTime 	39
scalar IntersectionExampleScenario.node[13].veinsmobility 	stopTime 	70.75
scalar IntersectionExampleScenario.node[13].veinsmobility 	minSpeed 	5.6500000953674
scalar IntersectionExampleScenario.node[13].veinsmobility 	maxSpeed 	16.5
scalar IntersectionExampleScenario.node[13].veinsmobility 	totalDistance 	546.83558375209
scalar IntersectionExampleScenario.node[13].veinsmobility 	totalCO2Emission 	131.45763333526
scalar IntersectionExampleScenario.node[15].appl 	VehicleRemoved 	0
scalar IntersectionExampleScenario.node[15].appl 	ArrivedAtDest 	1
scalar IntersectionExampleScenario.node[15].appl 	IntersectionEnterTime 	33.5
scalar IntersectionExampleScenario.node[15].appl 	IntersectionExitTime 	57.836690932483
scalar IntersectionExampleScenario.node[15].appl 	NumberOfCollisions 	0
scalar IntersectionExampleScenario.node[15].nic.phy80211p 	busyTime 	0
scalar IntersectionExampleScenario.node[15].nic.mac1609_4 	ReceivedUnicastPackets 	0
scalar IntersectionExampleScenario.node[15].nic.mac1609_4 	ReceivedBroadcasts 	0
scalar IntersectionExampleScenario.node[15].nic.mac1609_4 	SentPackets 	0
scalar IntersectionExampleScenario.node[15].nic.mac1609_4 	SNIRLostPackets 	0
scalar IntersectionExampleScenario.node[15].nic.mac1609_4 	RXTXLostPackets 	0
scalar IntersectionExampleScenario.node[15].nic.mac1609_4 	TotalLostPackets 	0
scalar IntersectionExampleScenario.node[15].nic.mac1609_4 	DroppedPacketsInMac 	0
scalar IntersectionExampleScenario.node[15].nic.mac1609_4 	TooLittleTime 	0
scalar IntersectionExampleScenario.node[15].nic.mac1609_4 	TimesIntoBackoff 	0
scalar IntersectionExampleScenario.node[15].nic.mac1609_4 	SlotsBackoff 	0
scalar IntersectionExampleScenario.node[15].nic.mac1609_4 	NumInternalContention 	0
scalar IntersectionExampleScenario.node[15].nic.mac1609_4 	totalBusyTime 	0
scalar IntersectionExampleScenario.node[15].veinsmobility 	startTime 	33.5
scalar IntersectionExampleScenario.node[15].veinsmobility 	totalTime 	40.5
scalar IntersectionExampleScenario.node[15].veinsmobility 	stopTime 	74.25
scalar IntersectionExampleScenario.node[15].veinsmobility 	minSpeed 	5.6500000953674
scalar IntersectionExampleScenario.node[15].veinsmobility 	maxSpeed 	15.64999961853
scalar IntersectionExampleScenario.node[15].veinsmobility 	totalDistance 	567.01061518283
scalar IntersectionExampleScenario.node[15].veinsmobility 	totalCO2Emission 	126.37813359162
scalar IntersectionExampleScenario.node[4].appl 	VehicleRemoved 	0
scalar IntersectionExampleScenario.node[4].appl 	ArrivedAtDest 	1
scalar IntersectionExampleScenario.node[4].appl 	IntersectionEnterTime 	12
scalar IntersectionExampleScenario.node[4].appl 	IntersectionExitTime 	63.77008959424
scalar IntersectionExampleScenario.node[4].appl 	NumberOfCollisions 	0
scalar IntersectionExampleScenario.node[4].nic.phy80211p 	busyTime 	0
scalar IntersectionExampleScenario.node[4].nic.mac1609_4 	ReceivedUnicastPackets 	0
scalar IntersectionExampleScenario.node[4].nic.mac1609_4 	ReceivedBroadcasts 	0
scalar IntersectionExampleScenario.node[4].nic.mac1609_4 	SentPackets 	0
scalar IntersectionExampleScenario.node[4].nic.mac1609_4 	SNIRLostPackets 	0
scalar IntersectionExampleScenario.node[4].nic.mac1609_4 	RXTXLostPackets 	0
scalar IntersectionExampleScenario.node[4].nic.mac1609_4 	TotalLostPackets 	0
scalar IntersectionExampleScenario.node[4].nic.mac1609_4 	DroppedPacketsInMac 	0
scalar IntersectionExampleScenario.node[4].nic.mac1609_4 	TooLittleTime 	0
scalar IntersectionExampleScenario.node[4].nic.mac1609_4 	TimesIntoBackoff 	0
scalar IntersectionExampleScenario.node[4].nic.mac1609_4 	SlotsBackoff 	0
scalar IntersectionExampleScenario.node[4].nic.mac1609_4 	NumInternalContention 	0
scalar IntersectionExampleScenario.node[4].nic.mac1609_4 	totalBusyTime 	0
scalar IntersectionExampleScenario.node[4].veinsmobility 	startTime 	12
scalar IntersectionExampleScenario.node[4].veinsmobility 	totalTime 	67.75
scalar IntersectionExampleScenario.node[4].veinsmobility 	stopTime 	80
scalar IntersectionExampleScenario.node[4].veinsmobility 	minSpeed 	0
scalar IntersectionExampleScenario.node[4].veinsmobility 	maxSpeed 	16
scalar IntersectionExampleScenario.node[4].veinsmobility 	totalDistance 	551.38068514299
scalar IntersectionExampleScenario.node[4].veinsmobility 	totalCO2Emission 	162.21997445826
scalar IntersectionExampleScenario.node[10].appl 	VehicleRemoved 	0
scalar IntersectionExampleScenario.node[10].appl 	ArrivedAtDest 	1
scalar IntersectionExampleScenario.node[10].appl 	IntersectionEnterTime 	28.5
scalar IntersectionExampleScenario.node[10].appl 	IntersectionExitTime 	65.283571971871
scalar IntersectionExampleScenario.node[10].appl 	NumberOfCollisions 	0
scalar IntersectionExampleScenario.node[10].nic.phy80211p 	busyTime 	0
scalar IntersectionExampleScenario.node[10].nic.mac1609_4 	ReceivedUnicastPackets 	0
scalar IntersectionExampleScenario.node[10].nic.mac1609_4 	ReceivedBroadcasts 	0
scalar IntersectionExampleScenario.node[10].nic.mac1609_4 	SentPackets 	0
scalar IntersectionExampleScenario.node[10].nic.mac1609_4 	SNIRLostPackets 	0
scalar IntersectionExampleScenario.node[10].nic.mac1609_4 	RXTXLostPackets 	0
scalar IntersectionExampleScenario.node[10].nic.mac1609_4 	TotalLostPackets 	0
scalar IntersectionExampleScenario.node[10].nic.mac1609_4 	DroppedPacketsInMac 	0
scalar IntersectionExampleScenario.node[10].nic.mac1609_4 	TooLittleTime 	0
scalar IntersectionExampleScenario.node[10].nic.mac1609_4 	TimesIntoBackoff 	0
scalar IntersectionExampleScenario.node[10].nic.mac1609_4 	SlotsBackoff 	0
scalar IntersectionExampleScenario.node[10].nic.mac1609_4 	NumInternalContention 	0
scalar IntersectionExampleScenario.node[10].nic.mac1609_4 	totalBusyTime 	0
scalar IntersectionExampleScenario.node[10].veinsmobility 	startTime 	28.5
scalar IntersectionExampleScenario.node[10].veinsmobility 	totalTime 	53
scalar IntersectionExampleScenario.node[10].veinsmobility 	stopTime 	81.75
scalar IntersectionExampleScenario.node[10].veinsmobility 	minSpeed 	0
scalar IntersectionExampleScenario.node[10].veinsmobility 	maxSpeed 	16.27499961853
scalar IntersectionExampleScenario.node[10].veinsmobility 	totalDistance 	543.59049456621
scalar IntersectionExampleScenario.node[10].veinsmobility 	totalCO2Emission 	145.33938844468
scalar IntersectionExampleScenario.node[14].appl 	VehicleRemoved 	0
scalar IntersectionExampleScenario.node[14].appl 	ArrivedAtDest 	1
scalar IntersectionExampleScenario.node[14].appl 	IntersectionEnterTime 	33
scalar IntersectionExampleScenario.node[14].appl 	IntersectionExitTime 	67.551277651626
scalar IntersectionExampleScenario.node[14].appl 	NumberOfCollisions 	0
scalar IntersectionExampleScenario.node[14].nic.phy80211p 	busyTime 	0
scalar IntersectionExampleScenario.node[14].nic.mac1609_4 	ReceivedUnicastPackets 	0
scalar IntersectionExampleScenario.node[14].nic.mac1609_4 	ReceivedBroadcasts 	0
scalar IntersectionExampleScenario.node[14].nic.mac1609_4 	SentPackets 	0
scalar IntersectionExampleScenario.node[14].nic.mac1609_4 	SNIRLostPackets 	0
scalar IntersectionExampleScenario.node[14].nic.mac1609_4 	RXTXLostPackets 	0
scalar IntersectionExampleScenario.node[14].nic.mac1609_4 	TotalLostPackets 	0
scalar IntersectionExampleScenario.node[14].nic.mac1609_4 	DroppedPacketsInMac 	0
scalar IntersectionExampleScenario.node[14].nic.mac1609_4 	TooLittleTime 	0
scalar IntersectionExampleScenario.node[14].nic.mac1609_4 	TimesIntoBackoff 	0
scalar IntersectionExampleScenario.node[14].nic.mac1609_4 	SlotsBackoff 	0
scalar IntersectionExampleScenario.node[14].nic.mac1609_4 	NumInternalContention 	0
scalar IntersectionExampleScenario.node[14].nic.mac1609_4 	totalBusyTime 	0
scalar IntersectionExampleScenario.node[14].veinsmobility 	startTime 	33
scalar IntersectionExampleScenario.node[14].veinsmobility 	totalTime 	50.5
scalar IntersectionExampleScenario.node[14].veinsmobility 	stopTime 	83.75
scalar IntersectionExampleScenario.node[14].veinsmobility 	minSpeed 	1.7403652667999
scalar IntersectionExampleScenario.node[14].veinsmobility 	maxSpeed 	16
scalar IntersectionExampleScenario.node[14].veinsmobility 	totalDistance 	550.7184976653
scalar IntersectionExampleScenario.node[14].veinsmobility 	totalCO2Emission 	141.80495364205
scalar IntersectionExampleScenario.node[18].appl 	VehicleRemoved 	0
scalar IntersectionExampleScenario.node[18].appl 	ArrivedAtDest 	1
scalar IntersectionExampleScenario.node[18].appl 	IntersectionEnterTime 	43.5
scalar IntersectionExampleScenario.node[18].appl 	IntersectionExitTime 	69.606001950568
scalar IntersectionExampleScenario.node[18].appl 	NumberOfCollisions 	0
scalar IntersectionExampleScenario.node[18].nic.phy80211p 	busyTime 	0
scalar IntersectionExampleScenario.node[18].nic.mac1609_4 	ReceivedUnicastPackets 	0
scalar IntersectionExampleScenario.node[18].nic.mac1609_4 	ReceivedBroadcasts 	0
scalar IntersectionExampleScenario.node[18].nic.mac1609_4 	SentPackets 	0
scalar IntersectionExampleScenario.node[18].nic.mac1609_4 	SNIRLostPackets 	0
scalar IntersectionExampleScenario.node[18].nic.mac1609_4 	RXTXLostPackets 	0
scalar IntersectionExampleScenario.node[18].nic.mac1609_4 	TotalLostPackets 	0
scalar IntersectionExampleScenario.node[18].nic.mac1609_4 	DroppedPacketsInMac 	0
scalar IntersectionExampleScenario.node[18].nic.mac1609_4 	TooLittleTime 	0
scalar IntersectionExampleScenario.node[18].nic.mac1609_4 	TimesIntoBackoff 	0
scalar IntersectionExampleScenario.node[18].nic.mac1609_4 	SlotsBackoff 	0
scalar IntersectionExampleScenario.node[18].nic.mac1609_4 	NumInternalContention 	0
scalar IntersectionExampleScenario.node[18].nic.mac1609_4 	totalBusyTime 	0
scalar IntersectionExampleScenario.node[18].veinsmobility 	startTime 	43.5
scalar IntersectionExampleScenario.node[18].veinsmobility 	totalTime 	42
scalar IntersectionExampleScenario.node[18].veinsmobility 	stopTime 	85.75
scalar IntersectionExampleScenario.node[18].veinsmobility 	minSpeed 	5.6500000953674
scalar IntersectionExampleScenario.node[18].veinsmobility 	maxSpeed 	15.64999961853
scalar IntersectionExampleScenario.node[18].veinsmobility 	totalDistance 	553.88212585449
scalar IntersectionExampleScenario.node[18].veinsmobility 	totalCO2Emission 	133.40945845567
scalar IntersectionExampleScenario.node[0].appl 	VehicleRemoved 	0
scalar IntersectionExampleScenario.node[0].appl 	ArrivedAtDest 	1
scalar IntersectionExampleScenario.node[0].appl 	IntersectionEnterTime 	1.5
scalar IntersectionExampleScenario.node[0].appl 	IntersectionExitTime 	93.566717423586
scalar IntersectionExampleScenario.node[0].appl 	NumberOfCollisions 	0
scalar IntersectionExampleScenario.node[0].nic.phy80211p 	busyTime 	0
scalar IntersectionExampleScenario.node[0].nic.mac1609_4 	ReceivedUnicastPackets 	0
scalar IntersectionExampleScenario.node[0].nic.mac1609_4 	ReceivedBroadcasts 	0
scalar IntersectionExampleScenario.node[0].nic.mac1609_4 	SentPackets 	0
scalar IntersectionExampleScenario.node[0].nic.mac1609_4 	SNIRLostPackets 	0
scalar IntersectionExampleScenario.node[0].nic.mac1609_4 	RXTXLostPackets 	0
scalar IntersectionExampleScenario.node[0].nic.mac1609_4 	TotalLostPackets 	0
scalar IntersectionExampleScenario.node[0].nic.mac1609_4 	DroppedPacketsInMac 	0
scalar IntersectionExampleScenario.node[0].nic.mac1609_4 	TooLittleTime 	0
scalar IntersectionExampleScenario.node[0].nic.mac1609_4 	TimesIntoBackoff 	0
scalar IntersectionExampleScenario.node[0].nic.mac1609_4 	SlotsBackoff 	0
scalar IntersectionExampleScenario.node[0].nic.mac1609_4 	NumInternalContention 	0
scalar IntersectionExampleScenario.node[0].nic.mac1609_4 	totalBusyTime 	0
scalar IntersectionExampleScenario.node[0].veinsmobility 	startTime 	1.5
scalar IntersectionExampleScenario.node[0].veinsmobility 	totalTime 	109
scalar IntersectionExampleScenario.node[0].veinsmobility 	stopTime 	110.75
scalar IntersectionExampleScenario.node[0].veinsmobility 	minSpeed 	0
scalar IntersectionExampleScenario.node[0].veinsmobility 	maxSpeed 	15.25
scalar IntersectionExampleScenario.node[0].veinsmobility 	totalDistance 	545.00277615935
scalar IntersectionExampleScenario.node[0].veinsmobility 	totalCO2Emission 	197.29294151024
scalar IntersectionExampleScenario.node[1].appl 	VehicleRemoved 	0
scalar IntersectionExampleScenario.node[1].appl 	ArrivedAtDest 	1
scalar IntersectionExampleScenario.node[1].appl 	IntersectionEnterTime 	5.5
scalar IntersectionExampleScenario.node[1].appl 	IntersectionExitTime 	95.254177678755
scalar IntersectionExampleScenario.node[1].appl 	NumberOfCollisions 	0
scalar IntersectionExampleScenario.node[1].nic.phy80211p 	busyTime 	0
scalar IntersectionExampleScenario.node[1].nic.mac1609_4 	ReceivedUnicastPackets 	0
scalar IntersectionExampleScenario.node[1].nic.mac1609_4 	ReceivedBroadcasts 	0
scalar IntersectionExampleScenario.node[1].nic.mac1609_4 	SentPackets 	0
scalar IntersectionExampleScenario.node[1].nic.mac1609_4 	SNIRLostPackets 	0
scalar IntersectionExampleScenario.node[1].nic.mac1609_4 	RXTXLostPackets 	0
scalar IntersectionExampleScenario.node[1].nic.mac1609_4 	TotalLostPackets 	0
scalar IntersectionExampleScenario.node[1].nic.mac1609_4 	DroppedPacketsInMac 	0
scalar IntersectionExampleScenario.node[1].nic.mac1609_4 	TooLittleTime 	0
scalar IntersectionExampleScenario.node[1].nic.mac1609_4 	TimesIntoBackoff 	0
scalar IntersectionExampleScenario.node[1].nic.mac1609_4 	SlotsBackoff 	0
scalar IntersectionExampleScenario.node[1].nic.mac1609_4 	NumInternalContention 	0
scalar IntersectionExampleScenario.node[1].nic.mac1609_4 	totalBusyTime 	0
scalar IntersectionExampleScenario.node[1].veinsmobility 	startTime 	5.5
scalar IntersectionExampleScenario.node[1].veinsmobility 	totalTime 	107
scalar IntersectionExampleScenario.node[1].veinsmobility 	stopTime 	112.75
scalar IntersectionExampleScenario.node[1].veinsmobility 	minSpeed 	0
scalar IntersectionExampleScenario.node[1].veinsmobility 	maxSpeed 	14.39999961853
scalar IntersectionExampleScenario.node[1].veinsmobility 	totalDistance 	558.1145324707
scalar IntersectionExampleScenario.node[1].veinsmobility 	totalCO2Emission 	187.70513331553
scalar IntersectionExampleScenario.node[3].appl 	VehicleRemoved 	0
scalar IntersectionExampleScenario.node[3].appl 	ArrivedAtDest 	1
scalar IntersectionExampleScenario.node[3].appl 	IntersectionEnterTime 	8.5
scalar IntersectionExampleScenario.node[3].appl 	IntersectionExitTime 	97.565153253352
scalar IntersectionExampleScenario.node[3].appl 	NumberOfCollisions 	0
scalar IntersectionExampleScenario.node[3].nic.phy80211p 	busyTime 	0
scalar IntersectionExampleScenario.node[3].nic.mac1609_4 	ReceivedUnicastPackets 	0
scalar IntersectionExampleScenario.node[3].nic.mac1609_4 	ReceivedBroadcasts 	0
scalar IntersectionExampleScenario.node[3].nic.mac1609_4 	SentPackets 	0
scalar IntersectionExampleScenario.node[3].nic.mac1609_4 	SNIRLostPackets 	0
scalar IntersectionExampleScenario.node[3].nic.mac1609_4 	RXTXLostPackets 	0
scalar IntersectionExampleScenario.node[3].nic.mac1609_4 	TotalLostPackets 	0
scalar IntersectionExampleScenario.node[3].nic.mac1609_4 	DroppedPacketsInMac 	0
scalar IntersectionExampleScenario.node[3].nic.mac1609_4 	TooLittleTime 	0
scalar IntersectionExampleScenario.node[3].nic.mac1609_4 	TimesIntoBackoff 	0
scalar IntersectionExampleScenario.node[3].nic.mac1609_4 	SlotsBackoff 	0
scalar IntersectionExampleScenario.node[3].nic.mac1609_4 	NumInternalContention 	0
scalar IntersectionExampleScenario.node[3].nic.mac1609_4 	totalBusyTime 	0
scalar IntersectionExampleScenario.node[3].veinsmobility 	startTime 	8.5
scalar IntersectionExampleScenario.node[3].veinsmobility 	totalTime 	105.75
scalar IntersectionExampleScenario.node[3].veinsmobility 	stopTime 	114.5
scalar IntersectionExampleScenario.node[3].veinsmobility 	minSpeed 	0
scalar IntersectionExampleScenario.node[3].veinsmobility 	maxSpeed 	15.105480194092
scalar IntersectionExampleScenario.node[3].veinsmobility 	totalDistance 	570.26066589355
scalar IntersectionExampleScenario.node[3].veinsmobility 	totalCO2Emission 	197.15640690653
scalar IntersectionExampleScenario.node[5].appl 	VehicleRemoved 	0
scalar IntersectionExampleScenario.node[5].appl 	ArrivedAtDest 	1
scalar IntersectionExampleScenario.node[5].appl 	IntersectionEnterTime 	12.25
scalar IntersectionExampleScenario.node[5].appl 	IntersectionExitTime 	100.01453412784
scalar IntersectionExampleScenario.node[5].appl 	NumberOfCollisions 	0
scalar IntersectionExampleScenario.node[5].nic.phy80211p 	busyTime 	0
scalar IntersectionExampleScenario.node[5].nic.mac1609_4 	ReceivedUnicastPackets 	0
scalar IntersectionExampleScenario.node[5].nic.mac1609_4 	ReceivedBroadcasts 	0
scalar IntersectionExampleScenario.node[5].nic.mac1609_4 	SentPackets 	0
scalar IntersectionExampleScenario.node[5].nic.mac1609_4 	SNIRLostPackets 	0
scalar IntersectionExampleScenario.node[5].nic.mac1609_4 	RXTXLostPackets 	0
scalar IntersectionExampleScenario.node[5].nic.mac1609_4 	TotalLostPackets 	0
scalar IntersectionExampleScenario.node[5].nic.mac1609_4 	DroppedPacketsInMac 	0
scalar IntersectionExampleScenario.node[5].nic.mac1609_4 	TooLittleTime 	0
scalar IntersectionExampleScenario.node[5].nic.mac1609_4 	TimesIntoBackoff 	0
scalar IntersectionExampleScenario.node[5].nic.mac1609_4 	SlotsBackoff 	0
scalar IntersectionExampleScenario.node[5].nic.mac1609_4 	NumInternalContention 	0
scalar IntersectionExampleScenario.node[5].nic.mac1609_4 	totalBusyTime 	0
scalar IntersectionExampleScenario.node[5].veinsmobility 	startTime 	12.25
scalar IntersectionExampleScenario.node[5].veinsmobility 	totalTime 	103.75
scalar IntersectionExampleScenario.node[5].veinsmobility 	stopTime 	116.25
scalar IntersectionExampleScenario.node[5].veinsmobility 	minSpeed 	0
scalar IntersectionExampleScenario.node[5].veinsmobility 	maxSpeed 	16
scalar IntersectionExampleScenario.node[5].veinsmobility 	totalDistance 	565.10961187405
scalar IntersectionExampleScenario.node[5].veinsmobility 	totalCO2Emission 	198.98203930288
scalar IntersectionExampleScenario.node[7].appl 	VehicleRemoved 	0
scalar IntersectionExampleScenario.node[7].appl 	ArrivedAtDest 	1
scalar IntersectionExampleScenario.node[7].appl 	IntersectionEnterTime 	16.5
scalar IntersectionExampleScenario.node[7].appl 	IntersectionExitTime 	102.04094618384
scalar IntersectionExampleScenario.node[7].appl 	NumberOfCollisions 	0
scalar IntersectionExampleScenario.node[7].nic.phy80211p 	busyTime 	0
scalar IntersectionExampleScenario.node[7].nic.mac1609_4 	ReceivedUnicastPackets 	0
scalar IntersectionExampleScenario.node[7].nic.mac1609_4 	ReceivedBroadcasts 	0
scalar IntersectionExampleScenario.node[7].nic.mac1609_4 	SentPackets 	0
scalar IntersectionExampleScenario.node[7].nic.mac1609_4 	SNIRLostPackets 	0
scalar IntersectionExampleScenario.node[7].nic.mac1609_4 	RXTXLostPackets 	0
scalar IntersectionExampleScenario.node[7].nic.mac1609_4 	TotalLostPackets 	0
scalar IntersectionExampleScenario.node[7].nic.mac1609_4 	DroppedPacketsInMac 	0
scalar IntersectionExampleScenario.node[7].nic.mac1609_4 	TooLittleTime 	0
scalar IntersectionExampleScenario.node[7].nic.mac1609_4 	TimesIntoBackoff 	0
scalar IntersectionExampleScenario.node[7].nic.mac1609_4 	SlotsBackoff 	0
scalar IntersectionExampleScenario.node[7].nic.mac1609_4 	NumInternalContention 	0
scalar IntersectionExampleScenario.node[7].nic.mac1609_4 	totalBusyTime 	0
scalar IntersectionExampleScenario.node[7].veinsmobility 	startTime 	16.5
scalar IntersectionExampleScenario.node[7].veinsmobility 	totalTime 	101.75
scalar IntersectionExampleScenario.node[7].veinsmobility 	stopTime 	118.5
scalar IntersectionExampleScenario.node[7].veinsmobility 	minSpeed 	0
scalar IntersectionExampleScenario.node[7].veinsmobility 	maxSpeed 	15.844025611877
scalar IntersectionExampleScenario.node[7].veinsmobility 	totalDistance 	563.7321796271
scalar IntersectionExampleScenario.node[7].veinsmobility 	totalCO2Emission 	195.69832745768
scalar IntersectionExampleScenario.node[12].appl 	VehicleRemoved 	0
scalar IntersectionExampleScenario.node[12].appl 	ArrivedAtDest 	1
scalar IntersectionExampleScenario.node[12].appl 	IntersectionEnterTime 	31
scalar IntersectionExampleScenario.node[12].appl 	IntersectionExitTime 	103.78298783823
scalar IntersectionExampleScenario.node[12].appl 	NumberOfCollisions 	0
scalar IntersectionExampleScenario.node[12].nic.phy80211p 	busyTime 	0
scalar IntersectionExampleScenario.node[12].nic.mac1609_4 	ReceivedUnicastPackets 	0
scalar IntersectionExampleScenario.node[12].nic.mac1609_4 	ReceivedBroadcasts 	0
scalar IntersectionExampleScenario.node[12].nic.mac1609_4 	SentPackets 	0
scalar IntersectionExampleScenario.node[12].nic.mac1609_4 	SNIRLostPackets 	0
scalar IntersectionExampleScenario.node[12].nic.mac1609_4 	RXTXLostPackets 	0
scalar IntersectionExampleScenario.node[12].nic.mac1609_4 	TotalLostPackets 	0
scalar IntersectionExampleScenario.node[12].nic.mac1609_4 	DroppedPacketsInMac 	0
scalar IntersectionExampleScenario.node[12].nic.mac1609_4 	TooLittleTime 	0
scalar IntersectionExampleScenario.node[12].nic.mac1609_4 	TimesIntoBackoff 	0
scalar IntersectionExampleScenario.node[12].nic.mac1609_4 	SlotsBackoff 	0
scalar IntersectionExampleScenario.node[12].nic.mac1609_4 	NumInternalContention 	0
scalar IntersectionExampleScenario.node[12].nic.mac1609_4 	totalBusyTime 	0
scalar IntersectionExampleScenario.node[12].veinsmobility 	startTime 	31
scalar IntersectionExampleScenario.node[12].veinsmobility 	totalTime 	89.25
scalar IntersectionExampleScenario.node[12].veinsmobility 	stopTime 	120.5
scalar IntersectionExampleScenario.node[12].veinsmobility 	minSpeed 	0
scalar IntersectionExampleScenario.node[12].veinsmobility 	maxSpeed 	15.02499961853
scalar IntersectionExampleScenario.node[12].veinsmobility 	totalDistance 	551.81369781494
scalar IntersectionExampleScenario.node[12].veinsmobility 	totalCO2Emission 	177.69717905111
scalar IntersectionExampleScenario.node[20].appl 	VehicleRemoved 	0
scalar IntersectionExampleScenario.node[20].appl 	ArrivedAtDest 	1
scalar IntersectionExampleScenario.node[20].appl 	IntersectionEnterTime 	52.5
scalar IntersectionExampleScenario.node[20].appl 	IntersectionExitTime 	106.36770471395
scalar IntersectionExampleScenario.node[20].appl 	NumberOfCollisions 	0
scalar IntersectionExampleScenario.node[20].nic.phy80211p 	busyTime 	0
scalar IntersectionExampleScenario.node[20].nic.mac1609_4 	ReceivedUnicastPackets 	0
scalar IntersectionExampleScenario.node[20].nic.mac1609_4 	ReceivedBroadcasts 	0
scalar IntersectionExampleScenario.node[20].nic.mac1609_4 	SentPackets 	0
scalar IntersectionExampleScenario.node[20].nic.mac1609_4 	SNIRLostPackets 	0
scalar IntersectionExampleScenario.node[20].nic.mac1609_4 	RXTXLostPackets 	0
scalar IntersectionExampleScenario.node[20].nic.mac1609_4 	TotalLostPackets 	0
scalar IntersectionExampleScenario.node[20].nic.mac1609_4 	DroppedPacketsInMac 	0
scalar IntersectionExampleScenario.node[20].nic.mac1609_4 	TooLittleTime 	0
scalar IntersectionExampleScenario.node[20].nic.mac1609_4 	TimesIntoBackoff 	0
scalar IntersectionExampleScenario.node[20].nic.mac1609_4 	SlotsBackoff 	0
scalar IntersectionExampleScenario.node[20].nic.mac1609_4 	NumInternalContention 	0
scalar IntersectionExampleScenario.node[20].nic.mac1609_4 	totalBusyTime 	0
scalar IntersectionExampleScenario.node[20].veinsmobility 	startTime 	52.5
scalar IntersectionExampleScenario.node[20].veinsmobility 	totalTime 	69.75
scalar IntersectionExampleScenario.node[20].veinsmobility 	stopTime 	122.5
scalar IntersectionExampleScenario.node[20].veinsmobility 	minSpeed 	0
scalar IntersectionExampleScenario.node[20].veinsmobility 	maxSpeed 	16.5
scalar IntersectionExampleScenario.node[20].veinsmobility 	totalDistance 	542.4322269481
scalar IntersectionExampleScenario.node[20].veinsmobility 	totalCO2Emission 	171.59194621047
scalar IntersectionExampleScenario.node[23].appl 	VehicleRemoved 	0
scalar IntersectionExampleScenario.node[23].appl 	ArrivedAtDest 	1
scalar IntersectionExampleScenario.node[23].appl 	IntersectionEnterTime 	65.25
scalar IntersectionExampleScenario.node[23].appl 	IntersectionExitTime 	107.83611595901
scalar IntersectionExampleScenario.node[23].appl 	NumberOfCollisions 	0
scalar IntersectionExampleScenario.node[23].nic.phy80211p 	busyTime 	0
scalar IntersectionExampleScenario.node[23].nic.mac1609_4 	ReceivedUnicastPackets 	0
scalar IntersectionExampleScenario.node[23].nic.mac1609_4 	ReceivedBroadcasts 	0
scalar IntersectionExampleScenario.node[23].nic.mac1609_4 	SentPackets 	0
scalar IntersectionExampleScenario.node[23].nic.mac1609_4 	SNIRLostPackets 	0
scalar IntersectionExampleScenario.node[23].nic.mac1609_4 	RXTXLostPackets 	0
scalar IntersectionExampleScenario.node[23].nic.mac1609_4 	TotalLostPackets 	0
scalar IntersectionExampleScenario.node[23].nic.mac1609_4 	DroppedPacketsInMac 	0
scalar IntersectionExampleScenario.node[23].nic.mac1609_4 	TooLittleTime 	0
scalar IntersectionExampleScenario.node[23].nic.mac1609_4 	TimesIntoBackoff 	0
scalar IntersectionExampleScenario.node[23].nic.mac1609_4 	SlotsBackoff 	0
scalar IntersectionExampleScenario.node[23].nic.mac1609_4 	NumInternalContention 	0
scalar IntersectionExampleScenario.node[23].nic.mac1609_4 	totalBusyTime 	0
scalar IntersectionExampleScenario.node[23].veinsmobility 	startTime 	65.25
scalar IntersectionExampleScenario.node[23].veinsmobility 	totalTime 	58.25
scalar IntersectionExampleScenario.node[23].veinsmobility 	stopTime 	123.75
scalar IntersectionExampleScenario.node[23].veinsmobility 	minSpeed 	0
scalar IntersectionExampleScenario.node[23].veinsmobility 	maxSpeed 	16.27499961853
scalar IntersectionExampleScenario.node[23].veinsmobility 	totalDistance 	554.0389175415
scalar IntersectionExampleScenario.node[23].veinsmobility 	totalCO2Emission 	154.21494248216
scalar IntersectionExampleScenario.node[27].appl 	VehicleRemoved 	0
scalar IntersectionExampleScenario.node[27].appl 	ArrivedAtDest 	1
scalar IntersectionExampleScenario.node[27].appl 	IntersectionEnterTime 	79
scalar IntersectionExampleScenario.node[27].appl 	IntersectionExitTime 	110.04718009755
scalar IntersectionExampleScenario.node[27].appl 	NumberOfCollisions 	0
scalar IntersectionExampleScenario.node[27].nic.phy80211p 	busyTime 	0
scalar IntersectionExampleScenario.node[27].nic.mac1609_4 	ReceivedUnicastPackets 	0
scalar IntersectionExampleScenario.node[27].nic.mac1609_4 	ReceivedBroadcasts 	0
scalar IntersectionExampleScenario.node[27].nic.mac1609_4 	SentPackets 	0
scalar IntersectionExampleScenario.node[27].nic.mac1609_4 	SNIRLostPackets 	0
scalar IntersectionExampleScenario.node[27].nic.mac1609_4 	RXTXLostPackets 	0
scalar IntersectionExampleScenario.node[27].nic.mac1609_4 	TotalLostPackets 	0
scalar IntersectionExampleScenario.node[27].nic.mac1609_4 	DroppedPacketsInMac 	0
scalar IntersectionExampleScenario.node[27].nic.mac1609_4 	TooLittleTime 	0
scalar IntersectionExampleScenario.node[27].nic.mac1609_4 	TimesIntoBackoff 	0
scalar IntersectionExampleScenario.node[27].nic.mac1609_4 	SlotsBackoff 	0
scalar IntersectionExampleScenario.node[27].nic.mac1609_4 	NumInternalContention 	0
scalar IntersectionExampleScenario.node[27].nic.mac1609_4 	totalBusyTime 	0
scalar IntersectionExampleScenario.node[27].veinsmobility 	startTime 	79
scalar IntersectionExampleScenario.node[27].veinsmobility 	totalTime 	47.25
scalar IntersectionExampleScenario.node[27].veinsmobility 	stopTime 	126.5
scalar IntersectionExampleScenario.node[27].veinsmobility 	minSpeed 	5.0967969894409
scalar IntersectionExampleScenario.node[27].veinsmobility 	maxSpeed 	16.27499961853
scalar IntersectionExampleScenario.node[27].veinsmobility 	totalDistance 	544.72966766567
scalar IntersectionExampleScenario.node[27].veinsmobility 	totalCO2Emission 	147.26736286772
scalar IntersectionExampleScenario.node[30].appl 	VehicleRemoved 	0
scalar IntersectionExampleScenario.node[30].appl 	ArrivedAtDest 	1
scalar IntersectionExampleScenario.node[30].appl 	IntersectionEnterTime 	98.75
scalar IntersectionExampleScenario.node[30].appl 	IntersectionExitTime 	121.34350654672
scalar IntersectionExampleScenario.node[30].appl 	NumberOfCollisions 	0
scalar IntersectionExampleScenario.node[30].nic.phy80211p 	busyTime 	0
scalar IntersectionExampleScenario.node[30].nic.mac1609_4 	ReceivedUnicastPackets 	0
scalar IntersectionExampleScenario.node[30].nic.mac1609_4 	ReceivedBroadcasts 	0
scalar IntersectionExampleScenario.node[30].nic.mac1609_4 	SentPackets 	0
scalar IntersectionExampleScenario.node[30].nic.mac1609_4 	SNIRLostPackets 	0
scalar IntersectionExampleScenario.node[30].nic.mac1609_4 	RXTXLostPackets 	0
scalar IntersectionExampleScenario.node[30].nic.mac1609_4 	TotalLostPackets 	0
scalar IntersectionExampleScenario.node[30].nic.mac1609_4 	DroppedPacketsInMac 	0
scalar IntersectionExampleScenario.node[30].nic.mac1609_4 	TooLittleTime 	0
scalar IntersectionExampleScenario.node[30].nic.mac1609_4 	TimesIntoBackoff 	0
scalar IntersectionExampleScenario.node[30].nic.mac1609_4 	SlotsBackoff 	0
scalar IntersectionExampleScenario.node[30].nic.mac1609_4 	NumInternalContention 	0
scalar IntersectionExampleScenario.node[30].nic.mac1609_4 	totalBusyTime 	0
scalar IntersectionExampleScenario.node[30].veinsmobility 	startTime 	98.75
scalar IntersectionExampleScenario.node[30].veinsmobility 	totalTime 	38.25
scalar IntersectionExampleScenario.node[30].veinsmobility 	stopTime 	137.25
scalar IntersectionExampleScenario.node[30].veinsmobility 	minSpeed 	5.6500000953674
scalar IntersectionExampleScenario.node[30].veinsmobility 	maxSpeed 	16.625
scalar IntersectionExampleScenario.node[30].veinsmobility 	totalDistance 	552.63859887932
scalar IntersectionExampleScenario.node[30].veinsmobility 	totalCO2Emission 	128.40073529159
scalar IntersectionExampleScenario.node[8].appl 	VehicleRemoved 	0
scalar IntersectionExampleScenario.node[8].appl 	ArrivedAtDest 	1
scalar IntersectionExampleScenario.node[8].appl 	IntersectionEnterTime 	23
scalar IntersectionExampleScenario.node[8].appl 	IntersectionExitTime 	124.61878919054
scalar IntersectionExampleScenario.node[8].appl 	NumberOfCollisions 	0
scalar IntersectionExampleScenario.node[8].nic.phy80211p 	busyTime 	0
scalar IntersectionExampleScenario.node[8].nic.mac1609_4 	ReceivedUnicastPackets 	0
scalar IntersectionExampleScenario.node[8].nic.mac1609_4 	ReceivedBroadcasts 	0
scalar IntersectionExampleScenario.node[8].nic.mac1609_4 	SentPackets 	0
scalar IntersectionExampleScenario.node[8].nic.mac1609_4 	SNIRLostPackets 	0
scalar IntersectionExampleScenario.node[8].nic.mac1609_4 	RXTXLostPackets 	0
scalar IntersectionExampleScenario.node[8].nic.mac1609_4 	TotalLostPackets 	0
scalar IntersectionExampleScenario.node[8].nic.mac1609_4 	DroppedPacketsInMac 	0
scalar IntersectionExampleScenario.node[8].nic.mac1609_4 	TooLittleTime 	0
scalar IntersectionExampleScenario.node[8].nic.mac1609_4 	TimesIntoBackoff 	0
scalar IntersectionExampleScenario.node[8].nic.mac1609_4 	SlotsBackoff 	0
scalar IntersectionExampleScenario.node[8].nic.mac1609_4 	NumInternalContention 	0
scalar IntersectionExampleScenario.node[8].nic.mac1609_4 	totalBusyTime 	0
scalar IntersectionExampleScenario.node[8].veinsmobility 	startTime 	23
scalar IntersectionExampleScenario.node[8].veinsmobility 	totalTime 	118.5
scalar IntersectionExampleScenario.node[8].veinsmobility 	stopTime 	141.75
scalar IntersectionExampleScenario.node[8].veinsmobility 	minSpeed 	0
scalar IntersectionExampleScenario.node[8].veinsmobility 	maxSpeed 	15.25
scalar IntersectionExampleScenario.node[8].veinsmobility 	totalDistance 	543.3859396115
scalar IntersectionExampleScenario.node[8].veinsmobility 	totalCO2Emission 	205.61276551698
scalar IntersectionExampleScenario.node[9].appl 	VehicleRemoved 	0
scalar IntersectionExampleScenario.node[9].appl 	ArrivedAtDest 	1
scalar IntersectionExampleScenario.node[9].appl 	IntersectionEnterTime 	24
scalar IntersectionExampleScenario.node[9].appl 	IntersectionExitTime 	126.30641355115
scalar IntersectionExampleScenario.node[9].appl 	NumberOfCollisions 	0
scalar IntersectionExampleScenario.node[9].nic.phy80211p 	busyTime 	0
scalar IntersectionExampleScenario.node[9].nic.mac1609_4 	ReceivedUnicastPackets 	0
scalar IntersectionExampleScenario.node[9].nic.mac1609_4 	ReceivedBroadcasts 	0
scalar IntersectionExampleScenario.node[9].nic.mac1609_4 	SentPackets 	0
scalar IntersectionExampleScenario.node[9].nic.mac1609_4 	SNIRLostPackets 	0
scalar IntersectionExampleScenario.node[9].nic.mac1609_4 	RXTXLostPackets 	0
scalar IntersectionExampleScenario.node[9].nic.mac1609_4 	TotalLostPackets 	0
scalar IntersectionExampleScenario.node[9].nic.mac1609_4 	DroppedPacketsInMac 	0
scalar IntersectionExampleScenario.node[9].nic.mac1609_4 	TooLittleTime 	0
scalar IntersectionExampleScenario.node[9].nic.mac1609_4 	TimesIntoBackoff 	0
scalar IntersectionExampleScenario.node[9].nic.mac1609_4 	SlotsBackoff 	0
scalar IntersectionExampleScenario.node[9].nic.mac1609_4 	NumInternalContention 	0
scalar IntersectionExampleScenario.node[9].nic.mac1609_4 	totalBusyTime 	0
scalar IntersectionExampleScenario.node[9].veinsmobility 	startTime 	24
scalar IntersectionExampleScenario.node[9].veinsmobility 	totalTime 	118.25
scalar IntersectionExampleScenario.node[9].veinsmobility 	stopTime 	142.5
scalar IntersectionExampleScenario.node[9].veinsmobility 	minSpeed 	0
scalar IntersectionExampleScenario.node[9].veinsmobility 	maxSpeed 	15.5
scalar IntersectionExampleScenario.node[9].veinsmobility 	totalDistance 	575.04955291748
scalar IntersectionExampleScenario.node[9].veinsmobility 	totalCO2Emission 	210.67795399194
scalar IntersectionExampleScenario.node[11].appl 	VehicleRemoved 	0
scalar IntersectionExampleScenario.node[11].appl 	ArrivedAtDest 	1
scalar IntersectionExampleScenario.node[11].appl 	IntersectionEnterTime 	30
scalar IntersectionExampleScenario.node[11].appl 	IntersectionExitTime 	128.50257154426
scalar IntersectionExampleScenario.node[11].appl 	NumberOfCollisions 	0
scalar IntersectionExampleScenario.node[11].nic.phy80211p 	busyTime 	0
scalar IntersectionExampleScenario.node[11].nic.mac1609_4 	ReceivedUnicastPackets 	0
scalar IntersectionExampleScenario.node[11].nic.mac1609_4 	ReceivedBroadcasts 	0
scalar IntersectionExampleScenario.node[11].nic.mac1609_4 	SentPackets 	0
scalar IntersectionExampleScenario.node[11].nic.mac1609_4 	SNIRLostPackets 	0
scalar IntersectionExampleScenario.node[11].nic.mac1609_4 	RXTXLostPackets 	0
scalar IntersectionExampleScenario.node[11].nic.mac1609_4 	TotalLostPackets 	0
scalar IntersectionExampleScenario.node[11].nic.mac1609_4 	DroppedPacketsInMac 	0
scalar IntersectionExampleScenario.node[11].nic.mac1609_4 	TooLittleTime 	0
scalar IntersectionExampleScenario.node[11].nic.mac1609_4 	TimesIntoBackoff 	0
scalar IntersectionExampleScenario.node[11].nic.mac1609_4 	SlotsBackoff 	0
scalar IntersectionExampleScenario.node[11].nic.mac1609_4 	NumInternalContention 	0
scalar IntersectionExampleScenario.node[11].nic.mac1609_4 	totalBusyTime 	0
scalar IntersectionExampleScenario.node[11].veinsmobility 	startTime 	30
scalar IntersectionExampleScenario.node[11].veinsmobility 	totalTime 	114.75
scalar IntersectionExampleScenario.node[11].veinsmobility 	stopTime 	145
scalar IntersectionExampleScenario.node[11].veinsmobility 	minSpeed 	0
scalar IntersectionExampleScenario.node[11].veinsmobility 	maxSpeed 	15.325643539429
scalar IntersectionExampleScenario.node[11].veinsmobility 	totalDistance 	553.16056060791
scalar IntersectionExampleScenario.node[11].veinsmobility 	totalCO2Emission 	202.21095572068
scalar IntersectionExampleScenario.node[16].appl 	VehicleRemoved 	0
scalar IntersectionExampleScenario.node[16].appl 	ArrivedAtDest 	1
scalar IntersectionExampleScenario.node[16].appl 	IntersectionEnterTime 	39
scalar IntersectionExampleScenario.node[16].appl 	IntersectionExitTime 	130.82259597181
scalar IntersectionExampleScenario.node[16].appl 	NumberOfCollisions 	0
scalar IntersectionExampleScenario.node[16].nic.phy80211p 	busyTime 	0
scalar IntersectionExampleScenario.node[16].nic.mac1609_4 	ReceivedUnicastPackets 	0
scalar IntersectionExampleScenario.node[16].nic.mac1609_4 	ReceivedBroadcasts 	0
scalar IntersectionExampleScenario.node[16].nic.mac1609_4 	SentPackets 	0
scalar IntersectionExampleScenario.node[16].nic.mac1609_4 	SNIRLostPackets 	0
scalar IntersectionExampleScenario.node[16].nic.mac1609_4 	RXTXLostPackets 	0
scalar IntersectionExampleScenario.node[16].nic.mac1609_4 	TotalLostPackets 	0
scalar IntersectionExampleScenario.node[16].nic.mac1609_4 	DroppedPacketsInMac 	0
scalar IntersectionExampleScenario.node[16].nic.mac1609_4 	TooLittleTime 	0
scalar IntersectionExampleScenario.node[16].nic.mac1609_4 	TimesIntoBackoff 	0
scalar IntersectionExampleScenario.node[16].nic.mac1609_4 	SlotsBackoff 	0
scalar IntersectionExampleScenario.node[16].nic.mac1609_4 	NumInternalContention 	0
scalar IntersectionExampleScenario.node[16].nic.mac1609_4 	totalBusyTime 	0
scalar IntersectionExampleScenario.node[16].veinsmobility 	startTime 	39
scalar IntersectionExampleScenario.node[16].veinsmobility 	totalTime 	108.25
scalar IntersectionExampleScenario.node[16].veinsmobility 	stopTime 	147.5
scalar IntersectionExampleScenario.node[16].veinsmobility 	minSpeed 	0
scalar IntersectionExampleScenario.node[16].veinsmobility 	maxSpeed 	15.02499961853
scalar IntersectionExampleScenario.node[16].veinsmobility 	totalDistance 	551.42337799072
scalar IntersectionExampleScenario.node[16].veinsmobility 	totalCO2Emission 	192.09151411434
scalar IntersectionExampleScenario.node[17].appl 	VehicleRemoved 	0
scalar IntersectionExampleScenario.node[17].appl 	ArrivedAtDest 	1
scalar IntersectionExampleScenario.node[17].appl 	IntersectionEnterTime 	40
scalar IntersectionExampleScenario.node[17].appl 	IntersectionExitTime 	133.2791523331
scalar IntersectionExampleScenario.node[17].appl 	NumberOfCollisions 	0
scalar IntersectionExampleScenario.node[17].nic.phy80211p 	busyTime 	0
scalar IntersectionExampleScenario.node[17].nic.mac1609_4 	ReceivedUnicastPackets 	0
scalar IntersectionExampleScenario.node[17].nic.mac1609_4 	ReceivedBroadcasts 	0
scalar IntersectionExampleScenario.node[17].nic.mac1609_4 	SentPackets 	0
scalar IntersectionExampleScenario.node[17].nic.mac1609_4 	SNIRLostPackets 	0
scalar IntersectionExampleScenario.node[17].nic.mac1609_4 	RXTXLostPackets 	0
scalar IntersectionExampleScenario.node[17].nic.mac1609_4 	TotalLostPackets 	0
scalar IntersectionExampleScenario.node[17].nic.mac1609_4 	DroppedPacketsInMac 	0
scalar IntersectionExampleScenario.node[17].nic.mac1609_4 	TooLittleTime 	0
scalar IntersectionExampleScenario.node[17].nic.mac1609_4 	TimesIntoBackoff 	0
scalar IntersectionExampleScenario.node[17].nic.mac1609_4 	SlotsBackoff 	0
scalar IntersectionExampleScenario.node[17].nic.mac1609_4 	NumInternalContention 	0
scalar IntersectionExampleScenario.node[17].nic.mac1609_4 	totalBusyTime 	0
scalar IntersectionExampleScenario.node[17].veinsmobility 	startTime 	40
scalar IntersectionExampleScenario.node[17].veinsmobility 	totalTime 	109.25
scalar IntersectionExampleScenario.node[17].veinsmobility 	stopTime 	149.5
scalar IntersectionExampleScenario.node[17].veinsmobility 	minSpeed 	0
scalar IntersectionExampleScenario.node[17].veinsmobility 	maxSpeed 	16
scalar IntersectionExampleScenario.node[17].veinsmobility 	totalDistance 	572.50094312448
scalar IntersectionExampleScenario.node[17].veinsmobility 	totalCO2Emission 	209.51196471189
scalar IntersectionExampleScenario.node[19].appl 	VehicleRemoved 	0
scalar IntersectionExampleScenario.node[19].appl 	ArrivedAtDest 	1
scalar IntersectionExampleScenario.node[19].appl 	IntersectionEnterTime 	46
scalar IntersectionExampleScenario.node[19].appl 	IntersectionExitTime 	135.61931138945
scalar IntersectionExampleScenario.node[19].appl 	NumberOfCollisions 	0
scalar IntersectionExampleScenario.node[19].nic.phy80211p 	busyTime 	0
scalar IntersectionExampleScenario.node[19].nic.mac1609_4 	ReceivedUnicastPackets 	0
scalar IntersectionExampleScenario.node[19].nic.mac1609_4 	ReceivedBroadcasts 	0
scalar IntersectionExampleScenario.node[19].nic.mac1609_4 	SentPackets 	0
scalar IntersectionExampleScenario.node[19].nic.mac1609_4 	SNIRLostPackets 	0
scalar IntersectionExampleScenario.node[19].nic.mac1609_4 	RXTXLostPackets 	0
scalar IntersectionExampleScenario.node[19].nic.mac1609_4 	TotalLostPackets 	0
scalar IntersectionExampleScenario.node[19].nic.mac1609_4 	DroppedPacketsInMac 	0
scalar IntersectionExampleScenario.node[19].nic.mac1609_4 	TooLittleTime 	0
scalar IntersectionExampleScenario.node[19].nic.mac1609_4 	TimesIntoBackoff 	0
scalar IntersectionExampleScenario.node[19].nic.mac1609_4 	SlotsBackoff 	0
scalar IntersectionExampleScenario.node[19].nic.mac1609_4 	NumInternalContention 	0
scalar IntersectionExampleScenario.node[19].nic.mac1609_4 	totalBusyTime 	0
scalar IntersectionExampleScenario.node[19].veinsmobility 	startTime 	46
scalar IntersectionExampleScenario.node[19].veinsmobility 	totalTime 	106.5
scalar IntersectionExampleScenario.node[19].veinsmobility 	stopTime 	152.75
scalar IntersectionExampleScenario.node[19].veinsmobility 	minSpeed 	0
scalar IntersectionExampleScenario.node[19].veinsmobility 	maxSpeed 	15.25
scalar IntersectionExampleScenario.node[19].veinsmobility 	totalDistance 	546.03071475262
scalar IntersectionExampleScenario.node[19].veinsmobility 	totalCO2Emission 	203.47309333362
scalar IntersectionExampleScenario.node[21].appl 	VehicleRemoved 	0
scalar IntersectionExampleScenario.node[21].appl 	ArrivedAtDest 	1
scalar IntersectionExampleScenario.node[21].appl 	IntersectionEnterTime 	55.5
scalar IntersectionExampleScenario.node[21].appl 	IntersectionExitTime 	137.07742793372
scalar IntersectionExampleScenario.node[21].appl 	NumberOfCollisions 	0
scalar IntersectionExampleScenario.node[21].nic.phy80211p 	busyTime 	0
scalar IntersectionExampleScenario.node[21].nic.mac1609_4 	ReceivedUnicastPackets 	0
scalar IntersectionExampleScenario.node[21].nic.mac1609_4 	ReceivedBroadcasts 	0
scalar IntersectionExampleScenario.node[21].nic.mac1609_4 	SentPackets 	0
scalar IntersectionExampleScenario.node[21].nic.mac1609_4 	SNIRLostPackets 	0
scalar IntersectionExampleScenario.node[21].nic.mac1609_4 	RXTXLostPackets 	0
scalar IntersectionExampleScenario.node[21].nic.mac1609_4 	TotalLostPackets 	0
scalar IntersectionExampleScenario.node[21].nic.mac1609_4 	DroppedPacketsInMac 	0
scalar IntersectionExampleScenario.node[21].nic.mac1609_4 	TooLittleTime 	0
scalar IntersectionExampleScenario.node[21].nic.mac1609_4 	TimesIntoBackoff 	0
scalar IntersectionExampleScenario.node[21].nic.mac1609_4 	SlotsBackoff 	0
scalar IntersectionExampleScenario.node[21].nic.mac1609_4 	NumInternalContention 	0
scalar IntersectionExampleScenario.node[21].nic.mac1609_4 	totalBusyTime 	0
scalar IntersectionExampleScenario.node[21].veinsmobility 	startTime 	55.5
scalar IntersectionExampleScenario.node[21].veinsmobility 	totalTime 	97.25
scalar IntersectionExampleScenario.node[21].veinsmobility 	stopTime 	153
scalar IntersectionExampleScenario.node[21].veinsmobility 	minSpeed 	0
scalar IntersectionExampleScenario.node[21].veinsmobility 	maxSpeed 	15.64999961853
scalar IntersectionExampleScenario.node[21].veinsmobility 	totalDistance 	551.13278961182
scalar IntersectionExampleScenario.node[21].veinsmobility 	totalCO2Emission 	189.27209097534
scalar IntersectionExampleScenario.node[25].appl 	VehicleRemoved 	0
scalar IntersectionExampleScenario.node[25].appl 	ArrivedAtDest 	1
scalar IntersectionExampleScenario.node[25].appl 	IntersectionEnterTime 	68.5
scalar IntersectionExampleScenario.node[25].appl 	IntersectionExitTime 	139.57635088233
scalar IntersectionExampleScenario.node[25].appl 	NumberOfCollisions 	0
scalar IntersectionExampleScenario.node[25].nic.phy80211p 	busyTime 	0
scalar IntersectionExampleScenario.node[25].nic.mac1609_4 	ReceivedUnicastPackets 	0
scalar IntersectionExampleScenario.node[25].nic.mac1609_4 	ReceivedBroadcasts 	0
scalar IntersectionExampleScenario.node[25].nic.mac1609_4 	SentPackets 	0
scalar IntersectionExampleScenario.node[25].nic.mac1609_4 	SNIRLostPackets 	0
scalar IntersectionExampleScenario.node[25].nic.mac1609_4 	RXTXLostPackets 	0
scalar IntersectionExampleScenario.node[25].nic.mac1609_4 	TotalLostPackets 	0
scalar IntersectionExampleScenario.node[25].nic.mac1609_4 	DroppedPacketsInMac 	0
scalar IntersectionExampleScenario.node[25].nic.mac1609_4 	TooLittleTime 	0
scalar IntersectionExampleScenario.node[25].nic.mac1609_4 	TimesIntoBackoff 	0
scalar IntersectionExampleScenario.node[25].nic.mac1609_4 	SlotsBackoff 	0
scalar IntersectionExampleScenario.node[25].nic.mac1609_4 	NumInternalContention 	0
scalar IntersectionExampleScenario.node[25].nic.mac1609_4 	totalBusyTime 	0
scalar IntersectionExampleScenario.node[25].veinsmobility 	startTime 	68.5
scalar IntersectionExampleScenario.node[25].veinsmobility 	totalTime 	87
scalar IntersectionExampleScenario.node[25].veinsmobility 	stopTime 	155.75
scalar IntersectionExampleScenario.node[25].veinsmobility 	minSpeed 	0
scalar IntersectionExampleScenario.node[25].veinsmobility 	maxSpeed 	16
scalar IntersectionExampleScenario.node[25].veinsmobility 	totalDistance 	549.61374207777
scalar IntersectionExampleScenario.node[25].veinsmobility 	totalCO2Emission 	186.52300113602
scalar IntersectionExampleScenario.node[29].appl 	VehicleRemoved 	0
scalar IntersectionExampleScenario.node[29].appl 	ArrivedAtDest 	1
scalar IntersectionExampleScenario.node[29].appl 	IntersectionEnterTime 	93.25
scalar IntersectionExampleScenario.node[29].appl 	IntersectionExitTime 	142.09730917894
scalar IntersectionExampleScenario.node[29].appl 	NumberOfCollisions 	0
scalar IntersectionExampleScenario.node[29].nic.phy80211p 	busyTime 	0
scalar IntersectionExampleScenario.node[29].nic.mac1609_4 	ReceivedUnicastPackets 	0
scalar IntersectionExampleScenario.node[29].nic.mac1609_4 	ReceivedBroadcasts 	0
scalar IntersectionExampleScenario.node[29].nic.mac1609_4 	SentPackets 	0
scalar IntersectionExampleScenario.node[29].nic.mac1609_4 	SNIRLostPackets 	0
scalar IntersectionExampleScenario.node[29].nic.mac1609_4 	RXTXLostPackets 	0
scalar IntersectionExampleScenario.node[29].nic.mac1609_4 	TotalLostPackets 	0
scalar IntersectionExampleScenario.node[29].nic.mac1609_4 	DroppedPacketsInMac 	0
scalar IntersectionExampleScenario.node[29].nic.mac1609_4 	TooLittleTime 	0
scalar IntersectionExampleScenario.node[29].nic.mac1609_4 	TimesIntoBackoff 	0
scalar IntersectionExampleScenario.node[29].nic.mac1609_4 	SlotsBackoff 	0
scalar IntersectionExampleScenario.node[29].nic.mac1609_4 	NumInternalContention 	0
scalar IntersectionExampleScenario.node[29].nic.mac1609_4 	totalBusyTime 	0
scalar IntersectionExampleScenario.node[29].veinsmobility 	startTime 	93.25
scalar IntersectionExampleScenario.node[29].veinsmobility 	totalTime 	65
scalar IntersectionExampleScenario.node[29].veinsmobility 	stopTime 	158.5
scalar IntersectionExampleScenario.node[29].veinsmobility 	minSpeed 	0
scalar IntersectionExampleScenario.node[29].veinsmobility 	maxSpeed 	16
scalar IntersectionExampleScenario.node[29].veinsmobility 	totalDistance 	551.91598684579
scalar IntersectionExampleScenario.node[29].veinsmobility 	totalCO2Emission 	161.755696938
scalar IntersectionExampleScenario.node[31].appl 	VehicleRemoved 	0
scalar IntersectionExampleScenario.node[31].appl 	ArrivedAtDest 	1
scalar IntersectionExampleScenario.node[31].appl 	IntersectionEnterTime 	104
scalar IntersectionExampleScenario.node[31].appl 	IntersectionExitTime 	143.51930401361
scalar IntersectionExampleScenario.node[31].appl 	NumberOfCollisions 	0
scalar IntersectionExampleScenario.node[31].nic.phy80211p 	busyTime 	0
scalar IntersectionExampleScenario.node[31].nic.mac1609_4 	ReceivedUnicastPackets 	0
scalar IntersectionExampleScenario.node[31].nic.mac1609_4 	ReceivedBroadcasts 	0
scalar IntersectionExampleScenario.node[31].nic.mac1609_4 	SentPackets 	0
scalar IntersectionExampleScenario.node[31].nic.mac1609_4 	SNIRLostPackets 	0
scalar IntersectionExampleScenario.node[31].nic.mac1609_4 	RXTXLostPackets 	0
scalar IntersectionExampleScenario.node[31].nic.mac1609_4 	TotalLostPackets 	0
scalar IntersectionExampleScenario.node[31].nic.mac1609_4 	DroppedPacketsInMac 	0
scalar IntersectionExampleScenario.node[31].nic.mac1609_4 	TooLittleTime 	0
scalar IntersectionExampleScenario.node[31].nic.mac1609_4 	TimesIntoBackoff 	0
scalar IntersectionExampleScenario.node[31].nic.mac1609_4 	SlotsBackoff 	0
scalar IntersectionExampleScenario.node[31].nic.mac1609_4 	NumInternalContention 	0
scalar IntersectionExampleScenario.node[31].nic.mac1609_4 	totalBusyTime 	0
scalar IntersectionExampleScenario.node[31].veinsmobility 	startTime 	104
scalar IntersectionExampleScenario.node[31].veinsmobility 	totalTime 	55.75
scalar IntersectionExampleScenario.node[31].veinsmobility 	stopTime 	160
scalar IntersectionExampleScenario.node[31].veinsmobility 	minSpeed 	0
scalar IntersectionExampleScenario.node[31].veinsmobility 	maxSpeed 	15.5
scalar IntersectionExampleScenario.node[31].veinsmobility 	totalDistance 	553.55637359619
scalar IntersectionExampleScenario.node[31].veinsmobility 	totalCO2Emission 	147.55922729903
scalar IntersectionExampleScenario.node[32].appl 	VehicleRemoved 	0
scalar IntersectionExampleScenario.node[32].appl 	ArrivedAtDest 	1
scalar IntersectionExampleScenario.node[32].appl 	IntersectionEnterTime 	110.5
scalar IntersectionExampleScenario.node[32].appl 	IntersectionExitTime 	145.31363361873
scalar IntersectionExampleScenario.node[32].appl 	NumberOfCollisions 	0
scalar IntersectionExampleScenario.node[32].nic.phy80211p 	busyTime 	0
scalar IntersectionExampleScenario.node[32].nic.mac1609_4 	ReceivedUnicastPackets 	0
scalar IntersectionExampleScenario.node[32].nic.mac1609_4 	ReceivedBroadcasts 	0
scalar IntersectionExampleScenario.node[32].nic.mac1609_4 	SentPackets 	0
scalar IntersectionExampleScenario.node[32].nic.mac1609_4 	SNIRLostPackets 	0
scalar IntersectionExampleScenario.node[32].nic.mac1609_4 	RXTXLostPackets 	0
scalar IntersectionExampleScenario.node[32].nic.mac1609_4 	TotalLostPackets 	0
scalar IntersectionExampleScenario.node[32].nic.mac1609_4 	DroppedPacketsInMac 	0
scalar IntersectionExampleScenario.node[32].nic.mac1609_4 	TooLittleTime 	0
scalar IntersectionExampleScenario.node[32].nic.mac1609_4 	TimesIntoBackoff 	0
scalar IntersectionExampleScenario.node[32].nic.mac1609_4 	SlotsBackoff 	0
scalar IntersectionExampleScenario.node[32].nic.mac1609_4 	NumInternalContention 	0
scalar IntersectionExampleScenario.node[32].nic.mac1609_4 	totalBusyTime 	0
scalar IntersectionExampleScenario.node[32].veinsmobility 	startTime 	110.5
scalar IntersectionExampleScenario.node[32].veinsmobility 	totalTime 	50.25
scalar IntersectionExampleScenario.node[32].veinsmobility 	stopTime 	161
scalar IntersectionExampleScenario.node[32].veinsmobility 	minSpeed 	3.6311869621277
scalar IntersectionExampleScenario.node[32].veinsmobility 	maxSpeed 	16.03829574585
scalar IntersectionExampleScenario.node[32].veinsmobility 	totalDistance 	551.49649810791
scalar IntersectionExampleScenario.node[32].veinsmobility 	totalCO2Emission 	147.17176892866
scalar IntersectionExampleScenario.node[35].appl 	VehicleRemoved 	0
scalar IntersectionExampleScenario.node[35].appl 	ArrivedAtDest 	1
scalar IntersectionExampleScenario.node[35].appl 	IntersectionEnterTime 	118
scalar IntersectionExampleScenario.node[35].appl 	IntersectionExitTime 	147.5309344334
scalar IntersectionExampleScenario.node[35].appl 	NumberOfCollisions 	0
scalar IntersectionExampleScenario.node[35].nic.phy80211p 	busyTime 	0
scalar IntersectionExampleScenario.node[35].nic.mac1609_4 	ReceivedUnicastPackets 	0
scalar IntersectionExampleScenario.node[35].nic.mac1609_4 	ReceivedBroadcasts 	0
scalar IntersectionExampleScenario.node[35].nic.mac1609_4 	SentPackets 	0
scalar IntersectionExampleScenario.node[35].nic.mac1609_4 	SNIRLostPackets 	0
scalar IntersectionExampleScenario.node[35].nic.mac1609_4 	RXTXLostPackets 	0
scalar IntersectionExampleScenario.node[35].nic.mac1609_4 	TotalLostPackets 	0
scalar IntersectionExampleScenario.node[35].nic.mac1609_4 	DroppedPacketsInMac 	0
scalar IntersectionExampleScenario.node[35].nic.mac1609_4 	TooLittleTime 	0
scalar IntersectionExampleScenario.node[35].nic.mac1609_4 	TimesIntoBackoff 	0
scalar IntersectionExampleScenario.node[35].nic.mac1609_4 	SlotsBackoff 	0
scalar IntersectionExampleScenario.node[35].nic.mac1609_4 	NumInternalContention 	0
scalar IntersectionExampleScenario.node[35].nic.mac1609_4 	totalBusyTime 	0
scalar IntersectionExampleScenario.node[35].veinsmobility 	startTime 	118
scalar IntersectionExampleScenario.node[35].veinsmobility 	totalTime 	46.5
scalar IntersectionExampleScenario.node[35].veinsmobility 	stopTime 	164.75
scalar IntersectionExampleScenario.node[35].veinsmobility 	minSpeed 	5.6500000953674
scalar IntersectionExampleScenario.node[35].veinsmobility 	maxSpeed 	15.02499961853
scalar IntersectionExampleScenario.node[35].veinsmobility 	totalDistance 	550.61107795193
scalar IntersectionExampleScenario.node[35].veinsmobility 	totalCO2Emission 	134.17364156904
scalar IntersectionExampleScenario.node[36].appl 	VehicleRemoved 	0
scalar IntersectionExampleScenario.node[36].appl 	ArrivedAtDest 	1
scalar IntersectionExampleScenario.node[36].appl 	IntersectionEnterTime 	124.25
scalar IntersectionExampleScenario.node[36].appl 	IntersectionExitTime 	150.11410574612
scalar IntersectionExampleScenario.node[36].appl 	NumberOfCollisions 	0
scalar IntersectionExampleScenario.node[36].nic.phy80211p 	busyTime 	0
scalar IntersectionExampleScenario.node[36].nic.mac1609_4 	ReceivedUnicastPackets 	0
scalar IntersectionExampleScenario.node[36].nic.mac1609_4 	ReceivedBroadcasts 	0
scalar IntersectionExampleScenario.node[36].nic.mac1609_4 	SentPackets 	0
scalar IntersectionExampleScenario.node[36].nic.mac1609_4 	SNIRLostPackets 	0
scalar IntersectionExampleScenario.node[36].nic.mac1609_4 	RXTXLostPackets 	0
scalar IntersectionExampleScenario.node[36].nic.mac1609_4 	TotalLostPackets 	0
scalar IntersectionExampleScenario.node[36].nic.mac1609_4 	DroppedPacketsInMac 	0
scalar IntersectionExampleScenario.node[36].nic.mac1609_4 	TooLittleTime 	0
scalar IntersectionExampleScenario.node[36].nic.mac1609_4 	TimesIntoBackoff 	0
scalar IntersectionExampleScenario.node[36].nic.mac1609_4 	SlotsBackoff 	0
scalar IntersectionExampleScenario.node[36].nic.mac1609_4 	NumInternalContention 	0
scalar IntersectionExampleScenario.node[36].nic.mac1609_4 	totalBusyTime 	0
scalar IntersectionExampleScenario.node[36].veinsmobility 	startTime 	124.25
scalar IntersectionExampleScenario.node[36].veinsmobility 	totalTime 	42.25
scalar IntersectionExampleScenario.node[36].veinsmobility 	stopTime 	166.75
scalar IntersectionExampleScenario.node[36].veinsmobility 	minSpeed 	5.6500000953674
scalar IntersectionExampleScenario.node[36].veinsmobility 	maxSpeed 	15.875
scalar IntersectionExampleScenario.node[36].veinsmobility 	totalDistance 	546.32278483207
scalar IntersectionExampleScenario.node[36].veinsmobility 	totalCO2Emission 	131.68971275124
scalar IntersectionExampleScenario.node[40].appl 	VehicleRemoved 	0
scalar IntersectionExampleScenario.node[40].appl 	ArrivedAtDest 	1
scalar IntersectionExampleScenario.node[40].appl 	IntersectionEnterTime 	129
scalar IntersectionExampleScenario.node[40].appl 	IntersectionExitTime 	152.82729908873
scalar IntersectionExampleScenario.node[40].appl 	NumberOfCollisions 	0
scalar IntersectionExampleScenario.node[40].nic.phy80211p 	busyTime 	0
scalar IntersectionExampleScenario.node[40].nic.mac1609_4 	ReceivedUnicastPackets 	0
scalar IntersectionExampleScenario.node[40].nic.mac1609_4 	ReceivedBroadcasts 	0
scalar IntersectionExampleScenario.node[40].nic.mac1609_4 	SentPackets 	0
scalar IntersectionExampleScenario.node[40].nic.mac1609_4 	SNIRLostPackets 	0
scalar IntersectionExampleScenario.node[40].nic.mac1609_4 	RXTXLostPackets 	0
scalar IntersectionExampleScenario.node[40].nic.mac1609_4 	TotalLostPackets 	0
scalar IntersectionExampleScenario.node[40].nic.mac1609_4 	DroppedPacketsInMac 	0
scalar IntersectionExampleScenario.node[40].nic.mac1609_4 	TooLittleTime 	0
scalar IntersectionExampleScenario.node[40].nic.mac1609_4 	TimesIntoBackoff 	0
scalar IntersectionExampleScenario.node[40].nic.mac1609_4 	SlotsBackoff 	0
scalar IntersectionExampleScenario.node[40].nic.mac1609_4 	NumInternalContention 	0
scalar IntersectionExampleScenario.node[40].nic.mac1609_4 	totalBusyTime 	0
scalar IntersectionExampleScenario.node[40].veinsmobility 	startTime 	129
scalar IntersectionExampleScenario.node[40].veinsmobility 	totalTime 	40.25
scalar IntersectionExampleScenario.node[40].veinsmobility 	stopTime 	169.5
scalar IntersectionExampleScenario.node[40].veinsmobility 	minSpeed 	5.6500000953674
scalar IntersectionExampleScenario.node[40].veinsmobility 	maxSpeed 	15.875
scalar IntersectionExampleScenario.node[40].veinsmobility 	totalDistance 	546.37752234625
scalar IntersectionExampleScenario.node[40].veinsmobility 	totalCO2Emission 	125.52786964846
scalar IntersectionExampleScenario.node[22].appl 	VehicleRemoved 	0
scalar IntersectionExampleScenario.node[22].appl 	ArrivedAtDest 	1
scalar IntersectionExampleScenario.node[22].appl 	IntersectionEnterTime 	58.5
scalar IntersectionExampleScenario.node[22].appl 	IntersectionExitTime 	154.61967717795
scalar IntersectionExampleScenario.node[22].appl 	NumberOfCollisions 	0
scalar IntersectionExampleScenario.node[22].nic.phy80211p 	busyTime 	0
scalar IntersectionExampleScenario.node[22].nic.mac1609_4 	ReceivedUnicastPackets 	0
scalar IntersectionExampleScenario.node[22].nic.mac1609_4 	ReceivedBroadcasts 	0
scalar IntersectionExampleScenario.node[22].nic.mac1609_4 	SentPackets 	0
scalar IntersectionExampleScenario.node[22].nic.mac1609_4 	SNIRLostPackets 	0
scalar IntersectionExampleScenario.node[22].nic.mac1609_4 	RXTXLostPackets 	0
scalar IntersectionExampleScenario.node[22].nic.mac1609_4 	TotalLostPackets 	0
scalar IntersectionExampleScenario.node[22].nic.mac1609_4 	DroppedPacketsInMac 	0
scalar IntersectionExampleScenario.node[22].nic.mac1609_4 	TooLittleTime 	0
scalar IntersectionExampleScenario.node[22].nic.mac1609_4 	TimesIntoBackoff 	0
scalar IntersectionExampleScenario.node[22].nic.mac1609_4 	SlotsBackoff 	0
scalar IntersectionExampleScenario.node[22].nic.mac1609_4 	NumInternalContention 	0
scalar IntersectionExampleScenario.node[22].nic.mac1609_4 	totalBusyTime 	0
scalar IntersectionExampleScenario.node[22].veinsmobility 	startTime 	58.5
scalar IntersectionExampleScenario.node[22].veinsmobility 	totalTime 	112.5
scalar IntersectionExampleScenario.node[22].veinsmobility 	stopTime 	171.25
scalar IntersectionExampleScenario.node[22].veinsmobility 	minSpeed 	0
scalar IntersectionExampleScenario.node[22].veinsmobility 	maxSpeed 	15.875
scalar IntersectionExampleScenario.node[22].veinsmobility 	totalDistance 	545.34079648406
scalar IntersectionExampleScenario.node[22].veinsmobility 	totalCO2Emission 	205.48412286765
scalar IntersectionExampleScenario.node[24].appl 	VehicleRemoved 	0
scalar IntersectionExampleScenario.node[24].appl 	ArrivedAtDest 	1
scalar IntersectionExampleScenario.node[24].appl 	IntersectionEnterTime 	66.75
scalar IntersectionExampleScenario.node[24].appl 	IntersectionExitTime 	156.75073866977
scalar IntersectionExampleScenario.node[24].appl 	NumberOfCollisions 	0
scalar IntersectionExampleScenario.node[24].nic.phy80211p 	busyTime 	0
scalar IntersectionExampleScenario.node[24].nic.mac1609_4 	ReceivedUnicastPackets 	0
scalar IntersectionExampleScenario.node[24].nic.mac1609_4 	ReceivedBroadcasts 	0
scalar IntersectionExampleScenario.node[24].nic.mac1609_4 	SentPackets 	0
scalar IntersectionExampleScenario.node[24].nic.mac1609_4 	SNIRLostPackets 	0
scalar IntersectionExampleScenario.node[24].nic.mac1609_4 	RXTXLostPackets 	0
scalar IntersectionExampleScenario.node[24].nic.mac1609_4 	TotalLostPackets 	0
scalar IntersectionExampleScenario.node[24].nic.mac1609_4 	DroppedPacketsInMac 	0
scalar IntersectionExampleScenario.node[24].nic.mac1609_4 	TooLittleTime 	0
scalar IntersectionExampleScenario.node[24].nic.mac1609_4 	TimesIntoBackoff 	0
scalar IntersectionExampleScenario.node[24].nic.mac1609_4 	SlotsBackoff 	0
scalar IntersectionExampleScenario.node[24].nic.mac1609_4 	NumInternalContention 	0
scalar IntersectionExampleScenario.node[24].nic.mac1609_4 	totalBusyTime 	0
scalar IntersectionExampleScenario.node[24].veinsmobility 	startTime 	66.75
scalar IntersectionExampleScenario.node[24].veinsmobility 	totalTime 	105.75
scalar IntersectionExampleScenario.node[24].veinsmobility 	stopTime 	172.75
scalar IntersectionExampleScenario.node[24].veinsmobility 	minSpeed 	0
scalar IntersectionExampleScenario.node[24].veinsmobility 	maxSpeed 	16.89999961853
scalar IntersectionExampleScenario.node[24].veinsmobility 	totalDistance 	542.82054297565
scalar IntersectionExampleScenario.node[24].veinsmobility 	totalCO2Emission 	201.57749281384
scalar IntersectionExampleScenario.node[33].appl 	VehicleRemoved 	0
scalar IntersectionExampleScenario.node[33].appl 	ArrivedAtDest 	1
scalar IntersectionExampleScenario.node[33].appl 	IntersectionEnterTime 	116.25
scalar IntersectionExampleScenario.node[33].appl 	IntersectionExitTime 	159.02322854952
scalar IntersectionExampleScenario.node[33].appl 	NumberOfCollisions 	0
scalar IntersectionExampleScenario.node[33].nic.phy80211p 	busyTime 	0
scalar IntersectionExampleScenario.node[33].nic.mac1609_4 	ReceivedUnicastPackets 	0
scalar IntersectionExampleScenario.node[33].nic.mac1609_4 	ReceivedBroadcasts 	0
scalar IntersectionExampleScenario.node[33].nic.mac1609_4 	SentPackets 	0
scalar IntersectionExampleScenario.node[33].nic.mac1609_4 	SNIRLostPackets 	0
scalar IntersectionExampleScenario.node[33].nic.mac1609_4 	RXTXLostPackets 	0
scalar IntersectionExampleScenario.node[33].nic.mac1609_4 	TotalLostPackets 	0
scalar IntersectionExampleScenario.node[33].nic.mac1609_4 	DroppedPacketsInMac 	0
scalar IntersectionExampleScenario.node[33].nic.mac1609_4 	TooLittleTime 	0
scalar IntersectionExampleScenario.node[33].nic.mac1609_4 	TimesIntoBackoff 	0
scalar IntersectionExampleScenario.node[33].nic.mac1609_4 	SlotsBackoff 	0
scalar IntersectionExampleScenario.node[33].nic.mac1609_4 	NumInternalContention 	0
scalar IntersectionExampleScenario.node[33].nic.mac1609_4 	totalBusyTime 	0
scalar IntersectionExampleScenario.node[33].veinsmobility 	startTime 	116.25
scalar IntersectionExampleScenario.node[33].veinsmobility 	totalTime 	58.5
scalar IntersectionExampleScenario.node[33].veinsmobility 	stopTime 	175
scalar IntersectionExampleScenario.node[33].veinsmobility 	minSpeed 	0
scalar IntersectionExampleScenario.node[33].veinsmobility 	maxSpeed 	16.125
scalar IntersectionExampleScenario.node[33].veinsmobility 	totalDistance 	553.94520568848
scalar IntersectionExampleScenario.node[33].veinsmobility 	totalCO2Emission 	151.55738481684
scalar IntersectionExampleScenario.node[39].appl 	VehicleRemoved 	0
scalar IntersectionExampleScenario.node[39].appl 	ArrivedAtDest 	1
scalar IntersectionExampleScenario.node[39].appl 	IntersectionEnterTime 	128.75
scalar IntersectionExampleScenario.node[39].appl 	IntersectionExitTime 	161.36266232628
scalar IntersectionExampleScenario.node[39].appl 	NumberOfCollisions 	0
scalar IntersectionExampleScenario.node[39].nic.phy80211p 	busyTime 	0
scalar IntersectionExampleScenario.node[39].nic.mac1609_4 	ReceivedUnicastPackets 	0
scalar IntersectionExampleScenario.node[39].nic.mac1609_4 	ReceivedBroadcasts 	0
scalar IntersectionExampleScenario.node[39].nic.mac1609_4 	SentPackets 	0
scalar IntersectionExampleScenario.node[39].nic.mac1609_4 	SNIRLostPackets 	0
scalar IntersectionExampleScenario.node[39].nic.mac1609_4 	RXTXLostPackets 	0
scalar IntersectionExampleScenario.node[39].nic.mac1609_4 	TotalLostPackets 	0
scalar IntersectionExampleScenario.node[39].nic.mac1609_4 	DroppedPacketsInMac 	0
scalar IntersectionExampleScenario.node[39].nic.mac1609_4 	TooLittleTime 	0
scalar IntersectionExampleScenario.node[39].nic.mac1609_4 	TimesIntoBackoff 	0
scalar IntersectionExampleScenario.node[39].nic.mac1609_4 	SlotsBackoff 	0
scalar IntersectionExampleScenario.node[39].nic.mac1609_4 	NumInternalContention 	0
scalar IntersectionExampleScenario.node[39].nic.mac1609_4 	totalBusyTime 	0
scalar IntersectionExampleScenario.node[39].veinsmobility 	startTime 	128.75
scalar IntersectionExampleScenario.node[39].veinsmobility 	totalTime 	49.25
scalar IntersectionExampleScenario.node[39].veinsmobility 	stopTime 	178.25
scalar IntersectionExampleScenario.node[39].veinsmobility 	minSpeed 	2.5677011013031
scalar IntersectionExampleScenario.node[39].veinsmobility 	maxSpeed 	15.02499961853
scalar IntersectionExampleScenario.node[39].veinsmobility 	totalDistance 	554.31663513184
scalar IntersectionExampleScenario.node[39].veinsmobility 	totalCO2Emission 	134.89132049892
scalar IntersectionExampleScenario.node[42].appl 	VehicleRemoved 	0
scalar IntersectionExampleScenario.node[42].appl 	ArrivedAtDest 	1
scalar IntersectionExampleScenario.node[42].appl 	IntersectionEnterTime 	130.25
scalar IntersectionExampleScenario.node[42].appl 	IntersectionExitTime 	164.05236733478
scalar IntersectionExampleScenario.node[42].appl 	NumberOfCollisions 	0
scalar IntersectionExampleScenario.node[42].nic.phy80211p 	busyTime 	0
scalar IntersectionExampleScenario.node[42].nic.mac1609_4 	ReceivedUnicastPackets 	0
scalar IntersectionExampleScenario.node[42].nic.mac1609_4 	ReceivedBroadcasts 	0
scalar IntersectionExampleScenario.node[42].nic.mac1609_4 	SentPackets 	0
scalar IntersectionExampleScenario.node[42].nic.mac1609_4 	SNIRLostPackets 	0
scalar IntersectionExampleScenario.node[42].nic.mac1609_4 	RXTXLostPackets 	0
scalar IntersectionExampleScenario.node[42].nic.mac1609_4 	TotalLostPackets 	0
scalar IntersectionExampleScenario.node[42].nic.mac1609_4 	DroppedPacketsInMac 	0
scalar IntersectionExampleScenario.node[42].nic.mac1609_4 	TooLittleTime 	0
scalar IntersectionExampleScenario.node[42].nic.mac1609_4 	TimesIntoBackoff 	0
scalar IntersectionExampleScenario.node[42].nic.mac1609_4 	SlotsBackoff 	0
scalar IntersectionExampleScenario.node[42].nic.mac1609_4 	NumInternalContention 	0
scalar IntersectionExampleScenario.node[42].nic.mac1609_4 	totalBusyTime 	0
scalar IntersectionExampleScenario.node[42].veinsmobility 	startTime 	130.25
scalar IntersectionExampleScenario.node[42].veinsmobility 	totalTime 	50.75
scalar IntersectionExampleScenario.node[42].veinsmobility 	stopTime 	181.25
scalar IntersectionExampleScenario.node[42].veinsmobility 	minSpeed 	2.0088264942169
scalar IntersectionExampleScenario.node[42].veinsmobility 	maxSpeed 	15.25
scalar IntersectionExampleScenario.node[42].veinsmobility 	totalDistance 	565.47828048513
scalar IntersectionExampleScenario.node[42].veinsmobility 	totalCO2Emission 	142.79423225047
scalar IntersectionExampleScenario.node[46].appl 	VehicleRemoved 	0
scalar IntersectionExampleScenario.node[46].appl 	ArrivedAtDest 	1
scalar IntersectionExampleScenario.node[46].appl 	IntersectionEnterTime 	139.5
scalar IntersectionExampleScenario.node[46].appl 	IntersectionExitTime 	166.6131744837
scalar IntersectionExampleScenario.node[46].appl 	NumberOfCollisions 	0
scalar IntersectionExampleScenario.node[46].nic.phy80211p 	busyTime 	0
scalar IntersectionExampleScenario.node[46].nic.mac1609_4 	ReceivedUnicastPackets 	0
scalar IntersectionExampleScenario.node[46].nic.mac1609_4 	ReceivedBroadcasts 	0
scalar IntersectionExampleScenario.node[46].nic.mac1609_4 	SentPackets 	0
scalar IntersectionExampleScenario.node[46].nic.mac1609_4 	SNIRLostPackets 	0
scalar IntersectionExampleScenario.node[46].nic.mac1609_4 	RXTXLostPackets 	0
scalar IntersectionExampleScenario.node[46].nic.mac1609_4 	TotalLostPackets 	0
scalar IntersectionExampleScenario.node[46].nic.mac1609_4 	DroppedPacketsInMac 	0
scalar IntersectionExampleScenario.node[46].nic.mac1609_4 	TooLittleTime 	0
scalar IntersectionExampleScenario.node[46].nic.mac1609_4 	TimesIntoBackoff 	0
scalar IntersectionExampleScenario.node[46].nic.mac1609_4 	SlotsBackoff 	0
scalar IntersectionExampleScenario.node[46].nic.mac1609_4 	NumInternalContention 	0
scalar IntersectionExampleScenario.node[46].nic.mac1609_4 	totalBusyTime 	0
scalar IntersectionExampleScenario.node[46].veinsmobility 	startTime 	139.5
scalar IntersectionExampleScenario.node[46].veinsmobility 	totalTime 	43.5
scalar IntersectionExampleScenario.node[46].veinsmobility 	stopTime 	183.25
scalar IntersectionExampleScenario.node[46].veinsmobility 	minSpeed 	5.6500000953674
scalar IntersectionExampleScenario.node[46].veinsmobility 	maxSpeed 	15.657402038574
scalar IntersectionExampleScenario.node[46].veinsmobility 	totalDistance 	546.67504424613
scalar IntersectionExampleScenario.node[46].veinsmobility 	totalCO2Emission 	129.03196498393
scalar IntersectionExampleScenario.node[47].appl 	VehicleRemoved 	0
scalar IntersectionExampleScenario.node[47].appl 	ArrivedAtDest 	1
scalar IntersectionExampleScenario.node[47].appl 	IntersectionEnterTime 	147.75
scalar IntersectionExampleScenario.node[47].appl 	IntersectionExitTime 	171.32873124792
scalar IntersectionExampleScenario.node[47].appl 	NumberOfCollisions 	0
scalar IntersectionExampleScenario.node[47].nic.phy80211p 	busyTime 	0
scalar IntersectionExampleScenario.node[47].nic.mac1609_4 	ReceivedUnicastPackets 	0
scalar IntersectionExampleScenario.node[47].nic.mac1609_4 	ReceivedBroadcasts 	0
scalar IntersectionExampleScenario.node[47].nic.mac1609_4 	SentPackets 	0
scalar IntersectionExampleScenario.node[47].nic.mac1609_4 	SNIRLostPackets 	0
scalar IntersectionExampleScenario.node[47].nic.mac1609_4 	RXTXLostPackets 	0
scalar IntersectionExampleScenario.node[47].nic.mac1609_4 	TotalLostPackets 	0
scalar IntersectionExampleScenario.node[47].nic.mac1609_4 	DroppedPacketsInMac 	0
scalar IntersectionExampleScenario.node[47].nic.mac1609_4 	TooLittleTime 	0
scalar IntersectionExampleScenario.node[47].nic.mac1609_4 	TimesIntoBackoff 	0
scalar IntersectionExampleScenario.node[47].nic.mac1609_4 	SlotsBackoff 	0
scalar IntersectionExampleScenario.node[47].nic.mac1609_4 	NumInternalContention 	0
scalar IntersectionExampleScenario.node[47].nic.mac1609_4 	totalBusyTime 	0
scalar IntersectionExampleScenario.node[47].veinsmobility 	startTime 	147.75
scalar IntersectionExampleScenario.node[47].veinsmobility 	totalTime 	39.75
scalar IntersectionExampleScenario.node[47].veinsmobility 	stopTime 	187.75
scalar IntersectionExampleScenario.node[47].veinsmobility 	minSpeed 	5.6500000953674
scalar IntersectionExampleScenario.node[47].veinsmobility 	maxSpeed 	15.875
scalar IntersectionExampleScenario.node[47].veinsmobility 	totalDistance 	543.14363676643
scalar IntersectionExampleScenario.node[47].veinsmobility 	totalCO2Emission 	129.69366905379
scalar IntersectionExampleScenario.node[49].appl 	VehicleRemoved 	0
scalar IntersectionExampleScenario.node[49].appl 	ArrivedAtDest 	1
scalar IntersectionExampleScenario.node[49].appl 	IntersectionEnterTime 	151.75
scalar IntersectionExampleScenario.node[49].appl 	IntersectionExitTime 	175.36824726555
scalar IntersectionExampleScenario.node[49].appl 	NumberOfCollisions 	0
scalar IntersectionExampleScenario.node[49].nic.phy80211p 	busyTime 	0
scalar IntersectionExampleScenario.node[49].nic.mac1609_4 	ReceivedUnicastPackets 	0
scalar IntersectionExampleScenario.node[49].nic.mac1609_4 	ReceivedBroadcasts 	0
scalar IntersectionExampleScenario.node[49].nic.mac1609_4 	SentPackets 	0
scalar IntersectionExampleScenario.node[49].nic.mac1609_4 	SNIRLostPackets 	0
scalar IntersectionExampleScenario.node[49].nic.mac1609_4 	RXTXLostPackets 	0
scalar IntersectionExampleScenario.node[49].nic.mac1609_4 	TotalLostPackets 	0
scalar IntersectionExampleScenario.node[49].nic.mac1609_4 	DroppedPacketsInMac 	0
scalar IntersectionExampleScenario.node[49].nic.mac1609_4 	TooLittleTime 	0
scalar IntersectionExampleScenario.node[49].nic.mac1609_4 	TimesIntoBackoff 	0
scalar IntersectionExampleScenario.node[49].nic.mac1609_4 	SlotsBackoff 	0
scalar IntersectionExampleScenario.node[49].nic.mac1609_4 	NumInternalContention 	0
[...]
scalar IntersectionExampleScenario.node[556].veinsmobility 	totalDistance 	274.34552001953
scalar IntersectionExampleScenario.node[556].veinsmobility 	totalCO2Emission 	78.859289277029
scalar IntersectionExampleScenario.node[557].appl 	VehicleRemoved 	0
scalar IntersectionExampleScenario.node[557].appl 	ArrivedAtDest 	0
scalar IntersectionExampleScenario.node[557].appl 	IntersectionEnterTime 	1767
scalar IntersectionExampleScenario.node[557].appl 	IntersectionExitTime 	-1
scalar IntersectionExampleScenario.node[557].appl 	NumberOfCollisions 	0
scalar IntersectionExampleScenario.node[557].nic.phy80211p 	busyTime 	0
scalar IntersectionExampleScenario.node[557].nic.mac1609_4 	ReceivedUnicastPackets 	0
scalar IntersectionExampleScenario.node[557].nic.mac1609_4 	ReceivedBroadcasts 	0
scalar IntersectionExampleScenario.node[557].nic.mac1609_4 	SentPackets 	0
scalar IntersectionExampleScenario.node[557].nic.mac1609_4 	SNIRLostPackets 	0
scalar IntersectionExampleScenario.node[557].nic.mac1609_4 	RXTXLostPackets 	0
scalar IntersectionExampleScenario.node[557].nic.mac1609_4 	TotalLostPackets 	0
scalar IntersectionExampleScenario.node[557].nic.mac1609_4 	DroppedPacketsInMac 	0
scalar IntersectionExampleScenario.node[557].nic.mac1609_4 	TooLittleTime 	0
scalar IntersectionExampleScenario.node[557].nic.mac1609_4 	TimesIntoBackoff 	0
scalar IntersectionExampleScenario.node[557].nic.mac1609_4 	SlotsBackoff 	0
scalar IntersectionExampleScenario.node[557].nic.mac1609_4 	NumInternalContention 	0
scalar IntersectionExampleScenario.node[557].nic.mac1609_4 	totalBusyTime 	0
scalar IntersectionExampleScenario.node[557].veinsmobility 	startTime 	1767
scalar IntersectionExampleScenario.node[557].veinsmobility 	totalTime 	33
scalar IntersectionExampleScenario.node[557].veinsmobility 	stopTime 	1800
scalar IntersectionExampleScenario.node[557].veinsmobility 	minSpeed 	0
scalar IntersectionExampleScenario.node[557].veinsmobility 	maxSpeed 	15.64999961853
scalar IntersectionExampleScenario.node[557].veinsmobility 	totalDistance 	266.61404418945
scalar IntersectionExampleScenario.node[557].veinsmobility 	totalCO2Emission 	70.497491716198
scalar IntersectionExampleScenario.node[558].appl 	VehicleRemoved 	0
scalar IntersectionExampleScenario.node[558].appl 	ArrivedAtDest 	0
scalar IntersectionExampleScenario.node[558].appl 	IntersectionEnterTime 	1769.25
scalar IntersectionExampleScenario.node[558].appl 	IntersectionExitTime 	-1
scalar IntersectionExampleScenario.node[558].appl 	NumberOfCollisions 	0
scalar IntersectionExampleScenario.node[558].nic.phy80211p 	busyTime 	0
scalar IntersectionExampleScenario.node[558].nic.mac1609_4 	ReceivedUnicastPackets 	0
scalar IntersectionExampleScenario.node[558].nic.mac1609_4 	ReceivedBroadcasts 	0
scalar IntersectionExampleScenario.node[558].nic.mac1609_4 	SentPackets 	0
scalar IntersectionExampleScenario.node[558].nic.mac1609_4 	SNIRLostPackets 	0
scalar IntersectionExampleScenario.node[558].nic.mac1609_4 	RXTXLostPackets 	0
scalar IntersectionExampleScenario.node[558].nic.mac1609_4 	TotalLostPackets 	0
scalar IntersectionExampleScenario.node[558].nic.mac1609_4 	DroppedPacketsInMac 	0
scalar IntersectionExampleScenario.node[558].nic.mac1609_4 	TooLittleTime 	0
scalar IntersectionExampleScenario.node[558].nic.mac1609_4 	TimesIntoBackoff 	0
scalar IntersectionExampleScenario.node[558].nic.mac1609_4 	SlotsBackoff 	0
scalar IntersectionExampleScenario.node[558].nic.mac1609_4 	NumInternalContention 	0
scalar IntersectionExampleScenario.node[558].nic.mac1609_4 	totalBusyTime 	0
scalar IntersectionExampleScenario.node[558].veinsmobility 	startTime 	1769.25
scalar IntersectionExampleScenario.node[558].veinsmobility 	totalTime 	30.75
scalar IntersectionExampleScenario.node[558].veinsmobility 	stopTime 	1800
scalar IntersectionExampleScenario.node[558].veinsmobility 	minSpeed 	2.0615785121918
scalar IntersectionExampleScenario.node[558].veinsmobility 	maxSpeed 	15.89151096344
scalar IntersectionExampleScenario.node[558].veinsmobility 	totalDistance 	267.13538360596
scalar IntersectionExampleScenario.node[558].veinsmobility 	totalCO2Emission 	80.731055008114
scalar IntersectionExampleScenario.node[559].appl 	VehicleRemoved 	0
scalar IntersectionExampleScenario.node[559].appl 	ArrivedAtDest 	0
scalar IntersectionExampleScenario.node[559].appl 	IntersectionEnterTime 	1772
scalar IntersectionExampleScenario.node[559].appl 	IntersectionExitTime 	-1
scalar IntersectionExampleScenario.node[559].appl 	NumberOfCollisions 	0
scalar IntersectionExampleScenario.node[559].nic.phy80211p 	busyTime 	0
scalar IntersectionExampleScenario.node[559].nic.mac1609_4 	ReceivedUnicastPackets 	0
scalar IntersectionExampleScenario.node[559].nic.mac1609_4 	ReceivedBroadcasts 	0
scalar IntersectionExampleScenario.node[559].nic.mac1609_4 	SentPackets 	0
scalar IntersectionExampleScenario.node[559].nic.mac1609_4 	SNIRLostPackets 	0
scalar IntersectionExampleScenario.node[559].nic.mac1609_4 	RXTXLostPackets 	0
scalar IntersectionExampleScenario.node[559].nic.mac1609_4 	TotalLostPackets 	0
scalar IntersectionExampleScenario.node[559].nic.mac1609_4 	DroppedPacketsInMac 	0
scalar IntersectionExampleScenario.node[559].nic.mac1609_4 	TooLittleTime 	0
scalar IntersectionExampleScenario.node[559].nic.mac1609_4 	TimesIntoBackoff 	0
scalar IntersectionExampleScenario.node[559].nic.mac1609_4 	SlotsBackoff 	0
scalar IntersectionExampleScenario.node[559].nic.mac1609_4 	NumInternalContention 	0
scalar IntersectionExampleScenario.node[559].nic.mac1609_4 	totalBusyTime 	0
scalar IntersectionExampleScenario.node[559].veinsmobility 	startTime 	1772
scalar IntersectionExampleScenario.node[559].veinsmobility 	totalTime 	28
scalar IntersectionExampleScenario.node[559].veinsmobility 	stopTime 	1800
scalar IntersectionExampleScenario.node[559].veinsmobility 	minSpeed 	-0.00537109375
scalar IntersectionExampleScenario.node[559].veinsmobility 	maxSpeed 	16.27499961853
scalar IntersectionExampleScenario.node[559].veinsmobility 	totalDistance 	254.05416870117
scalar IntersectionExampleScenario.node[559].veinsmobility 	totalCO2Emission 	76.54210247283
scalar IntersectionExampleScenario.node[560].appl 	VehicleRemoved 	0
scalar IntersectionExampleScenario.node[560].appl 	ArrivedAtDest 	0
scalar IntersectionExampleScenario.node[560].appl 	IntersectionEnterTime 	1773.5
scalar IntersectionExampleScenario.node[560].appl 	IntersectionExitTime 	-1
scalar IntersectionExampleScenario.node[560].appl 	NumberOfCollisions 	0
scalar IntersectionExampleScenario.node[560].nic.phy80211p 	busyTime 	0
scalar IntersectionExampleScenario.node[560].nic.mac1609_4 	ReceivedUnicastPackets 	0
scalar IntersectionExampleScenario.node[560].nic.mac1609_4 	ReceivedBroadcasts 	0
scalar IntersectionExampleScenario.node[560].nic.mac1609_4 	SentPackets 	0
scalar IntersectionExampleScenario.node[560].nic.mac1609_4 	SNIRLostPackets 	0
scalar IntersectionExampleScenario.node[560].nic.mac1609_4 	RXTXLostPackets 	0
scalar IntersectionExampleScenario.node[560].nic.mac1609_4 	TotalLostPackets 	0
scalar IntersectionExampleScenario.node[560].nic.mac1609_4 	DroppedPacketsInMac 	0
scalar IntersectionExampleScenario.node[560].nic.mac1609_4 	TooLittleTime 	0
scalar IntersectionExampleScenario.node[560].nic.mac1609_4 	TimesIntoBackoff 	0
scalar IntersectionExampleScenario.node[560].nic.mac1609_4 	SlotsBackoff 	0
scalar IntersectionExampleScenario.node[560].nic.mac1609_4 	NumInternalContention 	0
scalar IntersectionExampleScenario.node[560].nic.mac1609_4 	totalBusyTime 	0
scalar IntersectionExampleScenario.node[560].veinsmobility 	startTime 	1773.5
scalar IntersectionExampleScenario.node[560].veinsmobility 	totalTime 	26.5
scalar IntersectionExampleScenario.node[560].veinsmobility 	stopTime 	1800
scalar IntersectionExampleScenario.node[560].veinsmobility 	minSpeed 	1.8026077747345
scalar IntersectionExampleScenario.node[560].veinsmobility 	maxSpeed 	15.64999961853
scalar IntersectionExampleScenario.node[560].veinsmobility 	totalDistance 	252.32786560059
scalar IntersectionExampleScenario.node[560].veinsmobility 	totalCO2Emission 	69.705531820595
scalar IntersectionExampleScenario.node[561].appl 	VehicleRemoved 	0
scalar IntersectionExampleScenario.node[561].appl 	ArrivedAtDest 	0
scalar IntersectionExampleScenario.node[561].appl 	IntersectionEnterTime 	1792
scalar IntersectionExampleScenario.node[561].appl 	IntersectionExitTime 	-1
scalar IntersectionExampleScenario.node[561].appl 	NumberOfCollisions 	0
scalar IntersectionExampleScenario.node[561].nic.phy80211p 	busyTime 	0
scalar IntersectionExampleScenario.node[561].nic.mac1609_4 	ReceivedUnicastPackets 	0
scalar IntersectionExampleScenario.node[561].nic.mac1609_4 	ReceivedBroadcasts 	0
scalar IntersectionExampleScenario.node[561].nic.mac1609_4 	SentPackets 	0
scalar IntersectionExampleScenario.node[561].nic.mac1609_4 	SNIRLostPackets 	0
scalar IntersectionExampleScenario.node[561].nic.mac1609_4 	RXTXLostPackets 	0
scalar IntersectionExampleScenario.node[561].nic.mac1609_4 	TotalLostPackets 	0
scalar IntersectionExampleScenario.node[561].nic.mac1609_4 	DroppedPacketsInMac 	0
scalar IntersectionExampleScenario.node[561].nic.mac1609_4 	TooLittleTime 	0
scalar IntersectionExampleScenario.node[561].nic.mac1609_4 	TimesIntoBackoff 	0
scalar IntersectionExampleScenario.node[561].nic.mac1609_4 	SlotsBackoff 	0
scalar IntersectionExampleScenario.node[561].nic.mac1609_4 	NumInternalContention 	0
scalar IntersectionExampleScenario.node[561].nic.mac1609_4 	totalBusyTime 	0
scalar IntersectionExampleScenario.node[561].veinsmobility 	startTime 	1792
scalar IntersectionExampleScenario.node[561].veinsmobility 	totalTime 	8
scalar IntersectionExampleScenario.node[561].veinsmobility 	stopTime 	1800
scalar IntersectionExampleScenario.node[561].veinsmobility 	minSpeed 	5.6500000953674
scalar IntersectionExampleScenario.node[561].veinsmobility 	maxSpeed 	15.02499961853
scalar IntersectionExampleScenario.node[561].veinsmobility 	totalDistance 	100.19409179688
scalar IntersectionExampleScenario.node[561].veinsmobility 	totalCO2Emission 	39.235870999291
scalar IntersectionExampleScenario.node[562].appl 	VehicleRemoved 	0
scalar IntersectionExampleScenario.node[562].appl 	ArrivedAtDest 	0
scalar IntersectionExampleScenario.node[562].appl 	IntersectionEnterTime 	1792.25
scalar IntersectionExampleScenario.node[562].appl 	IntersectionExitTime 	-1
scalar IntersectionExampleScenario.node[562].appl 	NumberOfCollisions 	0
scalar IntersectionExampleScenario.node[562].nic.phy80211p 	busyTime 	0
scalar IntersectionExampleScenario.node[562].nic.mac1609_4 	ReceivedUnicastPackets 	0
scalar IntersectionExampleScenario.node[562].nic.mac1609_4 	ReceivedBroadcasts 	0
scalar IntersectionExampleScenario.node[562].nic.mac1609_4 	SentPackets 	0
scalar IntersectionExampleScenario.node[562].nic.mac1609_4 	SNIRLostPackets 	0
scalar IntersectionExampleScenario.node[562].nic.mac1609_4 	RXTXLostPackets 	0
scalar IntersectionExampleScenario.node[562].nic.mac1609_4 	TotalLostPackets 	0
scalar IntersectionExampleScenario.node[562].nic.mac1609_4 	DroppedPacketsInMac 	0
scalar IntersectionExampleScenario.node[562].nic.mac1609_4 	TooLittleTime 	0
scalar IntersectionExampleScenario.node[562].nic.mac1609_4 	TimesIntoBackoff 	0
scalar IntersectionExampleScenario.node[562].nic.mac1609_4 	SlotsBackoff 	0
scalar IntersectionExampleScenario.node[562].nic.mac1609_4 	NumInternalContention 	0
scalar IntersectionExampleScenario.node[562].nic.mac1609_4 	totalBusyTime 	0
scalar IntersectionExampleScenario.node[562].veinsmobility 	startTime 	1792.25
scalar IntersectionExampleScenario.node[562].veinsmobility 	totalTime 	7.75
scalar IntersectionExampleScenario.node[562].veinsmobility 	stopTime 	1800
scalar IntersectionExampleScenario.node[562].veinsmobility 	minSpeed 	5.6500000953674
scalar IntersectionExampleScenario.node[562].veinsmobility 	maxSpeed 	16.27499961853
scalar IntersectionExampleScenario.node[562].veinsmobility 	totalDistance 	100.11712646484
scalar IntersectionExampleScenario.node[562].veinsmobility 	totalCO2Emission 	42.739151987505
scalar IntersectionExampleScenario.node[563].appl 	VehicleRemoved 	0
scalar IntersectionExampleScenario.node[563].appl 	ArrivedAtDest 	0
scalar IntersectionExampleScenario.node[563].appl 	IntersectionEnterTime 	1794.25
scalar IntersectionExampleScenario.node[563].appl 	IntersectionExitTime 	-1
scalar IntersectionExampleScenario.node[563].appl 	NumberOfCollisions 	0
scalar IntersectionExampleScenario.node[563].nic.phy80211p 	busyTime 	0
scalar IntersectionExampleScenario.node[563].nic.mac1609_4 	ReceivedUnicastPackets 	0
scalar IntersectionExampleScenario.node[563].nic.mac1609_4 	ReceivedBroadcasts 	0
scalar IntersectionExampleScenario.node[563].nic.mac1609_4 	SentPackets 	0
scalar IntersectionExampleScenario.node[563].nic.mac1609_4 	SNIRLostPackets 	0
scalar IntersectionExampleScenario.node[563].nic.mac1609_4 	RXTXLostPackets 	0
scalar IntersectionExampleScenario.node[563].nic.mac1609_4 	TotalLostPackets 	0
scalar IntersectionExampleScenario.node[563].nic.mac1609_4 	DroppedPacketsInMac 	0
scalar IntersectionExampleScenario.node[563].nic.mac1609_4 	TooLittleTime 	0
scalar IntersectionExampleScenario.node[563].nic.mac1609_4 	TimesIntoBackoff 	0
scalar IntersectionExampleScenario.node[563].nic.mac1609_4 	SlotsBackoff 	0
scalar IntersectionExampleScenario.node[563].nic.mac1609_4 	NumInternalContention 	0
scalar IntersectionExampleScenario.node[563].nic.mac1609_4 	totalBusyTime 	0
scalar IntersectionExampleScenario.node[563].veinsmobility 	startTime 	1794.25
scalar IntersectionExampleScenario.node[563].veinsmobility 	totalTime 	5.75
scalar IntersectionExampleScenario.node[563].veinsmobility 	stopTime 	1800
scalar IntersectionExampleScenario.node[563].veinsmobility 	minSpeed 	5.6500000953674
scalar IntersectionExampleScenario.node[563].veinsmobility 	maxSpeed 	15.64999961853
scalar IntersectionExampleScenario.node[563].veinsmobility 	totalDistance 	67.01944732666
scalar IntersectionExampleScenario.node[563].veinsmobility 	totalCO2Emission 	35.581172149396
scalar IntersectionExampleScenario.node[564].appl 	VehicleRemoved 	0
scalar IntersectionExampleScenario.node[564].appl 	ArrivedAtDest 	0
scalar IntersectionExampleScenario.node[564].appl 	IntersectionEnterTime 	1796.75
scalar IntersectionExampleScenario.node[564].appl 	IntersectionExitTime 	-1
scalar IntersectionExampleScenario.node[564].appl 	NumberOfCollisions 	0
scalar IntersectionExampleScenario.node[564].nic.phy80211p 	busyTime 	0
scalar IntersectionExampleScenario.node[564].nic.mac1609_4 	ReceivedUnicastPackets 	0
scalar IntersectionExampleScenario.node[564].nic.mac1609_4 	ReceivedBroadcasts 	0
scalar IntersectionExampleScenario.node[564].nic.mac1609_4 	SentPackets 	0
scalar IntersectionExampleScenario.node[564].nic.mac1609_4 	SNIRLostPackets 	0
scalar IntersectionExampleScenario.node[564].nic.mac1609_4 	RXTXLostPackets 	0
scalar IntersectionExampleScenario.node[564].nic.mac1609_4 	TotalLostPackets 	0
scalar IntersectionExampleScenario.node[564].nic.mac1609_4 	DroppedPacketsInMac 	0
scalar IntersectionExampleScenario.node[564].nic.mac1609_4 	TooLittleTime 	0
scalar IntersectionExampleScenario.node[564].nic.mac1609_4 	TimesIntoBackoff 	0
scalar IntersectionExampleScenario.node[564].nic.mac1609_4 	SlotsBackoff 	0
scalar IntersectionExampleScenario.node[564].nic.mac1609_4 	NumInternalContention 	0
scalar IntersectionExampleScenario.node[564].nic.mac1609_4 	totalBusyTime 	0
scalar IntersectionExampleScenario.node[564].veinsmobility 	startTime 	1796.75
scalar IntersectionExampleScenario.node[564].veinsmobility 	totalTime 	3.25
scalar IntersectionExampleScenario.node[564].veinsmobility 	stopTime 	1800
scalar IntersectionExampleScenario.node[564].veinsmobility 	minSpeed 	5.6500000953674
scalar IntersectionExampleScenario.node[564].veinsmobility 	maxSpeed 	13.14999961853
scalar IntersectionExampleScenario.node[564].veinsmobility 	totalDistance 	29.534362792969
scalar IntersectionExampleScenario.node[564].veinsmobility 	totalCO2Emission 	22.582438530969
scalar IntersectionExampleScenario.node[565].appl 	VehicleRemoved 	0
scalar IntersectionExampleScenario.node[565].appl 	ArrivedAtDest 	0
scalar IntersectionExampleScenario.node[565].appl 	IntersectionEnterTime 	1798
scalar IntersectionExampleScenario.node[565].appl 	IntersectionExitTime 	-1
scalar IntersectionExampleScenario.node[565].appl 	NumberOfCollisions 	0
scalar IntersectionExampleScenario.node[565].nic.phy80211p 	busyTime 	0
scalar IntersectionExampleScenario.node[565].nic.mac1609_4 	ReceivedUnicastPackets 	0
scalar IntersectionExampleScenario.node[565].nic.mac1609_4 	ReceivedBroadcasts 	0
scalar IntersectionExampleScenario.node[565].nic.mac1609_4 	SentPackets 	0
scalar IntersectionExampleScenario.node[565].nic.mac1609_4 	SNIRLostPackets 	0
scalar IntersectionExampleScenario.node[565].nic.mac1609_4 	RXTXLostPackets 	0
scalar IntersectionExampleScenario.node[565].nic.mac1609_4 	TotalLostPackets 	0
scalar IntersectionExampleScenario.node[565].nic.mac1609_4 	DroppedPacketsInMac 	0
scalar IntersectionExampleScenario.node[565].nic.mac1609_4 	TooLittleTime 	0
scalar IntersectionExampleScenario.node[565].nic.mac1609_4 	TimesIntoBackoff 	0
scalar IntersectionExampleScenario.node[565].nic.mac1609_4 	SlotsBackoff 	0
scalar IntersectionExampleScenario.node[565].nic.mac1609_4 	NumInternalContention 	0
scalar IntersectionExampleScenario.node[565].nic.mac1609_4 	totalBusyTime 	0
scalar IntersectionExampleScenario.node[565].veinsmobility 	startTime 	1798
scalar IntersectionExampleScenario.node[565].veinsmobility 	totalTime 	2
scalar IntersectionExampleScenario.node[565].veinsmobility 	stopTime 	1800
scalar IntersectionExampleScenario.node[565].veinsmobility 	minSpeed 	5.6500000953674
scalar IntersectionExampleScenario.node[565].veinsmobility 	maxSpeed 	10.02499961853
scalar IntersectionExampleScenario.node[565].veinsmobility 	totalDistance 	15.049987792969
scalar IntersectionExampleScenario.node[565].veinsmobility 	totalCO2Emission 	11.317369352905
scalar IntersectionExampleScenario.node[566].appl 	VehicleRemoved 	0
scalar IntersectionExampleScenario.node[566].appl 	ArrivedAtDest 	0
scalar IntersectionExampleScenario.node[566].appl 	IntersectionEnterTime 	1798.5
scalar IntersectionExampleScenario.node[566].appl 	IntersectionExitTime 	-1
scalar IntersectionExampleScenario.node[566].appl 	NumberOfCollisions 	0
scalar IntersectionExampleScenario.node[566].nic.phy80211p 	busyTime 	0
scalar IntersectionExampleScenario.node[566].nic.mac1609_4 	ReceivedUnicastPackets 	0
scalar IntersectionExampleScenario.node[566].nic.mac1609_4 	ReceivedBroadcasts 	0
scalar IntersectionExampleScenario.node[566].nic.mac1609_4 	SentPackets 	0
scalar IntersectionExampleScenario.node[566].nic.mac1609_4 	SNIRLostPackets 	0
scalar IntersectionExampleScenario.node[566].nic.mac1609_4 	RXTXLostPackets 	0
scalar IntersectionExampleScenario.node[566].nic.mac1609_4 	TotalLostPackets 	0
scalar IntersectionExampleScenario.node[566].nic.mac1609_4 	DroppedPacketsInMac 	0
scalar IntersectionExampleScenario.node[566].nic.mac1609_4 	TooLittleTime 	0
scalar IntersectionExampleScenario.node[566].nic.mac1609_4 	TimesIntoBackoff 	0
scalar IntersectionExampleScenario.node[566].nic.mac1609_4 	SlotsBackoff 	0
scalar IntersectionExampleScenario.node[566].nic.mac1609_4 	NumInternalContention 	0
scalar IntersectionExampleScenario.node[566].nic.mac1609_4 	totalBusyTime 	0
scalar IntersectionExampleScenario.node[566].veinsmobility 	startTime 	1798.5
scalar IntersectionExampleScenario.node[566].veinsmobility 	totalTime 	1.5
scalar IntersectionExampleScenario.node[566].veinsmobility 	stopTime 	1800
scalar IntersectionExampleScenario.node[566].veinsmobility 	minSpeed 	5.6500000953674
scalar IntersectionExampleScenario.node[566].veinsmobility 	maxSpeed 	8.7749996185303
scalar IntersectionExampleScenario.node[566].veinsmobility 	totalDistance 	10.349975585938
scalar IntersectionExampleScenario.node[566].veinsmobility 	totalCO2Emission 	7.5597628883124
