file 29817607 1591422104                                        
version 2
run nodebug-8-20200606-01:36:24-22484
attr configname nodebug
attr datetime 20200606-01:36:24
attr experiment nodebug
attr inifile omnetpp.ini
attr iterationvars ""
attr iterationvars2 $repetition=8
attr measurement ""
attr network "\"org.car2x.veins.modules.application.ExtTraCIScenarioManagerLaunchd.IntersectionExampleScenario\""
attr processid 22484
attr repetition 8
attr replication #8
attr resultdir results
attr runnumber 8
attr seedset 8
param **.coreDebug false
param **.debug false
param *.**.nic.mac1609_4.bitrate 18Mbps
param *.**.nic.mac1609_4.txPower 20mW
param *.**.nic.mac1609_4.useServiceChannel false
param *.**.nic.phy80211p.analogueModels "xmldoc(\"config.xml\")"
param *.**.nic.phy80211p.decider "xmldoc(\"config.xml\")"
param *.**.nic.phy80211p.sensitivity -89dBm
param *.**.nic.phy80211p.thermalNoise -110dBm
param *.**.nic.phy80211p.usePropagationDelay true
param *.**.nic.phy80211p.useThermalNoise true
param *.annotations.draw false
param *.connectionManager.alpha 2.0
param *.connectionManager.carrierFrequency "5.890e9 Hz"
param *.connectionManager.pMax 20mW
param *.connectionManager.sat -89dBm
param *.connectionManager.sendDirect true
param *.manager.autoShutdown true
param *.manager.host "\"localhost\""
param *.manager.launchConfig "xmldoc(\"paramics.launchd.xml\")"
param *.manager.margin 25
param *.manager.moduleDisplayString "\"\""
param *.manager.moduleName "\"node\""
param *.manager.moduleType "\"org.car2x.veins.nodes.Car\""
param *.manager.port 9999
param *.manager.updateInterval 250ms
param *.node[*0].veinsmobility.accidentCount 0
param *.node[*0].veinsmobility.accidentDuration 30s
param *.node[*0].veinsmobility.accidentStart 75s
param *.node[*].appl.LiderSelectZoneRadio 55.0
param *.node[*].appl.ShareDataZoneRadio 110.0
param *.node[*].appl.TiempoSemaforo 30.0
param *.node[*].appl.beaconInterval 1s
param *.node[*].appl.beaconPriority 3
param *.node[*].appl.dataOnSch false
param *.node[*].appl.dataPriority 2
param *.node[*].appl.debug false
param *.node[*].appl.headerLength "256 bit"
param *.node[*].appl.maxOffset 0.005s
param *.node[*].appl.sendBeacons false
param *.node[*].appl.sendData true
param *.node[*].applType "\"Dummy\""
param *.node[*].mobilityType "\"TraCIMobility\""
param *.node[*].mobilityType.debug true
param *.node[*].veinsmobility.x 0
param *.node[*].veinsmobility.y 0
param *.node[*].veinsmobility.z 1.895
param *.node[*].veinsmobilityType "\"org.car2x.veins.modules.mobility.traci.TraCIMobility\""
param *.node[*].veinsmobilityType.debug true
param *.playgroundSizeX 8500m
param *.playgroundSizeY 8500m
param *.playgroundSizeZ 50m
param *.world.use2D false
param *.world.useTorus false

vector 3894  IntersectionExampleScenario.manager  vehiclesinsim  ETV
attr type  int
vector 3895  IntersectionExampleScenario.manager  realtime  ETV
attr type  int
attr unit  s
vector 3898  IntersectionExampleScenario.node[0].veinsmobility  posx  ETV
vector 3899  IntersectionExampleScenario.node[0].veinsmobility  posy  ETV
vector 3900  IntersectionExampleScenario.node[0].veinsmobility  speed  ETV
vector 3901  IntersectionExampleScenario.node[0].veinsmobility  acceleration  ETV
vector 3902  IntersectionExampleScenario.node[0].veinsmobility  co2emission  ETV
vector 3905  IntersectionExampleScenario.node[1].veinsmobility  posx  ETV
vector 3906  IntersectionExampleScenario.node[1].veinsmobility  posy  ETV
vector 3907  IntersectionExampleScenario.node[1].veinsmobility  speed  ETV
vector 3908  IntersectionExampleScenario.node[1].veinsmobility  acceleration  ETV
vector 3909  IntersectionExampleScenario.node[1].veinsmobility  co2emission  ETV
vector 3912  IntersectionExampleScenario.node[2].veinsmobility  posx  ETV
vector 3913  IntersectionExampleScenario.node[2].veinsmobility  posy  ETV
vector 3914  IntersectionExampleScenario.node[2].veinsmobility  speed  ETV
vector 3915  IntersectionExampleScenario.node[2].veinsmobility  acceleration  ETV
vector 3916  IntersectionExampleScenario.node[2].veinsmobility  co2emission  ETV
vector 3919  IntersectionExampleScenario.node[3].veinsmobility  posx  ETV
vector 3920  IntersectionExampleScenario.node[3].veinsmobility  posy  ETV
vector 3921  IntersectionExampleScenario.node[3].veinsmobility  speed  ETV
vector 3922  IntersectionExampleScenario.node[3].veinsmobility  acceleration  ETV
vector 3923  IntersectionExampleScenario.node[3].veinsmobility  co2emission  ETV
vector 3926  IntersectionExampleScenario.node[4].veinsmobility  posx  ETV
vector 3927  IntersectionExampleScenario.node[4].veinsmobility  posy  ETV
vector 3933  IntersectionExampleScenario.node[5].veinsmobility  posx  ETV
vector 3934  IntersectionExampleScenario.node[5].veinsmobility  posy  ETV
vector 3928  IntersectionExampleScenario.node[4].veinsmobility  speed  ETV
vector 3929  IntersectionExampleScenario.node[4].veinsmobility  acceleration  ETV
vector 3930  IntersectionExampleScenario.node[4].veinsmobility  co2emission  ETV
vector 3935  IntersectionExampleScenario.node[5].veinsmobility  speed  ETV
vector 3936  IntersectionExampleScenario.node[5].veinsmobility  acceleration  ETV
vector 3937  IntersectionExampleScenario.node[5].veinsmobility  co2emission  ETV
vector 3940  IntersectionExampleScenario.node[6].veinsmobility  posx  ETV
vector 3941  IntersectionExampleScenario.node[6].veinsmobility  posy  ETV
vector 3942  IntersectionExampleScenario.node[6].veinsmobility  speed  ETV
vector 3943  IntersectionExampleScenario.node[6].veinsmobility  acceleration  ETV
vector 3944  IntersectionExampleScenario.node[6].veinsmobility  co2emission  ETV
vector 3947  IntersectionExampleScenario.node[7].veinsmobility  posx  ETV
vector 3948  IntersectionExampleScenario.node[7].veinsmobility  posy  ETV
vector 3954  IntersectionExampleScenario.node[8].veinsmobility  posx  ETV
vector 3955  IntersectionExampleScenario.node[8].veinsmobility  posy  ETV
vector 3949  IntersectionExampleScenario.node[7].veinsmobility  speed  ETV
vector 3956  IntersectionExampleScenario.node[8].veinsmobility  speed  ETV
vector 3950  IntersectionExampleScenario.node[7].veinsmobility  acceleration  ETV
vector 3951  IntersectionExampleScenario.node[7].veinsmobility  co2emission  ETV
vector 3957  IntersectionExampleScenario.node[8].veinsmobility  acceleration  ETV
vector 3958  IntersectionExampleScenario.node[8].veinsmobility  co2emission  ETV
vector 3961  IntersectionExampleScenario.node[9].veinsmobility  posx  ETV
vector 3962  IntersectionExampleScenario.node[9].veinsmobility  posy  ETV
vector 3968  IntersectionExampleScenario.node[10].veinsmobility  posx  ETV
vector 3969  IntersectionExampleScenario.node[10].veinsmobility  posy  ETV
vector 3963  IntersectionExampleScenario.node[9].veinsmobility  speed  ETV
vector 3975  IntersectionExampleScenario.node[11].veinsmobility  posx  ETV
vector 3976  IntersectionExampleScenario.node[11].veinsmobility  posy  ETV
vector 3964  IntersectionExampleScenario.node[9].veinsmobility  acceleration  ETV
vector 3965  IntersectionExampleScenario.node[9].veinsmobility  co2emission  ETV
vector 3970  IntersectionExampleScenario.node[10].veinsmobility  speed  ETV
vector 3971  IntersectionExampleScenario.node[10].veinsmobility  acceleration  ETV
vector 3972  IntersectionExampleScenario.node[10].veinsmobility  co2emission  ETV
vector 3977  IntersectionExampleScenario.node[11].veinsmobility  speed  ETV
vector 3978  IntersectionExampleScenario.node[11].veinsmobility  acceleration  ETV
vector 3979  IntersectionExampleScenario.node[11].veinsmobility  co2emission  ETV
vector 3982  IntersectionExampleScenario.node[12].veinsmobility  posx  ETV
vector 3983  IntersectionExampleScenario.node[12].veinsmobility  posy  ETV
vector 3989  IntersectionExampleScenario.node[13].veinsmobility  posx  ETV
vector 3990  IntersectionExampleScenario.node[13].veinsmobility  posy  ETV
vector 3984  IntersectionExampleScenario.node[12].veinsmobility  speed  ETV
vector 3985  IntersectionExampleScenario.node[12].veinsmobility  acceleration  ETV
vector 3986  IntersectionExampleScenario.node[12].veinsmobility  co2emission  ETV
vector 3991  IntersectionExampleScenario.node[13].veinsmobility  speed  ETV
vector 3992  IntersectionExampleScenario.node[13].veinsmobility  acceleration  ETV
vector 3993  IntersectionExampleScenario.node[13].veinsmobility  co2emission  ETV
vector 3996  IntersectionExampleScenario.node[14].veinsmobility  posx  ETV
vector 3997  IntersectionExampleScenario.node[14].veinsmobility  posy  ETV
vector 3998  IntersectionExampleScenario.node[14].veinsmobility  speed  ETV
vector 3999  IntersectionExampleScenario.node[14].veinsmobility  acceleration  ETV
vector 4000  IntersectionExampleScenario.node[14].veinsmobility  co2emission  ETV
vector 4003  IntersectionExampleScenario.node[15].veinsmobility  posx  ETV
vector 4004  IntersectionExampleScenario.node[15].veinsmobility  posy  ETV
vector 4010  IntersectionExampleScenario.node[16].veinsmobility  posx  ETV
vector 4011  IntersectionExampleScenario.node[16].veinsmobility  posy  ETV
vector 4005  IntersectionExampleScenario.node[15].veinsmobility  speed  ETV
vector 4012  IntersectionExampleScenario.node[16].veinsmobility  speed  ETV
vector 4006  IntersectionExampleScenario.node[15].veinsmobility  acceleration  ETV
vector 4007  IntersectionExampleScenario.node[15].veinsmobility  co2emission  ETV
vector 4013  IntersectionExampleScenario.node[16].veinsmobility  acceleration  ETV
vector 4014  IntersectionExampleScenario.node[16].veinsmobility  co2emission  ETV
vector 4017  IntersectionExampleScenario.node[17].veinsmobility  posx  ETV
vector 4018  IntersectionExampleScenario.node[17].veinsmobility  posy  ETV
vector 4019  IntersectionExampleScenario.node[17].veinsmobility  speed  ETV
vector 4020  IntersectionExampleScenario.node[17].veinsmobility  acceleration  ETV
vector 4021  IntersectionExampleScenario.node[17].veinsmobility  co2emission  ETV
vector 4024  IntersectionExampleScenario.node[18].veinsmobility  posx  ETV
vector 4025  IntersectionExampleScenario.node[18].veinsmobility  posy  ETV
vector 4026  IntersectionExampleScenario.node[18].veinsmobility  speed  ETV
vector 4027  IntersectionExampleScenario.node[18].veinsmobility  acceleration  ETV
vector 4028  IntersectionExampleScenario.node[18].veinsmobility  co2emission  ETV
vector 4031  IntersectionExampleScenario.node[19].veinsmobility  posx  ETV
vector 4032  IntersectionExampleScenario.node[19].veinsmobility  posy  ETV
vector 4033  IntersectionExampleScenario.node[19].veinsmobility  speed  ETV
vector 4034  IntersectionExampleScenario.node[19].veinsmobility  acceleration  ETV
vector 4035  IntersectionExampleScenario.node[19].veinsmobility  co2emission  ETV
vector 4038  IntersectionExampleScenario.node[20].veinsmobility  posx  ETV
vector 4039  IntersectionExampleScenario.node[20].veinsmobility  posy  ETV
vector 4040  IntersectionExampleScenario.node[20].veinsmobility  speed  ETV
vector 4041  IntersectionExampleScenario.node[20].veinsmobility  acceleration  ETV
vector 4042  IntersectionExampleScenario.node[20].veinsmobility  co2emission  ETV
vector 4045  IntersectionExampleScenario.node[21].veinsmobility  posx  ETV
vector 4046  IntersectionExampleScenario.node[21].veinsmobility  posy  ETV
vector 4047  IntersectionExampleScenario.node[21].veinsmobility  speed  ETV
vector 4048  IntersectionExampleScenario.node[21].veinsmobility  acceleration  ETV
vector 4049  IntersectionExampleScenario.node[21].veinsmobility  co2emission  ETV
vector 4052  IntersectionExampleScenario.node[22].veinsmobility  posx  ETV
vector 4053  IntersectionExampleScenario.node[22].veinsmobility  posy  ETV
vector 4054  IntersectionExampleScenario.node[22].veinsmobility  speed  ETV
vector 4055  IntersectionExampleScenario.node[22].veinsmobility  acceleration  ETV
vector 4056  IntersectionExampleScenario.node[22].veinsmobility  co2emission  ETV
3909	11986 4767 34 3988 2.75 41.5 156 0.973 11.54047740176 466.15982120664 2342.423113526
3908	16753 4109 34 3988 2.75 41.5 156 -3.0623931884766 2.5 37.492597579956 180.55984296702
3907	20862 4684 29 3988 2.5 41.5 157 5.6500000953674 15.5 2221.0238161087 32010.779935585
3906	25546 4944 24 3988 2.25 41.5 158 486.85000610352 486.85000610352 76922.300964355 37449622.693993
3905	30490 4933 24 3988 2.25 41.5 158 235.65802001953 785.82187652588 82274.189613342 47050363.778562
vector 4059  IntersectionExampleScenario.node[23].veinsmobility  posx  ETV
vector 4060  IntersectionExampleScenario.node[23].veinsmobility  posy  ETV
vector 4061  IntersectionExampleScenario.node[23].veinsmobility  speed  ETV
vector 4062  IntersectionExampleScenario.node[23].veinsmobility  acceleration  ETV
vector 4063  IntersectionExampleScenario.node[23].veinsmobility  co2emission  ETV
3930	35819 4692 275 4966 10.5 48.25 152 0.973 12.099024792222 509.65437851529 2931.6333282533
3929	40511 4234 275 4966 10.5 48.25 152 -3.4178009033203 2.5 41.227170944214 260.25388798362
3928	44745 4557 262 4966 10.25 48.25 153 5.6500000953674 16.27499961853 2208.285572052 32998.513095376
3927	49302 4882 251 4966 10 48.25 154 236.80908203125 486.85000610352 66920.822570801 29998908.083592
3926	54184 4882 251 4966 10 48.25 154 483.12088012695 785.82187652588 88135.233253479 52175747.115485
vector 4066  IntersectionExampleScenario.node[24].veinsmobility  posx  ETV
vector 4067  IntersectionExampleScenario.node[24].veinsmobility  posy  ETV
vector 4068  IntersectionExampleScenario.node[24].veinsmobility  speed  ETV
vector 4069  IntersectionExampleScenario.node[24].veinsmobility  acceleration  ETV
vector 4070  IntersectionExampleScenario.node[24].veinsmobility  co2emission  ETV
vector 4073  IntersectionExampleScenario.node[25].veinsmobility  posx  ETV
vector 4074  IntersectionExampleScenario.node[25].veinsmobility  posy  ETV
3916	59614 5486 88 5383 5.25 51 184 0.973 11.200708441096 536.96227713397 2674.0491167353
3915	65100 5007 88 5383 5.25 51 184 -8.6544380187988 4 35.795072555542 478.35016826786
3914	70107 5418 81 5383 5 51 185 0 15.02499961853 2218.0963425636 30381.5057129
3913	75525 5846 74 5383 4.75 51 186 184.17810058594 735.35032653809 84290.785614014 42523352.710191
3912	81371 5868 74 5383 4.75 51 186 486.85000610352 486.85000610352 90554.101135254 44086264.690397
vector 4075  IntersectionExampleScenario.node[25].veinsmobility  speed  ETV
vector 4076  IntersectionExampleScenario.node[25].veinsmobility  acceleration  ETV
vector 4077  IntersectionExampleScenario.node[25].veinsmobility  co2emission  ETV
3958	87483 4899 412 5752 12.75 53.25 163 0.973 11.810082123732 554.37908200893 3309.7655090807
3957	92382 4736 412 5752 12.75 53.25 163 -3.214937210083 2.5 40.038900375366 351.33454308343
3956	97118 4892 393 5752 12.5 53.25 164 5.6500000953674 15.875 2177.9288802147 30600.493807944
3955	102010 5224 374 5752 12.25 53.25 165 184.17810058594 483.26016235352 65725.474151611 27907240.652144
3954	107234 5245 374 5752 12.25 53.25 165 486.85000610352 731.61854553223 88215.080215454 48067075.078024
3993	112479 4633 844 6039 17.75 55 150 0.973 11.648172402475 518.12068946458 2983.3829509059
3992	117112 4301 844 6039 17.75 55 150 -4.5 2.5 39.699392318726 309.66308496136
3991	121413 4603 815 6039 17.5 55 151 5.6500000953674 15.64999961853 2118.9986753464 30463.524102808
3990	126016 4819 786 6039 17.25 55 152 209.0625 733.73924255371 69816.028564453 35649528.473165
3989	130835 4856 786 6039 17.25 55 152 486.85000610352 486.85000610352 74001.200927734 36027485.123335
vector 4080  IntersectionExampleScenario.node[26].veinsmobility  posx  ETV
vector 4081  IntersectionExampleScenario.node[26].veinsmobility  posy  ETV
vector 4082  IntersectionExampleScenario.node[26].veinsmobility  speed  ETV
vector 4087  IntersectionExampleScenario.node[27].veinsmobility  posx  ETV
vector 4088  IntersectionExampleScenario.node[27].veinsmobility  posy  ETV
vector 4083  IntersectionExampleScenario.node[26].veinsmobility  acceleration  ETV
vector 4084  IntersectionExampleScenario.node[26].veinsmobility  co2emission  ETV
vector 4089  IntersectionExampleScenario.node[27].veinsmobility  speed  ETV
vector 4090  IntersectionExampleScenario.node[27].veinsmobility  acceleration  ETV
vector 4091  IntersectionExampleScenario.node[27].veinsmobility  co2emission  ETV
3965	136483 5164 684 6530 16.25 58 168 0.973 10.65035628006 493.45479535664 2335.8113791137
3964	141647 5076 684 6530 16.25 58 168 -3.3032894134521 2.5 35.964826583862 197.02872515241
3963	146723 5180 661 6530 16 58 169 5.6500000953674 14.775932312012 2252.2805962563 30807.502396718
3962	151903 5408 640 6530 15.75 58 170 174.53436279297 733.04061889648 74421.550857544 37320206.250453
3961	157311 5425 640 6530 15.75 58 170 486.85000610352 486.85000610352 82764.501037598 40293897.835309
vector 4094  IntersectionExampleScenario.node[28].veinsmobility  posx  ETV
vector 4095  IntersectionExampleScenario.node[28].veinsmobility  posy  ETV
vector 4096  IntersectionExampleScenario.node[28].veinsmobility  speed  ETV
vector 4097  IntersectionExampleScenario.node[28].veinsmobility  acceleration  ETV
vector 4098  IntersectionExampleScenario.node[28].veinsmobility  co2emission  ETV
vector 4101  IntersectionExampleScenario.node[29].veinsmobility  posx  ETV
vector 4102  IntersectionExampleScenario.node[29].veinsmobility  posy  ETV
vector 4103  IntersectionExampleScenario.node[29].veinsmobility  speed  ETV
vector 4104  IntersectionExampleScenario.node[29].veinsmobility  acceleration  ETV
vector 4105  IntersectionExampleScenario.node[29].veinsmobility  co2emission  ETV
vector 4108  IntersectionExampleScenario.node[30].veinsmobility  posx  ETV
vector 4109  IntersectionExampleScenario.node[30].veinsmobility  posy  ETV
vector 4110  IntersectionExampleScenario.node[30].veinsmobility  speed  ETV
vector 4111  IntersectionExampleScenario.node[30].veinsmobility  acceleration  ETV
vector 4112  IntersectionExampleScenario.node[30].veinsmobility  co2emission  ETV
vector 4115  IntersectionExampleScenario.node[31].veinsmobility  posx  ETV
vector 4116  IntersectionExampleScenario.node[31].veinsmobility  posy  ETV
vector 4117  IntersectionExampleScenario.node[31].veinsmobility  speed  ETV
vector 4118  IntersectionExampleScenario.node[31].veinsmobility  acceleration  ETV
vector 4119  IntersectionExampleScenario.node[31].veinsmobility  co2emission  ETV
4028	164320 4955 2609 9107 32.25 72 160 0.973 11.648172402475 506.62173068736 2743.0137753722
4027	169275 4425 2609 9107 32.25 72 160 -3.4773120880127 2.5 38.341367721558 280.06647708604
4026	173700 4831 2572 9107 32 72 161 5.6500000953674 15.64999961853 2188.2596011162 31102.264453378
4025	178531 5158 2535 9107 31.75 72 162 184.17810058594 483.18157958984 64454.02557373 27390686.976022
4024	183689 5176 2535 9107 31.75 72 162 486.85000610352 734.19276428223 87133.301147461 47801198.298551
vector 4122  IntersectionExampleScenario.node[32].veinsmobility  posx  ETV
vector 4123  IntersectionExampleScenario.node[32].veinsmobility  posy  ETV
vector 4124  IntersectionExampleScenario.node[32].veinsmobility  speed  ETV
vector 4125  IntersectionExampleScenario.node[32].veinsmobility  acceleration  ETV
vector 4126  IntersectionExampleScenario.node[32].veinsmobility  co2emission  ETV
vector 4129  IntersectionExampleScenario.node[33].veinsmobility  posx  ETV
vector 4130  IntersectionExampleScenario.node[33].veinsmobility  posy  ETV
vector 4131  IntersectionExampleScenario.node[33].veinsmobility  speed  ETV
vector 4132  IntersectionExampleScenario.node[33].veinsmobility  acceleration  ETV
vector 4133  IntersectionExampleScenario.node[33].veinsmobility  co2emission  ETV
vector 4136  IntersectionExampleScenario.node[34].veinsmobility  posx  ETV
vector 4137  IntersectionExampleScenario.node[34].veinsmobility  posy  ETV
vector 4138  IntersectionExampleScenario.node[34].veinsmobility  speed  ETV
vector 4139  IntersectionExampleScenario.node[34].veinsmobility  acceleration  ETV
vector 4140  IntersectionExampleScenario.node[34].veinsmobility  co2emission  ETV
3902	190053 8354 9 10547 1 80.5 319 0.973 11.648172402475 683.28380599478 3052.9791940753
3901	198407 7551 9 10547 1 80.5 319 -7.11266040802 4 37.662351608276 469.41023118255
3900	205958 7747 6 10547 0.75 80.5 320 0 15.64999961853 2218.4005815983 31179.156173106
3899	213705 10148 3 10547 0.5 80.5 321 483.14999389648 483.14999389648 155091.14804077 74932287.229297
3898	223853 10107 3 10547 0.5 80.5 321 184.17810058594 734.95030212402 147899.43374634 72389565.203787
3923	233960 8650 134 10957 6.75 83 306 0.973 11.200708441096 647.20776945453 2697.5289771619
3922	242610 9057 134 10957 6.75 83 306 -3.7211842536926 2.5 35.795072555542 317.94692231061
3921	251667 9011 125 10957 6.5 83 307 0 15.02499961853 2211.2546857269 28909.037965905
3920	260678 9812 116 10957 6.25 83 308 483.14999389648 483.14999389648 148810.19812012 71897646.313469
3919	270490 9740 116 10957 6.25 83 308 184.17810058594 732.49076843262 140279.92463684 68166855.572759
3944	280230 8579 344 11244 11.75 84.75 293 0.973 11.90022389248 673.9025482166 3079.6962914287
3943	288809 9055 344 11244 11.75 84.75 293 -4.5 2.5 40.548154830933 413.7490395071
3942	297864 9017 329 11244 11.5 84.75 294 0 16 2100.6768030273 27635.582041443
3941	306881 9418 314 11244 11.25 84.75 295 483.14999389648 731.36468505859 150546.24743652 77934089.07509
3940	316299 9403 314 11244 11.25 84.75 295 208.90313720703 486.86410522461 126484.16629028 55813971.6887
vector 4143  IntersectionExampleScenario.node[35].veinsmobility  posx  ETV
vector 4144  IntersectionExampleScenario.node[35].veinsmobility  posy  ETV
vector 4145  IntersectionExampleScenario.node[35].veinsmobility  speed  ETV
vector 4146  IntersectionExampleScenario.node[35].veinsmobility  acceleration  ETV
vector 4147  IntersectionExampleScenario.node[35].veinsmobility  co2emission  ETV
vector 4150  IntersectionExampleScenario.node[36].veinsmobility  posx  ETV
vector 4151  IntersectionExampleScenario.node[36].veinsmobility  posy  ETV
3937	326250 9207 288 11661 10.75 87.25 307 0.973 11.90022389248 706.26844720336 3228.1960966647
3936	335457 9336 288 11661 10.75 87.25 307 -4.5 2.5 40.887662887573 468.02509574643
3935	344793 9491 275 11661 10.5 87.25 308 0 16 2231.6956079891 29344.597136992
3934	354284 9882 262 11661 10.25 87.25 309 483.14999389648 732.72016906738 157357.42919922 81262387.102906
3933	364166 9864 262 11661 10.25 87.25 309 177.97814941406 486.85000610352 128814.49142456 55951868.396168
vector 4152  IntersectionExampleScenario.node[36].veinsmobility  speed  ETV
vector 4153  IntersectionExampleScenario.node[36].veinsmobility  acceleration  ETV
vector 4154  IntersectionExampleScenario.node[36].veinsmobility  co2emission  ETV
4014	374274 7036 2329 12176 30.25 90.25 241 0.973 12.44402232946 642.84907800988 3506.3576053117
4013	381310 7387 2329 12176 30.25 90.25 241 -3.8203423023224 2.5 42.924703598022 367.37486474385
4012	388697 7541 2296 12176 30 90.25 242 0 16.75 2220.3756751809 30488.2633715
4011	396238 7828 2263 12176 29.75 90.25 243 483.14999389648 483.14999389648 117405.44851685 56724441.734328
4010	404066 7789 2263 12176 29.75 90.25 243 184.17810058594 733.31564331055 107043.00169373 51135557.942798
3979	411855 8846 734 12340 16.75 91.25 299 0.973 10.916047529558 644.50755080358 2759.9366749777
3978	420701 9279 734 12340 16.75 91.25 299 -3.8052024841309 2.5 34.606801986694 392.65220791119
3977	429980 9288 709 12340 16.5 91.25 300 0 14.625 2179.9401116204 26633.570886847
3976	439268 9668 684 12340 16.25 91.25 301 237.75848388672 483.14999389648 136800.39227295 63335798.304426
3975	448936 9636 684 12340 16.25 91.25 301 184.17810058594 483.14999389648 125315.38995361 54138378.375603
4070	458572 5308 5266 12750 50.25 93.75 175 0.973 11.648172402475 559.53719762072 3172.3380210153
4069	463880 5046 5266 12750 50.25 93.75 175 -3.7718696594238 2.5 38.511121749878 337.93713907819
4068	468926 5414 5227 12750 50 93.75 176 5.6500000953674 15.64999961853 2203.2709937096 29303.450470009
4067	474340 5673 5188 12750 49.75 93.75 177 483.14999389648 732.14312744141 93835.247329712 50735036.370921
4066	480013 5710 5188 12750 49.75 93.75 177 184.17810058594 487.04852294922 70623.947998047 29962056.625907
vector 4157  IntersectionExampleScenario.node[37].veinsmobility  posx  ETV
vector 4158  IntersectionExampleScenario.node[37].veinsmobility  posy  ETV
vector 4159  IntersectionExampleScenario.node[37].veinsmobility  speed  ETV
4091	485952 4821 6444 13185 57.5 96.5 157 0.973 11.54047740176 475.70349248669 2576.4956075948
4090	490773 4847 6444 13185 57.5 96.5 157 -3.4663696289062 2.5 37.492597579956 202.31669505185
4089	495620 4902 6401 13185 57.25 96.5 158 5.6500000953674 15.5 2223.3140964508 31862.935905709
4088	500522 5164 6358 13185 57 96.5 159 483.14999389648 483.14999389648 76820.849029541 37115992.739745
4087	505686 5139 6358 13185 57 96.5 159 184.17810058594 734.9871673584 71406.729171753 36299564.810138
vector 4160  IntersectionExampleScenario.node[37].veinsmobility  acceleration  ETV
vector 4161  IntersectionExampleScenario.node[37].veinsmobility  co2emission  ETV
vector 4164  IntersectionExampleScenario.node[38].veinsmobility  posx  ETV
vector 4165  IntersectionExampleScenario.node[38].veinsmobility  posy  ETV
vector 4171  IntersectionExampleScenario.node[39].veinsmobility  posx  ETV
vector 4172  IntersectionExampleScenario.node[39].veinsmobility  posy  ETV
vector 4166  IntersectionExampleScenario.node[38].veinsmobility  speed  ETV
vector 4167  IntersectionExampleScenario.node[38].veinsmobility  acceleration  ETV
vector 4168  IntersectionExampleScenario.node[38].veinsmobility  co2emission  ETV
vector 4173  IntersectionExampleScenario.node[39].veinsmobility  speed  ETV
vector 4174  IntersectionExampleScenario.node[39].veinsmobility  acceleration  ETV
vector 4175  IntersectionExampleScenario.node[39].veinsmobility  co2emission  ETV
4112	511784 4847 7757 14101 64.75 102.5 152 0.973 11.90022389248 510.94796377496 2841.3331405686
4111	516631 4130 7757 14101 64.75 102.5 152 -3.4125900268555 2.5 41.396924972534 255.1102690794
4110	520761 4715 7710 14101 64.5 102.5 153 5.6500000953674 16.015327453613 2210.0645418167 33053.222328411
4109	525476 4993 7662 14101 64.25 102.5 154 483.14999389648 733.59649658203 82465.001754761 45079778.433013
4108	530469 5011 7662 14101 64.25 102.5 154 184.17810058594 486.88095092773 61219.135375977 26074790.52773
vector 4178  IntersectionExampleScenario.node[40].veinsmobility  posx  ETV
vector 4179  IntersectionExampleScenario.node[40].veinsmobility  posy  ETV
vector 4180  IntersectionExampleScenario.node[40].veinsmobility  speed  ETV
vector 4185  IntersectionExampleScenario.node[41].veinsmobility  posx  ETV
vector 4186  IntersectionExampleScenario.node[41].veinsmobility  posy  ETV
vector 4181  IntersectionExampleScenario.node[40].veinsmobility  acceleration  ETV
vector 4182  IntersectionExampleScenario.node[40].veinsmobility  co2emission  ETV
4119	536028 5207 7902 14658 65.5 106.25 164 0.973 11.454193160291 501.4063992461 2619.2973773733
4118	541235 4801 7902 14658 65.5 106.25 164 -4.0047569274902 2.5 38.680875778198 223.97323298903
4117	546036 5142 7853 14658 65.25 106.25 165 5.6500000953674 15.528655052185 2304.7120885849 33155.61645566
4116	551178 5448 7804 14658 65 106.25 166 483.14999389648 733.97862243652 88626.540649414 48296566.693522
4115	556626 5431 7804 14658 65 106.25 166 161.1796875 486.85000610352 64642.340362549 27312990.658597
vector 4187  IntersectionExampleScenario.node[41].veinsmobility  speed  ETV
vector 4188  IntersectionExampleScenario.node[41].veinsmobility  acceleration  ETV
vector 4189  IntersectionExampleScenario.node[41].veinsmobility  co2emission  ETV
vector 4192  IntersectionExampleScenario.node[42].veinsmobility  posx  ETV
vector 4193  IntersectionExampleScenario.node[42].veinsmobility  posy  ETV
vector 4194  IntersectionExampleScenario.node[42].veinsmobility  speed  ETV
vector 4195  IntersectionExampleScenario.node[42].veinsmobility  acceleration  ETV
vector 4196  IntersectionExampleScenario.node[42].veinsmobility  co2emission  ETV
vector 4199  IntersectionExampleScenario.node[43].veinsmobility  posx  ETV
vector 4200  IntersectionExampleScenario.node[43].veinsmobility  posy  ETV
3972	562849 9768 709 15201 16.5 109.75 374 0.973 12.099024792222 761.90941277177 3393.4993061001
3971	572617 8700 709 15201 16.5 109.75 374 -7.2880325317383 4 41.057416915894 490.95668877536
3970	581317 8905 684 15201 16.25 109.75 375 0 16.27499961853 2205.2845826149 32263.751093549
3969	590222 12179 661 15201 16 109.75 376 483.14999389648 785.82187652588 198849.15343475 107393785.45547
3968	602401 12184 661 15201 16 109.75 376 483.14999389648 733.81205749512 189772.70477295 96958823.820578
vector 4201  IntersectionExampleScenario.node[43].veinsmobility  speed  ETV
vector 4202  IntersectionExampleScenario.node[43].veinsmobility  acceleration  ETV
vector 4203  IntersectionExampleScenario.node[43].veinsmobility  co2emission  ETV
vector 4206  IntersectionExampleScenario.node[44].veinsmobility  posx  ETV
vector 4207  IntersectionExampleScenario.node[44].veinsmobility  posy  ETV
vector 4208  IntersectionExampleScenario.node[44].veinsmobility  speed  ETV
vector 4209  IntersectionExampleScenario.node[44].veinsmobility  acceleration  ETV
vector 4210  IntersectionExampleScenario.node[44].veinsmobility  co2emission  ETV
4000	615225 10006 1399 15578 22.5 112 359 0.973 12.099024792222 741.91543047334 3336.381405404
3999	625231 9961 1399 15578 22.5 112 359 -3.839111328125 2.5 41.227170944214 365.24707796938
3998	635192 9992 1368 15578 22.25 112 360 0 16.27499961853 2210.8470378118 30892.44989136
3997	645184 11721 1337 15578 22 112 361 482.96752929688 785.82187652588 193066.44733429 105378554.35036
3996	656905 11721 1337 15578 22 112 361 483.14999389648 734.11253356934 182534.44796753 93467860.275972
vector 4213  IntersectionExampleScenario.node[45].veinsmobility  posx  ETV
vector 4214  IntersectionExampleScenario.node[45].veinsmobility  posy  ETV
vector 4215  IntersectionExampleScenario.node[45].veinsmobility  speed  ETV
vector 4216  IntersectionExampleScenario.node[45].veinsmobility  acceleration  ETV
vector 4217  IntersectionExampleScenario.node[45].veinsmobility  co2emission  ETV
4021	669022 9671 2465 16061 31.25 114.75 335 0.973 11.200708441096 677.36248326628 2780.20888692
4020	678693 9946 2465 16061 31.25 114.75 335 -3.8150162696838 2.5 35.964826583862 317.83577772042
4019	688639 10039 2430 16061 31 114.75 336 0 15.02499961853 2212.5451363586 28387.818790783
4018	698678 10970 2395 16061 30.75 114.75 337 237.45672607422 785.82187652588 174543.25121307 94671665.055975
4017	709648 10995 2395 16061 30.75 114.75 337 483.14999389648 483.14999389648 162821.54794312 78667229.894932
vector 4220  IntersectionExampleScenario.node[46].veinsmobility  posx  ETV
vector 4221  IntersectionExampleScenario.node[46].veinsmobility  posy  ETV
vector 4222  IntersectionExampleScenario.node[46].veinsmobility  speed  ETV
vector 4223  IntersectionExampleScenario.node[46].veinsmobility  acceleration  ETV
vector 4224  IntersectionExampleScenario.node[46].veinsmobility  co2emission  ETV
4035	721039 10252 2791 16523 33.5 117.25 336 0.973 11.200708441096 696.34240309421 2775.3211485543
4034	731291 10497 2791 16523 33.5 117.25 336 -4.5 2.5000009536743 35.625318527222 409.7290452087
4033	741788 10544 2754 16523 33.25 117.25 337 0 15.02499961853 2276.6581725208 29280.19542939
4032	752332 11014 2717 16523 33 117.25 338 238.42736816406 802.70781707764 177589.53876495 97962873.473391
4031	763346 11045 2717 16523 33 117.25 338 483.14999389648 483.14999389648 163304.69793701 78900663.811535
4056	774391 9657 3766 16899 40 119.25 318 0.96617054138114 11.810082123732 705.61025547928 3202.6668769131
4055	784048 10041 3766 16899 40 119.25 318 -3.9274597167969 2.5000009536743 40.208654403687 406.78725389721
4054	794089 10097 3729 16899 39.75 119.25 319 0 15.875 2182.2642109552 28673.930127163
4053	804186 10448 3692 16899 39.5 119.25 320 486.85000610352 785.82187652588 176224.56954193 98950948.389264
4052	814634 10480 3692 16899 39.5 119.25 320 237.54235839844 483.14999389648 146687.28366089 68335727.930097
4063	825114 9540 4448 17464 44.75 122.25 311 0.973 11.200708441096 673.5004597102 2937.202767727
4062	834654 9830 4448 17464 44.75 122.25 311 -3.8211958408356 2.5000019073486 35.795072555542 399.83149480257
4061	844484 9931 4411 17464 44.5 122.25 312 0 15.02499961853 2216.3618312944 28185.069500954
4060	854415 10247 4374 17464 44.25 122.25 313 483.14999389648 785.82187652588 173321.68947601 97918673.360024
4059	864662 10266 4374 17464 44.25 122.25 313 483.14999389648 734.86116027832 160100.67935181 83130068.079318
4147	874928 4871 11535 17887 86.5 124.5 153 0.973 12.553400930962 566.49381158927 3709.5846890463
4146	879799 4583 11535 17887 86.5 124.5 153 -4.5050354003906 2.5 42.585195541382 366.50483472934
4145	884382 4845 11492 17887 86.25 124.5 154 5.6500000953674 16.89999961853 2189.1923627853 32812.138070375
4144	889227 5200 11449 17887 86 124.5 155 486.82669067383 785.82187652588 88762.085365295 52521164.069707
4143	894427 5207 11449 17887 86 124.5 155 235.48266601562 483.14999389648 67107.486053467 29940462.550597
vector 4227  IntersectionExampleScenario.node[47].veinsmobility  posx  ETV
vector 4228  IntersectionExampleScenario.node[47].veinsmobility  posy  ETV
vector 4229  IntersectionExampleScenario.node[47].veinsmobility  speed  ETV
vector 4230  IntersectionExampleScenario.node[47].veinsmobility  acceleration  ETV
vector 4231  IntersectionExampleScenario.node[47].veinsmobility  co2emission  ETV
vector 4234  IntersectionExampleScenario.node[48].veinsmobility  posx  ETV
vector 4235  IntersectionExampleScenario.node[48].veinsmobility  posy  ETV
vector 4236  IntersectionExampleScenario.node[48].veinsmobility  speed  ETV
vector 4237  IntersectionExampleScenario.node[48].veinsmobility  acceleration  ETV
vector 4238  IntersectionExampleScenario.node[48].veinsmobility  co2emission  ETV
vector 4241  IntersectionExampleScenario.node[49].veinsmobility  posx  ETV
vector 4242  IntersectionExampleScenario.node[49].veinsmobility  posy  ETV
vector 4243  IntersectionExampleScenario.node[49].veinsmobility  speed  ETV
vector 4244  IntersectionExampleScenario.node[49].veinsmobility  acceleration  ETV
vector 4245  IntersectionExampleScenario.node[49].veinsmobility  co2emission  ETV
vector 4248  IntersectionExampleScenario.node[50].veinsmobility  posx  ETV
vector 4249  IntersectionExampleScenario.node[50].veinsmobility  posy  ETV
vector 4250  IntersectionExampleScenario.node[50].veinsmobility  speed  ETV
vector 4251  IntersectionExampleScenario.node[50].veinsmobility  acceleration  ETV
vector 4252  IntersectionExampleScenario.node[50].veinsmobility  co2emission  ETV
3951	901218 13275 412 20769 12.75 141.5 516 0.973 11.450879080643 876.18528987573 3155.6907109082
3950	914493 11544 412 20769 12.75 141.5 516 -8.1666488647461 4 37.15309715271 491.49328391996
3949	926037 11880 393 20769 12.5 141.5 517 0 15.375 2278.0067117214 31914.383629831
3948	937917 16973 374 20769 12.25 141.5 518 486.85000610352 486.85000610352 252188.30316162 122777876.93347
3947	954890 16959 374 20769 12.25 141.5 518 236.75714111328 802.70781707764 263236.49871063 138465945.11639
3986	971849 13464 815 21003 17.5 143 503 0.973 11.200708441096 847.75058929758 2947.2796875792
3985	985313 12621 815 21003 17.5 143 503 -3.8444442749023 2.5 36.134572982788 364.77918338109
3984	997934 12624 786 21003 17.25 143 504 0 15.02499961853 2235.0484489873 29850.306848851
3983	1010558 16572 759 21003 17 143 505 238.56976318359 486.85000610352 237270.96081543 112756064.72583
3982	1027130 16572 759 21003 17 143 505 483.13436889648 794.87462615967 266816.91429138 143468669.51802
vector 4255  IntersectionExampleScenario.node[51].veinsmobility  posx  ETV
vector 4256  IntersectionExampleScenario.node[51].veinsmobility  posy  ETV
vector 4257  IntersectionExampleScenario.node[51].veinsmobility  speed  ETV
vector 4258  IntersectionExampleScenario.node[51].veinsmobility  acceleration  ETV
vector 4259  IntersectionExampleScenario.node[51].veinsmobility  co2emission  ETV
4007	1044098 12768 2329 21527 30.25 146.5 466 0.973 10.756497587458 787.86562289839 2665.795609737
4006	1056866 12358 2329 21527 30.25 146.5 466 -3.9543676376343 2.5 33.079023361206 319.47327827565
4005	1069224 12469 2296 21527 30 146.5 467 0 14.39999961853 2182.4102825411 26645.931740963
4004	1081693 15433 2263 21527 29.75 146.5 468 486.85000610352 732.81799316406 236736.56678772 121040700.97874
4003	1097126 15410 2263 21527 29.75 146.5 468 486.85000610352 785.82187652588 250291.78970337 136075381.43286
vector 4262  IntersectionExampleScenario.node[52].veinsmobility  posx  ETV
vector 4263  IntersectionExampleScenario.node[52].veinsmobility  posy  ETV
vector 4264  IntersectionExampleScenario.node[52].veinsmobility  speed  ETV
vector 4265  IntersectionExampleScenario.node[52].veinsmobility  acceleration  ETV
vector 4266  IntersectionExampleScenario.node[52].veinsmobility  co2emission  ETV
4042	1112932 12896 2977 21831 34.75 148.5 456 0.973 11.00486315618 800.37063876065 2820.8695820647
4041	1125828 12756 2977 21831 34.75 148.5 456 -4.5 2.5 35.455564498901 366.92861964237
4040	1138584 12703 2940 21831 34.5 148.5 457 0 14.75 2207.3925984567 27622.143692019
4039	1151287 15131 2902 21831 34.25 148.5 458 236.58911132812 486.85000610352 214156.49197388 101440104.27765
4038	1166418 15113 2902 21831 34.25 148.5 458 483.14999389648 785.82187652588 246875.16066742 135194888.06448
4049	1181531 13269 3166 22143 36 150.5 459 0.973 11.200708441096 863.41111192332 3222.3492378195
4048	1194800 13316 3166 22143 36 150.5 459 -4.5 2.5000019073486 38.511121749878 493.6572133399
4047	1208116 13145 3127 22143 35.75 150.5 460 0 15.33109664917 2266.3581064837 28963.927270868
4046	1221261 15234 3088 22143 35.5 150.5 461 486.85000610352 731.93011474609 232572.86943054 118508414.38893
4045	1236495 15220 3088 22143 35.5 150.5 461 486.85000610352 807.09531402588 252034.44577789 140206958.67871
4084	1251715 10902 6358 22221 57 151 377 0.973 11.990504229548 763.36644343169 3384.3354285867
4083	1262617 11170 6358 22221 57 151 377 -4.7739677429199 2.5 39.869146347046 380.8687475424
4082	1273787 11070 6317 22221 56.75 151 378 0 16.125 2212.0504048821 29433.180723974
4081	1284857 12627 6276 22221 56.5 151 379 486.85000610352 486.85000610352 184516.15231323 89831689.879895
4080	1297484 12525 6276 22221 56.5 151 379 238.66284179688 785.82187652588 200645.97657013 110291701.66488
vector 4269  IntersectionExampleScenario.node[53].veinsmobility  posx  ETV
vector 4270  IntersectionExampleScenario.node[53].veinsmobility  posy  ETV
vector 4271  IntersectionExampleScenario.node[53].veinsmobility  speed  ETV
vector 4272  IntersectionExampleScenario.node[53].veinsmobility  acceleration  ETV
vector 4273  IntersectionExampleScenario.node[53].veinsmobility  co2emission  ETV
vector 4276  IntersectionExampleScenario.node[54].veinsmobility  posx  ETV
vector 4277  IntersectionExampleScenario.node[54].veinsmobility  posy  ETV
4098	1310557 10794 6879 23043 60 156.25 386 0.973 10.756497587458 724.41761169737 2819.4146444844
4097	1321351 10385 6879 23043 60 156.25 386 -4.5 2.5000019073486 32.739515304565 437.4559402584
4096	1331736 10571 6833 23043 59.75 156.25 387 0 14.39999961853 2257.0134540126 27812.161583154
4095	1342307 12952 6788 23043 59.5 156.25 388 236.52996826172 486.85000610352 179663.19732666 84516962.590189
4094	1355259 12930 6788 23043 59.5 156.25 388 482.9482421875 798.59687805176 215756.59321594 122189677.63912
vector 4283  IntersectionExampleScenario.node[55].veinsmobility  posx  ETV
vector 4284  IntersectionExampleScenario.node[55].veinsmobility  posy  ETV
vector 4278  IntersectionExampleScenario.node[54].veinsmobility  speed  ETV
vector 4279  IntersectionExampleScenario.node[54].veinsmobility  acceleration  ETV
vector 4280  IntersectionExampleScenario.node[54].veinsmobility  co2emission  ETV
vector 4285  IntersectionExampleScenario.node[55].veinsmobility  speed  ETV
vector 4286  IntersectionExampleScenario.node[55].veinsmobility  acceleration  ETV
vector 4287  IntersectionExampleScenario.node[55].veinsmobility  co2emission  ETV
4105	1368829 10480 7333 23212 62.5 157.25 380 0.973 11.810082123732 792.78919865306 3445.7696591523
4104	1379309 9648 7333 23212 62.5 157.25 380 -4.5 2.5 39.869146347046 506.27305441041
4103	1388957 9895 7286 23212 62.25 157.25 381 0 15.875 2279.9446332157 30507.675264887
4102	1398852 12765 7239 23212 62 157.25 382 486.85000610352 735.1929473877 194109.30819702 99802196.938897
4101	1411617 12757 7239 23212 62 157.25 382 486.85000610352 807.80313873291 214352.78525543 122500791.00742
vector 4290  IntersectionExampleScenario.node[56].veinsmobility  posx  ETV
vector 4291  IntersectionExampleScenario.node[56].veinsmobility  posy  ETV
vector 4292  IntersectionExampleScenario.node[56].veinsmobility  speed  ETV
vector 4293  IntersectionExampleScenario.node[56].veinsmobility  acceleration  ETV
vector 4294  IntersectionExampleScenario.node[56].veinsmobility  co2emission  ETV
4161	1424770 7749 13224 23703 96.75 160.25 255 0.973 11.36141391502 620.70210323896 2979.5126225716
4160	1432519 8412 13224 23703 96.75 160.25 255 -3.2193298339844 2.5 37.32285118103 353.76619621227
4159	1440931 8441 13185 23703 96.5 160.25 256 0.00063327478710562 15.25 2190.7263256198 27238.416321177
4158	1449372 8718 13145 23703 96.25 160.25 257 486.85000610352 734.93783569336 133562.61013794 70526760.515444
4157	1458090 8706 13145 23703 96.25 160.25 257 486.68435668945 785.82187652588 145538.0691452 84221722.792526
4189	1466796 6542 14736 23867 106.75 161.25 219 0.973 12.553400930962 635.20635253231 3765.7001660932
4188	1473338 7027 14736 23867 106.75 161.25 219 -4.5 2.5000019073486 43.22511100769 420.25127078293
4187	1480365 7160 14697 23867 106.5 161.25 220 0 16.89999961853 2188.3236943372 28274.785764652
4186	1487525 7509 14658 23867 106.25 161.25 221 486.85000610352 734.13751220703 115515.1048584 61400079.867596
4185	1495034 7491 14658 23867 106.25 161.25 221 486.85000610352 785.82187652588 126002.31034088 73578704.157706
vector 4297  IntersectionExampleScenario.node[57].veinsmobility  posx  ETV
vector 4298  IntersectionExampleScenario.node[57].veinsmobility  posy  ETV
vector 4299  IntersectionExampleScenario.node[57].veinsmobility  speed  ETV
vector 4300  IntersectionExampleScenario.node[57].veinsmobility  acceleration  ETV
vector 4301  IntersectionExampleScenario.node[57].veinsmobility  co2emission  ETV
vector 4304  IntersectionExampleScenario.node[58].veinsmobility  posx  ETV
vector 4305  IntersectionExampleScenario.node[58].veinsmobility  posy  ETV
vector 4306  IntersectionExampleScenario.node[58].veinsmobility  speed  ETV
vector 4307  IntersectionExampleScenario.node[58].veinsmobility  acceleration  ETV
vector 4308  IntersectionExampleScenario.node[58].veinsmobility  co2emission  ETV
vector 4311  IntersectionExampleScenario.node[59].veinsmobility  posx  ETV
vector 4312  IntersectionExampleScenario.node[59].veinsmobility  posy  ETV
vector 4313  IntersectionExampleScenario.node[59].veinsmobility  speed  ETV
vector 4314  IntersectionExampleScenario.node[59].veinsmobility  acceleration  ETV
vector 4315  IntersectionExampleScenario.node[59].veinsmobility  co2emission  ETV
vector 4318  IntersectionExampleScenario.node[60].veinsmobility  posx  ETV
vector 4319  IntersectionExampleScenario.node[60].veinsmobility  posy  ETV
vector 4320  IntersectionExampleScenario.node[60].veinsmobility  speed  ETV
vector 4321  IntersectionExampleScenario.node[60].veinsmobility  acceleration  ETV
vector 4322  IntersectionExampleScenario.node[60].veinsmobility  co2emission  ETV
vector 4325  IntersectionExampleScenario.node[61].veinsmobility  posx  ETV
vector 4326  IntersectionExampleScenario.node[61].veinsmobility  posy  ETV
vector 4327  IntersectionExampleScenario.node[61].veinsmobility  speed  ETV
vector 4328  IntersectionExampleScenario.node[61].veinsmobility  acceleration  ETV
vector 4329  IntersectionExampleScenario.node[61].veinsmobility  co2emission  ETV
4077	1504505 12673 5465 25462 51.5 171.25 480 0.973 11.648172402475 843.97395261113 3202.1254212502
4076	1517178 11061 5465 25462 51.5 171.25 480 -7.775092124939 4 38.511121749878 476.52722360891
4075	1528239 11383 5424 25462 51.25 171.25 481 0 15.64999961853 2201.8213527203 31157.431613078
4074	1539622 16063 5383 25462 51 171.25 482 184.17810058594 486.85000610352 215585.69244385 98772311.685689
4073	1555685 16080 5383 25462 51 171.25 482 236.75640869141 486.85000610352 226272.74771118 107474515.7627
vector 4332  IntersectionExampleScenario.node[62].veinsmobility  posx  ETV
vector 4333  IntersectionExampleScenario.node[62].veinsmobility  posy  ETV
vector 4334  IntersectionExampleScenario.node[62].veinsmobility  speed  ETV
vector 4335  IntersectionExampleScenario.node[62].veinsmobility  acceleration  ETV
vector 4336  IntersectionExampleScenario.node[62].veinsmobility  co2emission  ETV
4126	1572161 11227 9618 25707 75 172.75 392 0.973 12.099024792222 774.31844826816 3280.9905487365
4125	1583388 11343 9618 25707 75 172.75 392 -3.7638397216797 2.5000009536743 41.396924972534 345.51213967803
4124	1594731 11232 9575 25707 74.75 172.75 393 0 16.27499961853 2204.8573769648 30214.157635011
4123	1605963 13242 9532 25707 74.5 172.75 394 184.17810058594 487.00259399414 172158.43048096 77372868.127866
4122	1619205 13274 9532 25707 74.5 172.75 394 236.91662597656 486.85000610352 183786.61730957 86900927.126553
4140	1632479 11471 10333 26219 79.25 176 388 0.973 11.200708441096 730.99691609387 2830.5061142191
4139	1643950 11642 10333 26219 79.25 176 388 -3.8151552677155 2.5 35.795072555542 330.56497885914
4138	1655592 11719 10290 26219 79 176 389 0 15.02499961853 2239.5799942287 28227.919196758
4137	1667311 13135 10247 26219 78.75 176 390 179.81719970703 735.19841003418 176153.38052368 84019667.433224
4136	1680446 13174 10247 26219 78.75 176 390 486.85000610352 486.85000610352 189871.50238037 92438942.092768
4154	1693620 10819 11747 26492 87.75 177.75 361 0.973 11.200708441096 695.46005668168 2650.9796020532
4153	1704439 11297 11747 26492 87.75 177.75 361 -3.9024090766907 2.5 36.304327011108 301.5782291722
4152	1715736 11346 11704 26492 87.5 177.75 362 0 15.02499961853 2216.4781162217 27754.527121577
4151	1727082 12237 11661 26492 87.25 177.75 363 184.17810058594 733.45474243164 162589.59094238 77123593.120241
4150	1739319 12293 11661 26492 87.25 177.75 363 486.85000610352 486.85000610352 176726.55221558 86039323.024807
4168	1751612 9635 13906 26726 101.25 179.25 313 0.973 12.099024792222 700.34495201305 3372.0677950299
4167	1761247 10131 13906 26726 101.25 179.25 313 -3.9850718975067 2.5 41.227170944214 357.32610835647
4166	1771378 10123 13867 26726 101 179.25 314 0 16.27499961853 2211.1163608069 29528.97173248
4165	1781501 10668 13829 26726 100.75 179.25 315 184.17810058594 486.85284423828 132221.61331177 57412897.304716
4164	1792169 10699 13829 26726 100.75 179.25 315 236.51544189453 486.85000610352 145283.92214966 68145096.447602
vector 4339  IntersectionExampleScenario.node[63].veinsmobility  posx  ETV
vector 4340  IntersectionExampleScenario.node[63].veinsmobility  posy  ETV
vector 4341  IntersectionExampleScenario.node[63].veinsmobility  speed  ETV
vector 4346  IntersectionExampleScenario.node[64].veinsmobility  posx  ETV
vector 4347  IntersectionExampleScenario.node[64].veinsmobility  posy  ETV
vector 4342  IntersectionExampleScenario.node[63].veinsmobility  acceleration  ETV
vector 4343  IntersectionExampleScenario.node[63].veinsmobility  co2emission  ETV
vector 4348  IntersectionExampleScenario.node[64].veinsmobility  speed  ETV
vector 4349  IntersectionExampleScenario.node[64].veinsmobility  acceleration  ETV
vector 4350  IntersectionExampleScenario.node[64].veinsmobility  co2emission  ETV
4175	1803660 10369 13945 27184 101.5 182 323 0.973 11.267119529157 693.22794594409 2836.0913736485
4174	1814029 10754 13945 27184 101.5 182 323 -4.3460597991943 2.5 35.964826583862 387.82705086601
4173	1824783 10746 13906 27184 101.25 182 324 0 15.118052482605 2316.2872473719 29424.114897046
4172	1835529 11016 13867 27184 101 182 325 159.76721191406 733.66984558105 141471.59715271 66535906.715675
4171	1846545 11048 13867 27184 101 182 325 486.85000610352 486.85003662109 158226.25204468 77032451.803403
4182	1857593 9298 14658 27442 106.25 183.5 310 0.973 11.90022389248 712.60441583323 3351.9229710903
4181	1866891 9632 14658 27442 106.25 183.5 310 -4.0864372253418 2.5 40.038900375366 509.56605657512
4180	1876523 9376 14621 27442 106 183.5 311 0 16 2269.668112576 29900.726415287
4179	1885899 10565 14584 27442 105.75 183.5 312 168.86840820312 487.05764770508 127552.62969971 54260057.788197
4178	1896464 10593 14584 27442 105.75 183.5 312 236.54644775391 486.85006713867 143689.42318726 67327397.630266
vector 4353  IntersectionExampleScenario.node[65].veinsmobility  posx  ETV
vector 4354  IntersectionExampleScenario.node[65].veinsmobility  posy  ETV
vector 4355  IntersectionExampleScenario.node[65].veinsmobility  speed  ETV
vector 4356  IntersectionExampleScenario.node[65].veinsmobility  acceleration  ETV
vector 4357  IntersectionExampleScenario.node[65].veinsmobility  co2emission  ETV
vector 4360  IntersectionExampleScenario.node[66].veinsmobility  posx  ETV
vector 4361  IntersectionExampleScenario.node[66].veinsmobility  posy  ETV
vector 4362  IntersectionExampleScenario.node[66].veinsmobility  speed  ETV
vector 4363  IntersectionExampleScenario.node[66].veinsmobility  acceleration  ETV
vector 4364  IntersectionExampleScenario.node[66].veinsmobility  co2emission  ETV
4210	1907849 8674 15492 27757 111.5 185.25 296 0.97223939240464 11.648172402475 668.14676432127 3167.193494561
4209	1916523 8632 15492 27757 111.5 185.25 296 -4.8469200134277 3.1621134877205 38.680875778198 416.3403379425
4208	1925155 8878 15449 27757 111.25 185.25 297 0 15.64999961853 2153.5038832426 27842.549008848
4207	1934033 10099 15406 27757 111 185.25 298 201.54504394531 735.39231872559 131006.33129883 61530119.492357
4206	1944132 10131 15406 27757 111 185.25 298 486.84997558594 486.85000610352 145081.30178833 70632832.646297
vector 4367  IntersectionExampleScenario.node[67].veinsmobility  posx  ETV
vector 4368  IntersectionExampleScenario.node[67].veinsmobility  posy  ETV
vector 4369  IntersectionExampleScenario.node[67].veinsmobility  speed  ETV
vector 4370  IntersectionExampleScenario.node[67].veinsmobility  acceleration  ETV
vector 4371  IntersectionExampleScenario.node[67].veinsmobility  co2emission  ETV
4203	1954659 9950 15283 28256 110.25 188 312 0.973 11.450879080643 741.75901702859 3470.4954671259
4202	1964609 10341 15283 28256 110.25 188 312 -4.5 2.5000019073486 38.341367721558 533.70687558814
4201	1974950 10363 15242 28256 110 188 313 0 15.375 2257.9491619719 28253.567189306
4200	1985313 10643 15201 28256 109.75 188 314 170.3232421875 486.85000610352 125449.6512146 52381301.798008
4199	1995956 10667 15201 28256 109.75 188 314 237.45135498047 486.85000610352 144500.26052856 67665106.972431
vector 4374  IntersectionExampleScenario.node[68].veinsmobility  posx  ETV
vector 4375  IntersectionExampleScenario.node[68].veinsmobility  posy  ETV
vector 4376  IntersectionExampleScenario.node[68].veinsmobility  speed  ETV
4217	2006852 9425 15926 28392 114 188.75 300 0.973 11.648172402475 728.72339648912 3465.2161521429
4216	2016277 9518 15926 28392 114 188.75 300 -4.5 2.5 41.057416915894 477.35878170966
4215	2025795 9658 15881 28392 113.75 188.75 301 0 15.930862426758 2290.9192169858 30808.508931919
4214	2035453 10248 15836 28392 113.5 188.75 302 165.86541748047 733.5375213623 128147.20150757 58897685.657328
4213	2045701 10269 15836 28392 113.5 188.75 302 486.85000610352 486.85000610352 147028.70184326 71580924.389784
vector 4377  IntersectionExampleScenario.node[68].veinsmobility  acceleration  ETV
vector 4378  IntersectionExampleScenario.node[68].veinsmobility  co2emission  ETV
vector 4381  IntersectionExampleScenario.node[69].veinsmobility  posx  ETV
vector 4382  IntersectionExampleScenario.node[69].veinsmobility  posy  ETV
vector 4383  IntersectionExampleScenario.node[69].veinsmobility  speed  ETV
vector 4384  IntersectionExampleScenario.node[69].veinsmobility  acceleration  ETV
vector 4385  IntersectionExampleScenario.node[69].veinsmobility  co2emission  ETV
vector 4388  IntersectionExampleScenario.node[70].veinsmobility  posx  ETV
vector 4389  IntersectionExampleScenario.node[70].veinsmobility  posy  ETV
vector 4390  IntersectionExampleScenario.node[70].veinsmobility  speed  ETV
vector 4391  IntersectionExampleScenario.node[70].veinsmobility  acceleration  ETV
vector 4392  IntersectionExampleScenario.node[70].veinsmobility  co2emission  ETV
4133	2056929 13435 9912 30706 76.75 201.75 501 0.973 11.200708441096 846.25652694315 2978.6910000912
4132	2070364 11731 9912 30706 76.75 201.75 501 -8.8170804977417 4 36.134572982788 473.06262659359
4131	2082095 12098 9869 30706 76.5 201.75 502 0 15.02499961853 2208.468018055 30345.283862668
4130	2094193 17004 9826 30706 76.25 201.75 503 483.14999389648 483.14999389648 243024.44692993 117417260.05089
4129	2111197 16971 9826 30706 76.25 201.75 503 184.17810058594 732.88059997559 233593.99610901 112779941.19639
4196	2128168 10828 15162 30841 109.5 202.5 373 0.973 11.810082123732 736.18322152122 3165.1501905205
4195	2138996 10923 15162 30841 109.5 202.5 373 -3.7085783481598 2.5 39.020376205444 349.27308314955
4194	2149919 10739 15123 30841 109.25 202.5 374 0 15.875 2179.96227853 28962.69441894
4193	2160658 12745 15084 30841 109 202.5 375 238.10369873047 483.14999389648 173167.83468628 81099633.058063
4192	2173403 12706 15084 30841 109 202.5 375 184.17810058594 483.14999389648 162894.99734497 72897405.932765
4224	2186109 10600 16335 31239 116.25 204.75 355 0.973 11.200708441096 708.72178779051 2858.982879696
4223	2196709 10655 16335 31239 116.25 204.75 355 -3.8877513408661 2.5 37.32285118103 328.43882911505
4222	2207364 10931 16288 31239 116 204.75 356 0 15.02499961853 2220.0297360206 28464.394928465
4221	2218295 12139 16241 31239 115.75 204.75 357 483.14999389648 483.14999389648 172484.54782104 83335908.226976
4220	2230434 12090 16241 31239 115.75 204.75 357 184.17810058594 734.47146606445 161293.45135498 77140200.585263
4259	2242524 7834 21342 31755 145.25 207.75 251 0.973 11.450879080643 602.78924006347 2823.6530748809
4258	2250358 8179 21342 31755 145.25 207.75 251 -3.9704785346985 2.5 36.98334312439 330.28494878282
4257	2258537 8248 21304 31755 145 207.75 252 0 15.375 2214.981232997 28581.249354306
4256	2266785 8593 21265 31755 144.75 207.75 253 483.14999389648 734.79095458984 130931.14537048 68919057.70949
4255	2275378 8562 21265 31755 144.75 207.75 253 184.17810058594 486.87951660156 105062.70306396 45574411.888376
4329	2283940 5148 25462 32262 171.25 210.75 159 0.973 11.84550767942 554.4715562361 3528.0294036506
4328	2289088 4901 25462 32262 171.25 210.75 159 -3.7610893249512 2.5 38.850629806519 366.91007707542
4327	2293989 5107 25421 32262 171 210.75 160 5.6500000953674 15.924147605896 2179.3665761948 31047.733179972
4326	2299096 5466 25380 32262 170.75 210.75 161 237.90185546875 483.14999389648 69734.343322754 31113488.347744
4325	2304562 5452 25380 32262 170.75 210.75 161 184.17810058594 483.17691040039 63942.149719238 27129328.005447
vector 4395  IntersectionExampleScenario.node[71].veinsmobility  posx  ETV
vector 4396  IntersectionExampleScenario.node[71].veinsmobility  posy  ETV
vector 4397  IntersectionExampleScenario.node[71].veinsmobility  speed  ETV
vector 4398  IntersectionExampleScenario.node[71].veinsmobility  acceleration  ETV
vector 4399  IntersectionExampleScenario.node[71].veinsmobility  co2emission  ETV
vector 4402  IntersectionExampleScenario.node[72].veinsmobility  posx  ETV
vector 4403  IntersectionExampleScenario.node[72].veinsmobility  posy  ETV
vector 4404  IntersectionExampleScenario.node[72].veinsmobility  speed  ETV
vector 4405  IntersectionExampleScenario.node[72].veinsmobility  acceleration  ETV
vector 4406  IntersectionExampleScenario.node[72].veinsmobility  co2emission  ETV
vector 4409  IntersectionExampleScenario.node[73].veinsmobility  posx  ETV
vector 4410  IntersectionExampleScenario.node[73].veinsmobility  posy  ETV
4350	2310958 5169 27012 33834 181 220 157 0.973 11.810082123732 512.93932836398 2877.3139614037
4349	2316127 4767 27012 33834 181 220 157 -3.3704528808594 2.5 39.699392318726 285.64288050481
4348	2320894 5047 26969 33834 180.75 220 158 5.6500000953674 15.875 2176.3486738205 31459.086025827
4347	2325941 5399 26926 33834 180.5 220 159 238.85522460938 483.14999389648 68924.2862854 30765730.409292
4346	2331340 5372 26926 33834 180.5 220 159 184.17810058594 483.2028503418 63164.82800293 26818033.877916
vector 4411  IntersectionExampleScenario.node[73].veinsmobility  speed  ETV
vector 4412  IntersectionExampleScenario.node[73].veinsmobility  acceleration  ETV
vector 4413  IntersectionExampleScenario.node[73].veinsmobility  co2emission  ETV
vector 4416  IntersectionExampleScenario.node[74].veinsmobility  posx  ETV
vector 4417  IntersectionExampleScenario.node[74].veinsmobility  posy  ETV
vector 4418  IntersectionExampleScenario.node[74].veinsmobility  speed  ETV
vector 4419  IntersectionExampleScenario.node[74].veinsmobility  acceleration  ETV
vector 4420  IntersectionExampleScenario.node[74].veinsmobility  co2emission  ETV
vector 4423  IntersectionExampleScenario.node[75].veinsmobility  posx  ETV
vector 4424  IntersectionExampleScenario.node[75].veinsmobility  posy  ETV
vector 4425  IntersectionExampleScenario.node[75].veinsmobility  speed  ETV
vector 4426  IntersectionExampleScenario.node[75].veinsmobility  acceleration  ETV
vector 4427  IntersectionExampleScenario.node[75].veinsmobility  co2emission  ETV
4371	2337748 5338 27941 34877 186.25 226.5 162 0.973 11.36141391502 498.79989169167 2661.3312870375
4370	2343086 5109 27941 34877 186.25 226.5 162 -3.3224945068359 2.5 37.15309715271 271.30603280891
4369	2348195 5219 27895 34877 186 226.5 163 5.6500000953674 15.305817604065 2186.3805732727 30580.40897343
4368	2353414 5565 27848 34877 185.75 226.5 164 236.04730224609 483.14999389648 70841.73034668 31550226.978431
4367	2358979 5550 27848 34877 185.75 226.5 164 184.17810058594 483.14999389648 65230.539642334 27708592.397469
vector 4430  IntersectionExampleScenario.node[76].veinsmobility  posx  ETV
vector 4431  IntersectionExampleScenario.node[76].veinsmobility  posy  ETV
vector 4432  IntersectionExampleScenario.node[76].veinsmobility  speed  ETV
vector 4433  IntersectionExampleScenario.node[76].veinsmobility  acceleration  ETV
vector 4434  IntersectionExampleScenario.node[76].veinsmobility  co2emission  ETV
vector 4437  IntersectionExampleScenario.node[77].veinsmobility  posx  ETV
vector 4438  IntersectionExampleScenario.node[77].veinsmobility  posy  ETV
vector 4444  IntersectionExampleScenario.node[78].veinsmobility  posx  ETV
vector 4445  IntersectionExampleScenario.node[78].veinsmobility  posy  ETV
vector 4439  IntersectionExampleScenario.node[77].veinsmobility  speed  ETV
vector 4446  IntersectionExampleScenario.node[78].veinsmobility  speed  ETV
4231	2365383 11226 18807 35616 129.75 231.25 407 0.973 11.648172402475 772.25593806601 3148.7250823126
4230	2376609 9914 18807 35616 129.75 231.25 407 -7.4922199249268 4 38.171613693237 484.73603371837
4229	2386523 10248 18764 35616 129.5 231.25 408 0 15.64999961853 2209.8923177719 31296.209765439
4228	2396771 13884 18721 35616 129.25 231.25 409 237.14044189453 785.82187652588 207484.98000336 109446909.29503
4227	2410655 13907 18721 35616 129.25 231.25 409 483.14999389648 483.14999389648 197608.34750366 95474471.890289
vector 4440  IntersectionExampleScenario.node[77].veinsmobility  acceleration  ETV
vector 4441  IntersectionExampleScenario.node[77].veinsmobility  co2emission  ETV
vector 4447  IntersectionExampleScenario.node[78].veinsmobility  acceleration  ETV
vector 4448  IntersectionExampleScenario.node[78].veinsmobility  co2emission  ETV
vector 4451  IntersectionExampleScenario.node[79].veinsmobility  posx  ETV
vector 4452  IntersectionExampleScenario.node[79].veinsmobility  posy  ETV
4238	2425048 11420 18940 35821 130.5 232.5 409 0.973 11.810082123732 784.32927276647 3246.8200130856
4237	2436468 10174 18940 35821 130.5 232.5 409 -4.5 2.5 38.850629806519 481.45656528814
4236	2446642 10449 18895 35821 130.25 232.5 410 0 15.875 2270.6272789165 31777.766127229
4235	2457091 13956 18850 35821 130 232.5 411 486.85000610352 808.82032012939 220356.07568359 120817905.97447
4234	2471047 13968 18850 35821 130 232.5 411 238.59466552734 483.14999389648 190572.87530518 89510159.529728
vector 4453  IntersectionExampleScenario.node[79].veinsmobility  speed  ETV
vector 4454  IntersectionExampleScenario.node[79].veinsmobility  acceleration  ETV
vector 4455  IntersectionExampleScenario.node[79].veinsmobility  co2emission  ETV
4273	2485259 9559 22926 36156 155.5 234.5 317 0.973 11.648172402475 688.01201640193 3067.135470133
4272	2494818 9684 22926 36156 155.5 234.5 317 -3.7027864456177 2.5 39.529638290405 343.79280263422
4271	2504502 9862 22886 36156 155.25 234.5 318 0 15.64999961853 2217.645903104 29902.754869474
4270	2514364 10819 22845 36156 155 234.5 319 236.67901611328 785.82187652588 165393.30234528 89865583.622863
4269	2525183 10845 22845 36156 155 234.5 319 483.14999389648 483.14999389648 154124.84805298 74465419.396093
4294	2536028 9585 23662 36525 160 236.75 308 0.973 11.990504229548 683.46140793937 3162.7072093415
4293	2545613 10186 23662 36525 160 236.75 308 -4.5 2.5000019073486 39.699392318726 390.55592005621
4292	2555799 10050 23621 36525 159.75 236.75 309 0 16.125 2219.6185634816 29719.228902393
4291	2565849 10503 23580 36525 159.5 236.75 310 235.97662353516 785.82187652588 162005.13497162 88783090.439568
4290	2576352 10541 23580 36525 159.5 236.75 310 483.14999389648 483.14999389648 149776.49810791 72364514.146674
4301	2586893 9718 24106 36976 162.75 239.5 308 0.973 11.90022389248 695.63704524906 3255.9515672805
4300	2596611 10176 24106 36976 162.75 239.5 308 -4.5 2.5 39.699392318726 393.42479982447
4299	2606787 10108 24065 36976 162.5 239.5 309 0 16 2262.3125357358 30269.347741094
4298	2616895 10491 24024 36976 162.25 239.5 310 482.95455932617 800.04531860352 171723.66326141 97308520.34948
4297	2627386 10537 24024 36976 162.25 239.5 310 483.14999389648 732.48715209961 157962.11877441 81633842.328398
vector 4458  IntersectionExampleScenario.node[80].veinsmobility  posx  ETV
vector 4459  IntersectionExampleScenario.node[80].veinsmobility  posy  ETV
vector 4460  IntersectionExampleScenario.node[80].veinsmobility  speed  ETV
vector 4461  IntersectionExampleScenario.node[80].veinsmobility  acceleration  ETV
vector 4462  IntersectionExampleScenario.node[80].veinsmobility  co2emission  ETV
vector 4465  IntersectionExampleScenario.node[81].veinsmobility  posx  ETV
vector 4466  IntersectionExampleScenario.node[81].veinsmobility  posy  ETV
4315	2638471 9646 24867 37575 167.5 243 303 0.973 11.648172402475 688.16598340186 3205.1000688619
4314	2648117 9771 24867 37575 167.5 243 303 -4.5 2.5 38.171613693237 434.55640634496
4313	2657888 9971 24826 37575 167.25 243 304 0 15.64999961853 2217.1949113682 28653.272393195
4312	2667859 10347 24785 37575 167 243 305 486.85000610352 793.42227935791 169760.55143738 96504650.79152
4311	2678206 10363 24785 37575 167 243 305 236.61938476562 483.14999389648 139131.14431763 64592630.998227
vector 4467  IntersectionExampleScenario.node[81].veinsmobility  speed  ETV
vector 4468  IntersectionExampleScenario.node[81].veinsmobility  acceleration  ETV
vector 4469  IntersectionExampleScenario.node[81].veinsmobility  co2emission  ETV
4322	2688813 9176 25145 37845 169.25 244.5 302 0.973 11.54047740176 683.13033858815 3072.7270590642
4321	2697989 9176 25145 37845 169.25 244.5 302 -4.5 2.5 36.98334312439 470.16309451422
4320	2707165 9140 25104 37845 169 244.5 303 0 15.5 2305.7468862347 30565.914171724
4319	2716305 10304 25063 37845 168.75 244.5 304 237.64538574219 808.85802459717 163039.35959625 92177361.453089
4318	2726609 10336 25063 37845 168.75 244.5 304 483.14999389648 483.14999389648 146877.59814453 70963910.64706
4378	2736945 7072 28437 38155 189 246.25 230 0.97223939240464 11.648172402475 595.94409761074 2859.2305237529
4377	2744017 6963 28437 38155 189 246.25 230 -3.6880307197571 2.5 38.680875778198 341.09215544551
4376	2750980 7260 28392 38155 188.75 246.25 231 0 15.64999961853 2219.5306985378 29053.351317563
4375	2758240 7862 28346 38155 188.5 246.25 232 235.70758056641 785.82187652588 123207.69503021 69648198.153813
4374	2766102 7888 28346 38155 188.5 246.25 232 483.14999389648 483.14999389648 112090.79858398 54156668.651704
4385	2773990 7354 28756 38856 190.75 250.5 240 0.973 11.200708441096 623.52598699028 3081.4972788856
4384	2781344 7238 28756 38856 190.75 250.5 240 -4.5 2.5 35.455564498901 461.47175724939
4383	2788582 7561 28709 38856 190.5 250.5 241 0 15.02499961853 2256.1947816163 28364.174568326
4382	2796143 8215 28662 38856 190.25 250.5 242 486.70803833008 805.05782318115 138465.86254883 81363099.342406
4381	2804358 8214 28662 38856 190.25 250.5 242 237.93109130859 483.14999389648 108418.35769653 49660202.281769
vector 4472  IntersectionExampleScenario.node[82].veinsmobility  posx  ETV
vector 4473  IntersectionExampleScenario.node[82].veinsmobility  posy  ETV
vector 4474  IntersectionExampleScenario.node[82].veinsmobility  speed  ETV
vector 4475  IntersectionExampleScenario.node[82].veinsmobility  acceleration  ETV
vector 4476  IntersectionExampleScenario.node[82].veinsmobility  co2emission  ETV
vector 4479  IntersectionExampleScenario.node[83].veinsmobility  posx  ETV
vector 4480  IntersectionExampleScenario.node[83].veinsmobility  posy  ETV
vector 4481  IntersectionExampleScenario.node[83].veinsmobility  speed  ETV
vector 4482  IntersectionExampleScenario.node[83].veinsmobility  acceleration  ETV
vector 4483  IntersectionExampleScenario.node[83].veinsmobility  co2emission  ETV
vector 4486  IntersectionExampleScenario.node[84].veinsmobility  posx  ETV
vector 4487  IntersectionExampleScenario.node[84].veinsmobility  posy  ETV
vector 4488  IntersectionExampleScenario.node[84].veinsmobility  speed  ETV
vector 4489  IntersectionExampleScenario.node[84].veinsmobility  acceleration  ETV
vector 4490  IntersectionExampleScenario.node[84].veinsmobility  co2emission  ETV
vector 4493  IntersectionExampleScenario.node[85].veinsmobility  posx  ETV
vector 4494  IntersectionExampleScenario.node[85].veinsmobility  posy  ETV
vector 4495  IntersectionExampleScenario.node[85].veinsmobility  speed  ETV
vector 4496  IntersectionExampleScenario.node[85].veinsmobility  acceleration  ETV
vector 4497  IntersectionExampleScenario.node[85].veinsmobility  co2emission  ETV
vector 4500  IntersectionExampleScenario.node[86].veinsmobility  posx  ETV
vector 4501  IntersectionExampleScenario.node[86].veinsmobility  posy  ETV
vector 4502  IntersectionExampleScenario.node[86].veinsmobility  speed  ETV
4245	2814385 13406 19957 40535 136.5 261.5 501 0.973 12.26218747632 886.88677277849 3626.5613526412
4244	2827791 11991 19957 40535 136.5 261.5 501 -8.5642833709717 4 41.396924972534 521.34632358018
4243	2839782 11957 19916 40535 136.25 261.5 502 0 16.5 2171.0205252171 31790.994205079
4242	2851739 17027 19875 40535 136 261.5 503 486.85000610352 731.48248291016 252596.52360535 127982650.82114
4241	2868766 17091 19875 40535 136 261.5 503 486.63604736328 785.82187652588 262358.57781219 139140992.32389
vector 4503  IntersectionExampleScenario.node[86].veinsmobility  acceleration  ETV
vector 4504  IntersectionExampleScenario.node[86].veinsmobility  co2emission  ETV
vector 4507  IntersectionExampleScenario.node[87].veinsmobility  posx  ETV
vector 4508  IntersectionExampleScenario.node[87].veinsmobility  posy  ETV
vector 4514  IntersectionExampleScenario.node[88].veinsmobility  posx  ETV
vector 4515  IntersectionExampleScenario.node[88].veinsmobility  posy  ETV
vector 4509  IntersectionExampleScenario.node[87].veinsmobility  speed  ETV
vector 4516  IntersectionExampleScenario.node[88].veinsmobility  speed  ETV
vector 4510  IntersectionExampleScenario.node[87].veinsmobility  acceleration  ETV
vector 4511  IntersectionExampleScenario.node[87].veinsmobility  co2emission  ETV
vector 4517  IntersectionExampleScenario.node[88].veinsmobility  acceleration  ETV
vector 4518  IntersectionExampleScenario.node[88].veinsmobility  co2emission  ETV
4252	2886816 13854 20446 40844 139.5 263.5 497 0.97223939240464 11.648172402475 863.12847890298 3214.8396159408
4251	2900670 12942 20446 40844 139.5 263.5 497 -4.1163673400879 2.5 38.680875778198 392.83029852701
4250	2913612 12981 20405 40844 139.25 263.5 498 0 15.64999961853 2255.473739814 31274.144387779
4249	2926593 16947 20364 40844 139 263.5 499 237.392578125 486.85000610352 234610.47735596 111549609.77131
4248	2943540 16934 20364 40844 139 263.5 499 483.13436889648 798.59687805176 263781.65530396 141971268.93493
vector 4521  IntersectionExampleScenario.node[89].veinsmobility  posx  ETV
vector 4522  IntersectionExampleScenario.node[89].veinsmobility  posy  ETV
vector 4528  IntersectionExampleScenario.node[90].veinsmobility  posx  ETV
vector 4529  IntersectionExampleScenario.node[90].veinsmobility  posy  ETV
vector 4523  IntersectionExampleScenario.node[89].veinsmobility  speed  ETV
vector 4524  IntersectionExampleScenario.node[89].veinsmobility  acceleration  ETV
vector 4525  IntersectionExampleScenario.node[89].veinsmobility  co2emission  ETV
vector 4530  IntersectionExampleScenario.node[90].veinsmobility  speed  ETV
vector 4531  IntersectionExampleScenario.node[90].veinsmobility  acceleration  ETV
vector 4532  IntersectionExampleScenario.node[90].veinsmobility  co2emission  ETV
4266	2961266 13554 21753 41469 148 267.25 478 0.973 10.756497587458 794.40913968756 2616.6032101134
4265	2974820 13317 21753 41469 148 267.25 478 -3.9524285793304 2.5 33.079023361206 294.3000841441
4264	2988137 13320 21714 41469 147.75 267.25 479 0 14.39999961853 2201.7457054211 27006.322240508
4263	3001457 16314 21675 41469 147.5 267.25 480 238.02960205078 486.85000610352 224611.40093994 106440667.71862
4262	3017771 16294 21675 41469 147.5 267.25 480 483.14999389648 785.82187652588 256209.8571167 139005803.10271
4280	3034065 12703 23127 41649 156.75 268.25 447 0.9406928094185 12.099024792222 830.9439017976 3452.1206672044
4279	3046768 12822 23127 41649 156.75 268.25 447 -3.826221704483 2.5 39.880567550659 367.3705010458
4278	3059590 12778 23084 41649 156.5 268.25 448 0 16.633932113647 2203.3060866063 28652.443596901
4277	3072368 15260 23043 41649 156.25 268.25 449 237.85211181641 486.85000610352 210109.98788452 99574969.667713
4276	3087628 15238 23043 41649 156.25 268.25 449 483.13787841797 785.82187652588 241623.18976593 132063486.5734
4287	3102866 13503 23170 41964 157 270 453 0.94629950479493 11.930918023473 860.66994336047 3535.4897648464
4286	3116369 13399 23170 41964 157 270 453 -4.5 2.5000038146973 40.208654403687 494.82259141872
4285	3129768 13363 23127 41964 156.75 270 454 0 16.042499542236 2277.1988738673 29878.163215513
4284	3143131 15465 23084 41964 156.5 270 455 486.85000610352 732.0472869873 229408.9719696 116814269.27935
4283	3158596 15427 23084 41964 156.5 270 455 486.85000610352 810.23281097412 249365.8396225 139148441.69982
4336	3174023 11859 25666 42414 172.5 272.5 401 0.973 11.450879080643 766.16888573406 3133.2215475626
4335	3185882 12124 25666 42414 172.5 272.5 401 -3.8601522445679 2.5 37.15309715271 358.79101040891
4334	3198006 12071 25625 42414 172.25 272.5 402 0 15.375 2205.6635428527 27970.995718726
4333	3210077 13695 25584 42414 172 272.5 403 237.70465087891 486.85000610352 187695.27716064 88651303.167874
4332	3223772 13587 25584 42414 172 272.5 403 483.14999389648 785.82187652588 221213.73777008 123390585.83486
4420	3237359 6422 34198 42729 222.25 274.25 209 0.973 11.648172402475 577.80734179979 2938.8609346969
4419	3243781 6891 34198 42729 222.25 274.25 209 -2.154598236084 2.5 38.851240158081 317.11578322645
4418	3250672 6866 34157 42729 222 274.25 210 1.2219772338867 15.64999961853 2207.2247788906 28578.506871445
4417	3257538 7171 34116 42729 221.75 274.25 211 237.24462890625 486.85000610352 94390.514465332 43281249.526925
4416	3264709 7156 34116 42729 221.75 274.25 211 483.11911010742 785.82187652588 119403.79192352 69380789.941609
4427	3271865 6286 34837 42954 226.25 275.5 198 0.973 11.648172402475 575.10533377666 3126.9251704506
4426	3278151 6179 34837 42954 226.25 275.5 198 -4.5 2.5 38.511121749878 395.23836595292
4425	3284330 6516 34796 42954 226 275.5 199 1.786025762558 15.64999961853 2234.6872055531 29898.612978465
4424	3290846 6800 34755 42954 225.75 275.5 200 486.85000610352 486.85000610352 97370.001220703 47404585.688598
4423	3297646 6783 34755 42954 225.75 275.5 200 238.41046142578 792.02188110352 106044.59796906 60489300.680293
4434	3304429 6135 35229 43477 228.75 278.5 200 0.973 11.450879080643 571.4219617207 3104.1522902817
4433	3310564 6423 35229 43477 228.75 278.5 200 -3.8633079528809 2.5 37.32285118103 336.64717730385
4432	3316987 6546 35190 43477 228.5 278.5 201 3.6467146873474 15.375 2282.9896457195 29002.76977871
4431	3323533 6866 35150 43477 228.25 278.5 202 236.599609375 486.85000610352 89784.40536499 40971989.981063
4430	3330399 6849 35150 43477 228.25 278.5 202 483.14999389648 804.51563262939 116464.35128021 69269547.848975
vector 4535  IntersectionExampleScenario.node[91].veinsmobility  posx  ETV
vector 4536  IntersectionExampleScenario.node[91].veinsmobility  posy  ETV
vector 4537  IntersectionExampleScenario.node[91].veinsmobility  speed  ETV
vector 4542  IntersectionExampleScenario.node[92].veinsmobility  posx  ETV
vector 4543  IntersectionExampleScenario.node[92].veinsmobility  posy  ETV
vector 4538  IntersectionExampleScenario.node[91].veinsmobility  acceleration  ETV
vector 4539  IntersectionExampleScenario.node[91].veinsmobility  co2emission  ETV
vector 4544  IntersectionExampleScenario.node[92].veinsmobility  speed  ETV
vector 4545  IntersectionExampleScenario.node[92].veinsmobility  acceleration  ETV
vector 4546  IntersectionExampleScenario.node[92].veinsmobility  co2emission  ETV
vector 4549  IntersectionExampleScenario.node[93].veinsmobility  posx  ETV
vector 4550  IntersectionExampleScenario.node[93].veinsmobility  posy  ETV
vector 4556  IntersectionExampleScenario.node[94].veinsmobility  posx  ETV
vector 4557  IntersectionExampleScenario.node[94].veinsmobility  posy  ETV
vector 4551  IntersectionExampleScenario.node[93].veinsmobility  speed  ETV
vector 4552  IntersectionExampleScenario.node[93].veinsmobility  acceleration  ETV
vector 4553  IntersectionExampleScenario.node[93].veinsmobility  co2emission  ETV
vector 4558  IntersectionExampleScenario.node[94].veinsmobility  speed  ETV
vector 4559  IntersectionExampleScenario.node[94].veinsmobility  acceleration  ETV
vector 4560  IntersectionExampleScenario.node[94].veinsmobility  co2emission  ETV
vector 4563  IntersectionExampleScenario.node[95].veinsmobility  posx  ETV
vector 4564  IntersectionExampleScenario.node[95].veinsmobility  posy  ETV
vector 4565  IntersectionExampleScenario.node[95].veinsmobility  speed  ETV
vector 4566  IntersectionExampleScenario.node[95].veinsmobility  acceleration  ETV
vector 4567  IntersectionExampleScenario.node[95].veinsmobility  co2emission  ETV
4308	3339228 13644 24468 45608 165 292 509 0.973 11.90022389248 882.42903481278 3391.0123729734
4307	3352872 11997 24468 45608 165 292 509 -8.1522989273071 4 39.529638290405 496.24731613443
4306	3364869 12241 24427 45608 164.75 292 510 0 16 2214.945445776 31924.030306961
4305	3377110 17342 24386 45608 164.5 292 511 184.17810058594 734.00184631348 237375.62748718 114428024.20221
4304	3394452 17373 24386 45608 164.5 292 511 486.85000610352 486.85000610352 248780.3531189 121118716.43437
vector 4570  IntersectionExampleScenario.node[96].veinsmobility  posx  ETV
vector 4571  IntersectionExampleScenario.node[96].veinsmobility  posy  ETV
vector 4572  IntersectionExampleScenario.node[96].veinsmobility  speed  ETV
vector 4573  IntersectionExampleScenario.node[96].veinsmobility  acceleration  ETV
vector 4574  IntersectionExampleScenario.node[96].veinsmobility  co2emission  ETV
vector 4577  IntersectionExampleScenario.node[97].veinsmobility  posx  ETV
vector 4578  IntersectionExampleScenario.node[97].veinsmobility  posy  ETV
vector 4579  IntersectionExampleScenario.node[97].veinsmobility  speed  ETV
vector 4580  IntersectionExampleScenario.node[97].veinsmobility  acceleration  ETV
vector 4581  IntersectionExampleScenario.node[97].veinsmobility  co2emission  ETV
4343	3412617 13000 26926 46083 180.5 295 459 0.973 11.54047740176 808.77835942647 3029.9219226483
4342	3425617 12833 26926 46083 180.5 295 459 -3.8910024166107 2.5 36.98334312439 328.77709895408
4341	3438450 12798 26885 46083 180.25 295 460 0 15.5 2223.2176838415 29204.606222276
4340	3451248 15624 26844 46083 180 295 461 184.17810058594 735.40498352051 211394.14379883 101230611.47205
4339	3466872 15672 26844 46083 180 295 461 486.85000610352 486.85000610352 224437.85281372 109267570.01222
vector 4584  IntersectionExampleScenario.node[98].veinsmobility  posx  ETV
vector 4585  IntersectionExampleScenario.node[98].veinsmobility  posy  ETV
vector 4586  IntersectionExampleScenario.node[98].veinsmobility  speed  ETV
4364	3482773 12963 27757 46361 185.25 296.75 447 0.973 11.810082123732 822.90696627922 3218.4961636853
4363	3495736 12841 27757 46361 185.25 296.75 447 -4.5 2.5 40.208654403687 427.97170632666
4362	3508577 12802 27710 46361 185 296.75 448 0 15.875 2085.2792717265 27000.851862104
4361	3521379 15230 27663 46361 184.75 296.75 449 208.07971191406 483.14999389648 196756.52981567 87889906.699263
4360	3536609 15260 27663 46361 184.75 296.75 449 486.85000610352 732.38241577148 226511.17678833 115420115.53257
vector 4587  IntersectionExampleScenario.node[98].veinsmobility  acceleration  ETV
vector 4588  IntersectionExampleScenario.node[98].veinsmobility  co2emission  ETV
4357	3552036 13671 27618 46641 184.5 298.5 457 0.973 11.54047740176 842.96711537603 3174.4749991667
4356	3565707 13645 27618 46641 184.5 298.5 457 -4.5 2.5 39.699392318726 429.32503884081
4355	3579352 13638 27573 46641 184.25 298.5 458 0 15.641196250916 2246.6482214006 29457.557762186
4354	3592990 15456 27528 46641 184 298.5 459 177.97814941406 734.48245239258 204653.51057434 95730749.56616
4353	3608446 15605 27528 46641 184 298.5 459 486.85000610352 486.85000610352 223464.15280151 108793524.15533
vector 4591  IntersectionExampleScenario.node[99].veinsmobility  posx  ETV
vector 4592  IntersectionExampleScenario.node[99].veinsmobility  posy  ETV
vector 4593  IntersectionExampleScenario.node[99].veinsmobility  speed  ETV
vector 4594  IntersectionExampleScenario.node[99].veinsmobility  acceleration  ETV
vector 4595  IntersectionExampleScenario.node[99].veinsmobility  co2emission  ETV
4392	3624447 12305 30211 47167 199 301.75 412 0.97223939240464 11.810082123732 808.45653925419 3492.4815495635
4391	3636752 12475 30211 47167 199 301.75 412 -3.9184098243713 2.5 38.680875778198 422.4625755022
4390	3649227 12380 30166 47167 198.75 301.75 413 0 15.875 2182.7691517361 28265.311991472
4389	3661607 14025 30121 47167 198.5 301.75 414 184.17810058594 483.31231689453 176127.43463135 76897521.33054
4388	3675632 14071 30121 47167 198.5 301.75 414 486.85000610352 732.17517089844 209637.35656738 107313246.47949
4406	3689703 10840 32651 47331 213 302.75 360 0.96333723109819 12.099024792222 756.06628794548 3520.1979428371
4405	3700543 11205 32651 47331 213 302.75 360 -3.8153204917908 2.5 40.208654403687 397.0530183212
4404	3711748 11141 32606 47331 212.75 302.75 361 0 16.27499961853 2201.5695300912 29000.01098855
4403	3722889 12248 32561 47331 212.5 302.75 362 184.17810058594 486.85000610352 151843.84759521 65592490.746033
4402	3735137 12306 32561 47331 212.5 302.75 362 238.99499511719 486.85003662109 168205.06283569 79304380.853645
4413	3747443 9811 33916 47782 220.5 305.5 341 0.973 11.648172402475 692.37567527797 3046.2755511449
[...]
7688	28956512 5333 296993 301179 1733 1770.25 150 -3.5221366882324 2.5 41.227186203003 190.9075601261
7687	28961845 5203 296960 301179 1732.75 1770.25 151 5.6500000953674 16.150173187256 2213.032333374 33217.395544042
7686	28967048 5438 296927 301179 1732.5 1770.25 152 184.17810058594 732.0559387207 68050.673461914 34466016.778352
7685	28972486 5472 296927 301179 1732.5 1770.25 152 486.85000610352 486.85000610352 74001.200927734 36027485.123335
vector 7762  IntersectionExampleScenario.node[552].veinsmobility  posx  ETV
vector 7763  IntersectionExampleScenario.node[552].veinsmobility  posy  ETV
vector 7764  IntersectionExampleScenario.node[552].veinsmobility  speed  ETV
7584	28978190 14278 285688 301556 1650.75 1774 494 0.973 11.810082123732 865.72149147058 3334.1994470216
7583	28992468 12621 285688 301556 1650.75 1774 494 -7.2641463279724 4 39.699392318726 483.29100888435
7582	29005089 12891 285639 301556 1650.5 1774 495 0 15.875 2180.8751922846 31208.170008883
7581	29017980 17790 285590 301556 1650.25 1774 496 236.12365722656 483.14999389648 231579.53610229 109315039.04402
7580	29035770 17828 285590 301556 1650.25 1774 496 184.17810058594 483.36395263672 222061.26895142 101738864.96619
vector 7765  IntersectionExampleScenario.node[552].veinsmobility  acceleration  ETV
vector 7766  IntersectionExampleScenario.node[552].veinsmobility  co2emission  ETV
vector 7769  IntersectionExampleScenario.node[553].veinsmobility  posx  ETV
vector 7770  IntersectionExampleScenario.node[553].veinsmobility  posy  ETV
vector 7771  IntersectionExampleScenario.node[553].veinsmobility  speed  ETV
vector 7772  IntersectionExampleScenario.node[553].veinsmobility  acceleration  ETV
vector 7773  IntersectionExampleScenario.node[553].veinsmobility  co2emission  ETV
7591	29054168 12463 289915 301871 1676 1776.75 404 0.973 11.810082123732 764.30939946978 3171.9846161203
7590	29066631 12578 289915 301871 1676 1776.75 404 -3.9498529434204 2.5 38.511121749878 337.19489571491
7589	29079209 12388 289880 301871 1675.75 1776.75 405 0 15.875 2189.2867776761 28910.093516068
7588	29091597 14605 289845 301871 1675.5 1776.75 406 235.39001464844 483.14999389648 187905.45004272 88158362.756053
7587	29106202 14578 289845 301871 1675.5 1776.75 406 184.17810058594 483.14999389648 177277.01672363 79577973.79192
7647	29120780 9453 293397 302074 1706.75 1778.5 288 0.973 12.099024792222 667.22269534775 3266.3755780007
7646	29130233 9856 293397 302074 1706.75 1778.5 288 -3.9452092647552 2.5 40.038900375366 355.29962708884
7645	29140089 9889 293366 302074 1706.5 1778.5 289 0 16.27499961853 2216.7766022254 29798.897508656
7644	29149978 10433 293335 302074 1706.25 1778.5 290 483.14999389648 734.86831665039 148418.01010132 77111933.675335
7643	29160411 10393 293335 302074 1706.25 1778.5 290 184.17810058594 486.85000610352 122875.09176636 54058726.65242
7696	29170804 6232 297256 302393 1735 1781.25 186 0.973 11.648172402475 561.07762371921 3030.2277148871
7695	29177036 6062 297256 302393 1735 1781.25 186 -4.3397407531738 2.5 38.171613693237 376.48519207446
7694	29183098 6410 297223 302393 1734.75 1781.25 187 3.7332527637482 15.64999961853 2184.4420354366 28571.422312176
7693	29189508 6764 297190 302393 1734.5 1781.25 188 237.00793457031 483.14999389648 82630.522796631 37301469.15185
7692	29196272 6736 297190 302393 1734.5 1781.25 188 184.17810058594 483.15887451172 75610.39352417 32188637.175534
vector 7776  IntersectionExampleScenario.node[554].veinsmobility  posx  ETV
vector 7777  IntersectionExampleScenario.node[554].veinsmobility  posy  ETV
vector 7783  IntersectionExampleScenario.node[555].veinsmobility  posx  ETV
vector 7784  IntersectionExampleScenario.node[555].veinsmobility  posy  ETV
vector 7778  IntersectionExampleScenario.node[554].veinsmobility  speed  ETV
vector 7779  IntersectionExampleScenario.node[554].veinsmobility  acceleration  ETV
vector 7780  IntersectionExampleScenario.node[554].veinsmobility  co2emission  ETV
vector 7785  IntersectionExampleScenario.node[555].veinsmobility  speed  ETV
vector 7786  IntersectionExampleScenario.node[555].veinsmobility  acceleration  ETV
vector 7787  IntersectionExampleScenario.node[555].veinsmobility  co2emission  ETV
vector 7790  IntersectionExampleScenario.node[556].veinsmobility  posx  ETV
vector 7791  IntersectionExampleScenario.node[556].veinsmobility  posy  ETV
vector 7792  IntersectionExampleScenario.node[556].veinsmobility  speed  ETV
vector 7793  IntersectionExampleScenario.node[556].veinsmobility  acceleration  ETV
vector 7794  IntersectionExampleScenario.node[556].veinsmobility  co2emission  ETV
7724	29204211 5376 298805 302948 1747.25 1785.5 154 0.973 11.648172402475 475.308589195 2608.6229835196
7723	29209587 5256 298805 302948 1747.25 1785.5 154 -3.4387359619141 2.5 38.341367721558 203.01840526701
7722	29214843 5340 298774 302948 1747 1785.5 155 5.6500000953674 15.74754524231 2217.6082334518 32365.334121696
7721	29220183 5616 298743 302948 1746.75 1785.5 156 483.14999389648 483.14999389648 75371.399047852 36415690.989939
7720	29225799 5576 298743 302948 1746.75 1785.5 156 184.17810058594 733.50665283203 70001.173614502 35555958.301914
vector 7797  IntersectionExampleScenario.node[557].veinsmobility  posx  ETV
vector 7798  IntersectionExampleScenario.node[557].veinsmobility  posy  ETV
vector 7799  IntersectionExampleScenario.node[557].veinsmobility  speed  ETV
vector 7800  IntersectionExampleScenario.node[557].veinsmobility  acceleration  ETV
vector 7801  IntersectionExampleScenario.node[557].veinsmobility  co2emission  ETV
vector 7804  IntersectionExampleScenario.node[558].veinsmobility  posx  ETV
vector 7805  IntersectionExampleScenario.node[558].veinsmobility  posy  ETV
vector 7811  IntersectionExampleScenario.node[559].veinsmobility  posx  ETV
vector 7812  IntersectionExampleScenario.node[559].veinsmobility  posy  ETV
vector 7806  IntersectionExampleScenario.node[558].veinsmobility  speed  ETV
vector 7813  IntersectionExampleScenario.node[559].veinsmobility  speed  ETV
vector 7807  IntersectionExampleScenario.node[558].veinsmobility  acceleration  ETV
vector 7808  IntersectionExampleScenario.node[558].veinsmobility  co2emission  ETV
vector 7814  IntersectionExampleScenario.node[559].veinsmobility  acceleration  ETV
vector 7815  IntersectionExampleScenario.node[559].veinsmobility  co2emission  ETV
vector 7818  IntersectionExampleScenario.node[560].veinsmobility  posx  ETV
vector 7819  IntersectionExampleScenario.node[560].veinsmobility  posy  ETV
vector 7820  IntersectionExampleScenario.node[560].veinsmobility  speed  ETV
vector 7821  IntersectionExampleScenario.node[560].veinsmobility  acceleration  ETV
vector 7822  IntersectionExampleScenario.node[560].veinsmobility  co2emission  ETV
vector 7825  IntersectionExampleScenario.node[561].veinsmobility  posx  ETV
vector 7826  IntersectionExampleScenario.node[561].veinsmobility  posy  ETV
vector 7827  IntersectionExampleScenario.node[561].veinsmobility  speed  ETV
vector 7832  IntersectionExampleScenario.node[562].veinsmobility  posx  ETV
vector 7833  IntersectionExampleScenario.node[562].veinsmobility  posy  ETV
vector 7828  IntersectionExampleScenario.node[561].veinsmobility  acceleration  ETV
vector 7829  IntersectionExampleScenario.node[561].veinsmobility  co2emission  ETV
vector 7834  IntersectionExampleScenario.node[562].veinsmobility  speed  ETV
vector 7835  IntersectionExampleScenario.node[562].veinsmobility  acceleration  ETV
vector 7836  IntersectionExampleScenario.node[562].veinsmobility  co2emission  ETV
7605	29233781 12691 291578 304901 1690.5 1800 439 0.973 11.90022389248 797.7226860159 3289.4458382548
7604	29246472 11580 291578 304901 1690.5 1800 439 -8.8707160949707 4 39.869157791138 517.54229157068
7603	29258052 11486 291551 304901 1690.25 1800 440 0 16 1968.8558893204 28284.68832162
7602	29269538 15859 291524 304901 1690 1800 441 297.39154052734 785.82187652588 227073.42319489 120107928.70871
7601	29285397 15874 291524 304901 1690 1800 441 483.14999389648 483.14999389648 213069.14730835 102944357.22156
7612	29301271 12351 292338 304901 1697.5 1800 411 0.973 11.810082123732 750.68004094587 3137.0518799154
7611	29313622 12210 292338 304901 1697.5 1800 411 -3.8863651752472 2.5 40.208810806274 350.99242033986
7610	29325832 11981 292309 304901 1697.25 1800 412 0 15.875 1848.1522627305 24326.941591779
7609	29337813 14846 292280 304901 1697 1800 413 486.85000610352 785.82187652588 220235.66173553 119570787.24721
7608	29352659 14862 292280 304901 1697 1800 413 320.99517822266 483.14999389648 196004.79678345 93368586.19666
7654	29367521 11107 293773 304901 1709.75 1800 362 0.973 11.90022389248 691.46947331748 3059.9143694501
7653	29378628 11231 293773 304901 1709.75 1800 362 -3.9002828598022 2.5 39.023721694946 341.88720511726
7652	29389859 11131 293740 304901 1709.5 1800 363 0 16 1751.3927117093 22211.718123321
7651	29400990 13084 293707 304901 1709.25 1800 364 483.12634277344 785.82187652588 197266.24115753 108917134.90331
7650	29414074 13094 293707 304901 1709.25 1800 364 483.14999389648 618.93647766113 178401.68443298 87646640.202256
7668	29427168 8875 295314 304901 1721.25 1800 316 0.973 11.648172402475 482.80226154129 1662.6033397506
7667	29436043 8209 295314 304901 1721.25 1800 316 -6.7464504241943 2.5 -22.60000038147 308.69059690175
7666	29444252 8197 295279 304901 1721 1800 317 0 15.64999961853 1147.4971456528 15962.201490606
7665	29452449 11447 295244 304901 1720.75 1800 318 486.85000610352 486.85000610352 154818.30194092 75373291.244872
7664	29463896 11433 295244 304901 1720.75 1800 318 498.39999389648 785.82187652588 171392.97864532 94482483.155867
7703	29475329 7152 297678 304901 1738.25 1800 248 0.973 11.200708441096 414.21950918145 1475.3551224951
7702	29482481 6380 297678 304901 1738.25 1800 248 -7.4570107460022 2.5 -22.60000038147 312.61100099102
7701	29488861 6706 297645 304901 1738 1800 249 0 15.02499961853 1146.7131234407 15847.68182457
7700	29495567 8971 297612 304901 1737.75 1800 250 184.17810058594 471.60000610352 104916.21871948 46000811.024085
7699	29504538 8999 297612 304901 1737.75 1800 250 486.85000610352 486.85000610352 121712.50152588 59255732.110748
7710	29513537 7926 297840 304901 1739.5 1800 243 0.973 11.36141391502 552.9268151096 2701.5258741457
7709	29521463 8430 297840 304901 1739.5 1800 243 -3.8616292476654 2.5000009536743 37.205751419067 343.50756804129
7708	29529893 8341 297807 304901 1739.25 1800 244 0 15.25 1547.3353365753 18374.864078513
7707	29538234 8796 297774 304901 1739 1800 245 486.82583618164 785.82187652588 137747.35604095 79193677.201937
7706	29547030 8818 297774 304901 1739 1800 245 396.31094360352 483.14999389648 117219.93963623 56142333.423662
7717	29555848 6942 298442 304901 1744.25 1800 224 0.973 11.648172402475 390.53747221731 1545.5988072097
7716	29562790 7621 298442 304901 1744.25 1800 224 -3.7650997638702 2.5 -22.60000038147 195.75903357992
7715	29570411 7438 298411 304901 1744 1800 225 0 15.64999961853 1123.2172577269 14183.380374839
7714	29577849 8135 298380 304901 1743.75 1800 226 486.85000610352 486.85000610352 110028.10137939 53567181.828116
7713	29585984 8110 298380 304901 1743.75 1800 226 504.79937744141 785.82187652588 126938.05735016 73030201.842155
7731	29594094 5489 299900 304901 1757.25 1800 172 0.973 11.648172402475 331.38997136804 1468.2102088851
7730	29599583 6286 299900 304901 1757.25 1800 172 -3.8294579982758 2.5 -22.481531336904 190.00137082992
7729	29605869 6176 299873 304901 1757 1800 173 0 15.64999961853 1097.4473401802 13551.199865529
7728	29612045 6263 299846 304901 1756.75 1800 174 486.85000610352 486.85000610352 84711.901062012 41241989.549081
7727	29618308 6248 299846 304901 1756.75 1800 174 511.29281616211 785.82187652588 101452.08763885 60584528.706177
7738	29624556 4967 300275 304901 1761 1800 157 0.973 12.099024792222 483.82708892391 3043.4128779683
7737	29629523 5183 300275 304901 1761 1800 157 -4.0486946105957 2.5000004768372 40.361886978149 365.40029599303
7736	29634706 5387 300250 304901 1760.75 1800 158 1.3090084791183 16.27499961853 1480.4216883183 17925.475319148
7735	29640093 5709 300225 304901 1760.5 1800 159 483.14999389648 785.82187652588 93353.691429138 56235215.539956
7734	29645802 5722 300225 304901 1760.5 1800 159 483.14999389648 550.61538696289 77523.518676758 37825189.71475
7745	29651524 4138 300783 304901 1766.5 1800 135 0.94070518862282 12.553400930962 304.60546073257 1720.8420225745
7744	29655662 4646 300783 304901 1766.5 1800 135 -3.8954086303711 2.5 -21.849677205086 214.54562646388
7743	29660308 4874 300760 304901 1766.25 1800 136 0 16.89999961853 1066.2783574909 13150.131104389
7742	29665182 4930 300737 304901 1766 1800 137 486.85000610352 486.85000610352 66698.450836182 32472141.19669
7741	29670112 4902 300737 304901 1766 1800 137 518.80731201172 785.82187652588 82825.089637756 51181358.160954
7752	29675014 4271 300833 304901 1767 1800 133 0.973 11.648172402475 430.59504155886 2718.7679662885
7751	29679285 4425 300833 304901 1767 1800 133 -3.3480911254883 2.5 38.936845779419 322.96788309216
7750	29683710 4600 300808 304901 1766.75 1800 134 3.9650092124939 15.64999961853 1391.5099537373 16749.378147371
7749	29688310 4844 300783 304901 1766.5 1800 135 443.13064575195 785.82187652588 81186.747779846 50123539.881593
7748	29693154 4859 300783 304901 1766.5 1800 135 483.14999389648 483.14999389648 65225.249176025 31513578.741293
7759	29698013 4075 300887 304901 1767.5 1800 131 0.973 12.099024792222 298.22909751683 1568.1404156876
7758	29702088 4704 300887 304901 1767.5 1800 131 -3.9053316116333 2.5 -22.134361535311 203.40788561276
7757	29706792 4728 300860 304901 1767.25 1800 132 0 16.27499961853 1119.8179214578 14322.357521334
7756	29711520 4753 300833 304901 1767 1800 133 184.17810058594 464.3095703125 49135.299804688 19376315.021612
7755	29716273 4786 300833 304901 1767 1800 133 486.85000610352 486.85000610352 64751.050811768 31524049.482918
7766	29721059 3118 301583 304901 1774.25 1800 104 0.973 11.200708441096 235.49547313938 1215.9728876293
7765	29724177 3709 301583 304901 1774.25 1800 104 -2.270881652832 2.5 -17.560894966125 156.24940139319
7764	29727886 3759 301556 304901 1774 1800 105 1.2597763538361 15.02499961853 1032.8007493019 12343.536012529
7763	29731645 3815 301529 304901 1773.75 1800 106 486.85000610352 486.85000610352 51606.100646973 25124430.414957
7762	29735460 3804 301529 304901 1773.75 1800 106 527.83535766602 785.82187652588 67217.818580627 43415522.997562
7773	29739264 3199 301668 304901 1775 1800 101 0.973 11.648172402475 317.96683018817 1990.8864069321
7772	29742463 3345 301668 304901 1775 1800 101 -3.6339073181152 2.5 13.39999961853 227.02786794611
7771	29745808 3496 301639 304901 1774.75 1800 102 5.6500000953674 15.64999961853 1246.5485754013 15870.825159561
7770	29749304 3696 301610 304901 1774.5 1800 103 483.18240356445 785.82187652588 64611.229972839 41480572.823001
7769	29753000 3706 301610 304901 1774.5 1800 103 483.14999389648 494.99234008789 49809.236816406 24087321.647124
7780	29756706 2549 302544 304901 1782.5 1800 71 1.4048517570733 11.200708441096 243.27418191924 1325.9947942239
7779	29759255 2244 302544 304901 1782.5 1800 71 -0.20788192749023 2.5 37.575838088989 94.693497505406
7778	29761499 2577 302511 304901 1782.25 1800 72 5.6500000953674 15.231029510498 1007.4499101639 14504.295893701
7777	29764076 2626 302480 304901 1782 1800 73 483.14999389648 483.14999389648 35269.949554443 17040675.911959
7776	29766702 2605 302480 304901 1782 1800 73 184.17810058594 431.02359008789 21723.177093506 6889617.4835576
7787	29769307 2501 302577 304901 1782.75 1800 70 0.973 11.648172402475 253.62461962383 1474.3926864418
7786	29771808 2508 302577 304901 1782.75 1800 70 -0.36955642700195 2.5 39.873556137085 101.51187254931
7785	29774316 2541 302544 304901 1782.5 1800 71 5.6500000953674 15.823209762573 1024.638212204 15266.241127057
7784	29776857 2584 302511 304901 1782.25 1800 72 534.87017822266 785.82187652588 48330.735054016 32878637.195815
7783	29779441 2592 302511 304901 1782.25 1800 72 483.14999389648 483.14999389648 34786.799560547 16807241.995356
7794	29782033 1980 302878 304901 1785 1800 61 0.973 12.099024792222 220.42697312236 1519.9027236999
7793	29784013 1991 302878 304901 1785 1800 61 -2.2574501037598 2.5 15.012723922729 155.55640318807
7792	29786004 2212 302843 304901 1784.75 1800 62 5.6500000953674 16.27499961853 821.11573696136 11372.537661694
7791	29788216 2267 302808 304901 1784.5 1800 63 486.85000610352 486.85000610352 30671.550384521 14932444.491909
7790	29790483 2259 302808 304901 1784.5 1800 63 583.60830688477 785.82187652588 43446.911140442 30230284.547421
7801	29792742 1425 303593 304901 1790.25 1800 40 0.973 11.200708441096 169.92969119105 1145.2583763243
7800	29794167 1348 303593 304901 1790.25 1800 40 -0.38379669189453 2.5 35.910905838013 94.089748316172
7799	29795515 1462 303560 304901 1790 1800 41 5.6500000953674 15.02499961853 532.56686878204 7235.2332797467
7798	29796977 1511 303527 304901 1789.75 1800 42 486.85000610352 486.85000610352 20447.700256348 9954962.9946057
7797	29798488 1509 303527 304901 1789.75 1800 42 657.5599822998 785.82187652588 30649.712120056 22435737.327232
7808	29799997 967 304013 304901 1793.5 1800 27 2.043828312647 10.335743324942 152.02618302268 1076.9054645893
7807	29800964 849 304013 304901 1793.5 1800 27 -0.036792755126953 2.5 38.537305831909 89.886953649988
7806	29801813 1000 303978 304901 1793.25 1800 28 5.6500000953674 15.314570426941 345.34639835358 4544.2147660301
7805	29802813 1042 303943 304901 1793 1800 29 486.85000610352 486.85000610352 14118.650177002 6873664.9248468
7804	29803855 1037 303943 304901 1793 1800 29 715.82098388672 797.07032012939 22143.587501526 16927261.274324
7815	29804892 947 304013 304901 1793.5 1800 27 0.973 11.200708441096 141.70405768442 1085.3610848842
7814	29805839 818 304013 304901 1793.5 1800 27 -0.5 2.5 35.520788192749 94.340137439201
7813	29806657 996 303978 304901 1793.25 1800 28 5.6500000953674 15.02499961853 341.06219387054 4414.2229181002
7812	29807653 1019 303943 304901 1793 1800 29 184.17810058594 264.58923339844 6312.8327026367 1393120.0382572
7811	29808672 1042 303943 304901 1793 1800 29 486.85000610352 486.85000610352 14118.650177002 6873664.9248468
7822	29809714 717 304251 304901 1795.25 1800 20 3.1784765199715 11.200708441096 138.51288500265 1103.8026357755
7821	29810431 557 304251 304901 1795.25 1800 20 0.26901626586914 2.5 38.876661300659 94.129122122049
7820	29810988 745 304216 304901 1795 1800 21 5.6500000953674 15.369165420532 241.56503486633 3002.9044330346
7819	29811733 779 304181 304901 1794.75 1800 22 164.94219970703 220.20654296875 4114.6770629883 776212.53308925
7818	29812512 791 304181 304901 1794.75 1800 22 486.85000610352 486.85000610352 10710.700134277 5214504.4257459
7829	29813303 320 304620 304901 1798 1800 9 5.2162187258585 8.5795037135332 62.00095089838 437.72442123158
7828	29813623 226 304620 304901 1798 1800 9 2.4999980926514 2.5 22.499998092651 56.24999046326
7827	29813849 356 304587 304901 1797.75 1800 10 5.6500000953674 11.27499961853 84.624998092651 748.36558556557
7826	29814205 395 304553 304901 1797.5 1800 11 486.85000610352 486.85000610352 5355.3500671387 2607252.2128729
7825	29814600 395 304553 304901 1797.5 1800 11 776.52096557617 794.15533447266 8656.9118270874 6813296.6138309
7836	29814995 249 304690 304901 1798.5 1800 7 5.2162187258585 7.726741696285 45.269477411621 297.66192607747
7835	29815244 179 304690 304901 1798.5 1800 7 2.4999980926514 2.5 17.499998092651 43.74999046326
7834	29815423 287 304655 304901 1798.25 1800 8 5.6500000953674 10.02499961853 62.699998855591 507.81747729302
7833	29815710 322 304620 304901 1798 1800 9 773.20001220703 785.82187652588 7026.2844314575 5485575.2121343
7832	29816032 322 304620 304901 1798 1800 9 483.14999389648 483.14999389648 4348.3499450684 2100905.2494196
3894	29816354 616 0 304900 0 1800 31 0 39 789 21727
3895	29816970 637 0 304900 0 1800 31 0 320 5041 1106675
