file 27752041 1591422467                                        
version 2
run nodebug-10-20200606-01:42:05-22484
attr configname nodebug
attr datetime 20200606-01:42:05
attr experiment nodebug
attr inifile omnetpp.ini
attr iterationvars ""
attr iterationvars2 $repetition=10
attr measurement ""
attr network "\"org.car2x.veins.modules.application.ExtTraCIScenarioManagerLaunchd.IntersectionExampleScenario\""
attr processid 22484
attr repetition 10
attr replication #10
attr resultdir results
attr runnumber 10
attr seedset 10
param **.coreDebug false
param **.debug false
param *.**.nic.mac1609_4.bitrate 18Mbps
param *.**.nic.mac1609_4.txPower 20mW
param *.**.nic.mac1609_4.useServiceChannel false
param *.**.nic.phy80211p.analogueModels "xmldoc(\"config.xml\")"
param *.**.nic.phy80211p.decider "xmldoc(\"config.xml\")"
param *.**.nic.phy80211p.sensitivity -89dBm
param *.**.nic.phy80211p.thermalNoise -110dBm
param *.**.nic.phy80211p.usePropagationDelay true
param *.**.nic.phy80211p.useThermalNoise true
param *.annotations.draw false
param *.connectionManager.alpha 2.0
param *.connectionManager.carrierFrequency "5.890e9 Hz"
param *.connectionManager.pMax 20mW
param *.connectionManager.sat -89dBm
param *.connectionManager.sendDirect true
param *.manager.autoShutdown true
param *.manager.host "\"localhost\""
param *.manager.launchConfig "xmldoc(\"paramics.launchd.xml\")"
param *.manager.margin 25
param *.manager.moduleDisplayString "\"\""
param *.manager.moduleName "\"node\""
param *.manager.moduleType "\"org.car2x.veins.nodes.Car\""
param *.manager.port 9999
param *.manager.updateInterval 250ms
param *.node[*0].veinsmobility.accidentCount 0
param *.node[*0].veinsmobility.accidentDuration 30s
param *.node[*0].veinsmobility.accidentStart 75s
param *.node[*].appl.LiderSelectZoneRadio 55.0
param *.node[*].appl.ShareDataZoneRadio 110.0
param *.node[*].appl.TiempoSemaforo 30.0
param *.node[*].appl.beaconInterval 1s
param *.node[*].appl.beaconPriority 3
param *.node[*].appl.dataOnSch false
param *.node[*].appl.dataPriority 2
param *.node[*].appl.debug false
param *.node[*].appl.headerLength "256 bit"
param *.node[*].appl.maxOffset 0.005s
param *.node[*].appl.sendBeacons false
param *.node[*].appl.sendData true
param *.node[*].applType "\"Dummy\""
param *.node[*].mobilityType "\"TraCIMobility\""
param *.node[*].mobilityType.debug true
param *.node[*].veinsmobility.x 0
param *.node[*].veinsmobility.y 0
param *.node[*].veinsmobility.z 1.895
param *.node[*].veinsmobilityType "\"org.car2x.veins.modules.mobility.traci.TraCIMobility\""
param *.node[*].veinsmobilityType.debug true
param *.playgroundSizeX 8500m
param *.playgroundSizeY 8500m
param *.playgroundSizeZ 50m
param *.world.use2D false
param *.world.useTorus false

vector 7839  IntersectionExampleScenario.manager  vehiclesinsim  ETV
attr type  int
vector 7840  IntersectionExampleScenario.manager  realtime  ETV
attr type  int
attr unit  s
vector 7843  IntersectionExampleScenario.node[0].veinsmobility  posx  ETV
vector 7844  IntersectionExampleScenario.node[0].veinsmobility  posy  ETV
vector 7845  IntersectionExampleScenario.node[0].veinsmobility  speed  ETV
vector 7846  IntersectionExampleScenario.node[0].veinsmobility  acceleration  ETV
vector 7847  IntersectionExampleScenario.node[0].veinsmobility  co2emission  ETV
vector 7850  IntersectionExampleScenario.node[1].veinsmobility  posx  ETV
vector 7851  IntersectionExampleScenario.node[1].veinsmobility  posy  ETV
vector 7852  IntersectionExampleScenario.node[1].veinsmobility  speed  ETV
vector 7853  IntersectionExampleScenario.node[1].veinsmobility  acceleration  ETV
vector 7854  IntersectionExampleScenario.node[1].veinsmobility  co2emission  ETV
vector 7857  IntersectionExampleScenario.node[2].veinsmobility  posx  ETV
vector 7858  IntersectionExampleScenario.node[2].veinsmobility  posy  ETV
vector 7859  IntersectionExampleScenario.node[2].veinsmobility  speed  ETV
vector 7860  IntersectionExampleScenario.node[2].veinsmobility  acceleration  ETV
vector 7861  IntersectionExampleScenario.node[2].veinsmobility  co2emission  ETV
vector 7864  IntersectionExampleScenario.node[3].veinsmobility  posx  ETV
vector 7865  IntersectionExampleScenario.node[3].veinsmobility  posy  ETV
vector 7866  IntersectionExampleScenario.node[3].veinsmobility  speed  ETV
vector 7867  IntersectionExampleScenario.node[3].veinsmobility  acceleration  ETV
vector 7868  IntersectionExampleScenario.node[3].veinsmobility  co2emission  ETV
vector 7871  IntersectionExampleScenario.node[4].veinsmobility  posx  ETV
vector 7872  IntersectionExampleScenario.node[4].veinsmobility  posy  ETV
vector 7873  IntersectionExampleScenario.node[4].veinsmobility  speed  ETV
vector 7874  IntersectionExampleScenario.node[4].veinsmobility  acceleration  ETV
vector 7875  IntersectionExampleScenario.node[4].veinsmobility  co2emission  ETV
vector 7878  IntersectionExampleScenario.node[5].veinsmobility  posx  ETV
vector 7879  IntersectionExampleScenario.node[5].veinsmobility  posy  ETV
vector 7880  IntersectionExampleScenario.node[5].veinsmobility  speed  ETV
vector 7881  IntersectionExampleScenario.node[5].veinsmobility  acceleration  ETV
vector 7882  IntersectionExampleScenario.node[5].veinsmobility  co2emission  ETV
vector 7885  IntersectionExampleScenario.node[6].veinsmobility  posx  ETV
vector 7886  IntersectionExampleScenario.node[6].veinsmobility  posy  ETV
vector 7887  IntersectionExampleScenario.node[6].veinsmobility  speed  ETV
vector 7888  IntersectionExampleScenario.node[6].veinsmobility  acceleration  ETV
vector 7889  IntersectionExampleScenario.node[6].veinsmobility  co2emission  ETV
vector 7892  IntersectionExampleScenario.node[7].veinsmobility  posx  ETV
vector 7893  IntersectionExampleScenario.node[7].veinsmobility  posy  ETV
vector 7894  IntersectionExampleScenario.node[7].veinsmobility  speed  ETV
vector 7895  IntersectionExampleScenario.node[7].veinsmobility  acceleration  ETV
vector 7896  IntersectionExampleScenario.node[7].veinsmobility  co2emission  ETV
vector 7899  IntersectionExampleScenario.node[8].veinsmobility  posx  ETV
vector 7900  IntersectionExampleScenario.node[8].veinsmobility  posy  ETV
vector 7901  IntersectionExampleScenario.node[8].veinsmobility  speed  ETV
vector 7902  IntersectionExampleScenario.node[8].veinsmobility  acceleration  ETV
vector 7903  IntersectionExampleScenario.node[8].veinsmobility  co2emission  ETV
vector 7906  IntersectionExampleScenario.node[9].veinsmobility  posx  ETV
vector 7907  IntersectionExampleScenario.node[9].veinsmobility  posy  ETV
vector 7908  IntersectionExampleScenario.node[9].veinsmobility  speed  ETV
vector 7909  IntersectionExampleScenario.node[9].veinsmobility  acceleration  ETV
vector 7910  IntersectionExampleScenario.node[9].veinsmobility  co2emission  ETV
7847	6844 4674 37 1851 8 46 153 0.97223939240464 11.648172402475 471.80125096764 2469.8143218926
7846	11518 4196 37 1851 8 46 153 -3.5467910766602 2.5 38.680875778198 197.15975724438
7845	15714 4574 34 1851 7.75 46 154 5.6500000953674 15.64999961853 2210.3583621979 32381.155842395
7844	20288 4830 31 1851 7.5 46 155 486.85000610352 486.85000610352 75461.750946045 36738553.908664
7843	25118 4812 31 1851 7.5 46 155 238.41052246094 785.82187652588 80957.144294739 46372668.315127
vector 7913  IntersectionExampleScenario.node[10].veinsmobility  posx  ETV
vector 7914  IntersectionExampleScenario.node[10].veinsmobility  posy  ETV
vector 7915  IntersectionExampleScenario.node[10].veinsmobility  speed  ETV
vector 7916  IntersectionExampleScenario.node[10].veinsmobility  acceleration  ETV
vector 7917  IntersectionExampleScenario.node[10].veinsmobility  co2emission  ETV
vector 7920  IntersectionExampleScenario.node[11].veinsmobility  posx  ETV
vector 7921  IntersectionExampleScenario.node[11].veinsmobility  posy  ETV
7861	30478 4652 98 2094 11.25 49.25 153 0.95858896007212 12.099024792222 506.06837831403 2924.6381252791
7860	35130 4434 98 2094 11.25 49.25 153 -2.993480682373 2.5 40.548154830933 248.82792602718
7859	39564 4593 91 2094 11 49.25 154 5.6500000953674 16.27499961853 2220.2505178452 32921.72505795
7858	44157 4832 84 2094 10.75 49.25 155 184.17810058594 733.76043701172 69475.81187439 35187169.943845
7857	48989 4867 84 2094 10.75 49.25 155 486.85000610352 486.85000610352 75461.750946045 36738553.908664
vector 7922  IntersectionExampleScenario.node[11].veinsmobility  speed  ETV
vector 7923  IntersectionExampleScenario.node[11].veinsmobility  acceleration  ETV
vector 7924  IntersectionExampleScenario.node[11].veinsmobility  co2emission  ETV
vector 7927  IntersectionExampleScenario.node[12].veinsmobility  posx  ETV
vector 7928  IntersectionExampleScenario.node[12].veinsmobility  posy  ETV
vector 7929  IntersectionExampleScenario.node[12].veinsmobility  speed  ETV
vector 7930  IntersectionExampleScenario.node[12].veinsmobility  acceleration  ETV
vector 7931  IntersectionExampleScenario.node[12].veinsmobility  co2emission  ETV
vector 7934  IntersectionExampleScenario.node[13].veinsmobility  posx  ETV
vector 7935  IntersectionExampleScenario.node[13].veinsmobility  posy  ETV
vector 7941  IntersectionExampleScenario.node[14].veinsmobility  posx  ETV
vector 7942  IntersectionExampleScenario.node[14].veinsmobility  posy  ETV
vector 7936  IntersectionExampleScenario.node[13].veinsmobility  speed  ETV
vector 7937  IntersectionExampleScenario.node[13].veinsmobility  acceleration  ETV
vector 7938  IntersectionExampleScenario.node[13].veinsmobility  co2emission  ETV
vector 7943  IntersectionExampleScenario.node[14].veinsmobility  speed  ETV
vector 7948  IntersectionExampleScenario.node[15].veinsmobility  posx  ETV
vector 7949  IntersectionExampleScenario.node[15].veinsmobility  posy  ETV
vector 7944  IntersectionExampleScenario.node[14].veinsmobility  acceleration  ETV
vector 7945  IntersectionExampleScenario.node[14].veinsmobility  co2emission  ETV
vector 7950  IntersectionExampleScenario.node[15].veinsmobility  speed  ETV
vector 7951  IntersectionExampleScenario.node[15].veinsmobility  acceleration  ETV
vector 7952  IntersectionExampleScenario.node[15].veinsmobility  co2emission  ETV
vector 7955  IntersectionExampleScenario.node[16].veinsmobility  posx  ETV
vector 7956  IntersectionExampleScenario.node[16].veinsmobility  posy  ETV
vector 7962  IntersectionExampleScenario.node[17].veinsmobility  posx  ETV
vector 7963  IntersectionExampleScenario.node[17].veinsmobility  posy  ETV
vector 7957  IntersectionExampleScenario.node[16].veinsmobility  speed  ETV
vector 7958  IntersectionExampleScenario.node[16].veinsmobility  acceleration  ETV
vector 7959  IntersectionExampleScenario.node[16].veinsmobility  co2emission  ETV
vector 7964  IntersectionExampleScenario.node[17].veinsmobility  speed  ETV
vector 7965  IntersectionExampleScenario.node[17].veinsmobility  acceleration  ETV
vector 7966  IntersectionExampleScenario.node[17].veinsmobility  co2emission  ETV
vector 7969  IntersectionExampleScenario.node[18].veinsmobility  posx  ETV
vector 7970  IntersectionExampleScenario.node[18].veinsmobility  posy  ETV
vector 7971  IntersectionExampleScenario.node[18].veinsmobility  speed  ETV
vector 7972  IntersectionExampleScenario.node[18].veinsmobility  acceleration  ETV
vector 7973  IntersectionExampleScenario.node[18].veinsmobility  co2emission  ETV
vector 7976  IntersectionExampleScenario.node[19].veinsmobility  posx  ETV
vector 7977  IntersectionExampleScenario.node[19].veinsmobility  posy  ETV
vector 7978  IntersectionExampleScenario.node[19].veinsmobility  speed  ETV
vector 7979  IntersectionExampleScenario.node[19].veinsmobility  acceleration  ETV
vector 7980  IntersectionExampleScenario.node[19].veinsmobility  co2emission  ETV
7875	57268 6467 490 5642 23.25 80.25 229 0.973 11.648172402475 600.59191236005 2985.8896995118
7874	63735 5872 490 5642 23.25 80.25 229 -7.0929417610168 4 38.341367721558 482.03536989279
7873	69607 6190 479 5642 23 80.25 230 0 15.64999961853 2212.6930657625 31413.159395651
7872	75797 7350 468 5642 22.75 80.25 231 483.14999389648 483.14999389648 111607.64859009 53923234.735102
7871	83147 7317 468 5642 22.75 80.25 231 184.17810058594 733.41819763184 105336.45173645 52202760.813298
7903	90464 5597 1051 5804 34 81.75 192 0.973 11.648172402475 546.88034998133 2870.7779844352
7902	96061 5702 1051 5804 34 81.75 192 -2.1501121520996 2.5000009536743 38.341367721558 304.29828379647
7901	101763 5918 1035 5804 33.75 81.75 193 1.7198677062988 15.64999961853 2206.3734540939 29342.593102501
7900	107681 6166 1018 5804 33.5 81.75 194 483.14999389648 732.53695678711 102100.81539917 54764041.830017
7899	113847 6179 1018 5804 33.5 81.75 194 184.17810058594 486.85000610352 78912.327667236 33951159.743645
vector 7983  IntersectionExampleScenario.node[20].veinsmobility  posx  ETV
vector 7984  IntersectionExampleScenario.node[20].veinsmobility  posy  ETV
vector 7985  IntersectionExampleScenario.node[20].veinsmobility  speed  ETV
vector 7986  IntersectionExampleScenario.node[20].veinsmobility  acceleration  ETV
vector 7987  IntersectionExampleScenario.node[20].veinsmobility  co2emission  ETV
7924	120422 4726 2136 6457 49.75 87.5 152 0.973 12.099024792222 513.29495660002 2866.151784996
7923	125148 4255 2136 6457 49.75 87.5 152 -3.3233337402344 2.5 41.736440658569 249.98230983602
7922	129403 4578 2115 6457 49.5 87.5 153 5.6500000953674 16.27499961853 2214.3167867661 33213.542478628
7921	133981 4921 2094 6457 49.25 87.5 154 483.14999389648 734.57539367676 82500.282363892 45123363.262993
7920	138902 4902 2094 6457 49.25 87.5 154 184.17810058594 486.85000610352 61297.912658691 26134512.43466
vector 7990  IntersectionExampleScenario.node[21].veinsmobility  posx  ETV
vector 7991  IntersectionExampleScenario.node[21].veinsmobility  posy  ETV
7931	143956 4816 2350 6863 52.25 91 156 0.973 12.26218747632 550.3274210562 3327.8646549132
7930	148772 4424 2350 6863 52.25 91 156 -3.6710758209229 2.5 42.585195541382 326.48885472571
7929	153196 4683 2327 6863 52 91 157 5.6500000953674 16.5 2238.9690566063 33663.505297584
7928	157879 5043 2304 6863 51.75 91 158 238.78778076172 483.14999389648 68763.797149658 30790312.708543
7927	162922 5028 2304 6863 51.75 91 158 168.58435058594 483.21011352539 61736.09463501 26042138.9217
vector 7992  IntersectionExampleScenario.node[21].veinsmobility  speed  ETV
vector 7993  IntersectionExampleScenario.node[21].veinsmobility  acceleration  ETV
vector 7994  IntersectionExampleScenario.node[21].veinsmobility  co2emission  ETV
vector 7997  IntersectionExampleScenario.node[22].veinsmobility  posx  ETV
vector 7998  IntersectionExampleScenario.node[22].veinsmobility  posy  ETV
vector 8004  IntersectionExampleScenario.node[23].veinsmobility  posx  ETV
vector 8005  IntersectionExampleScenario.node[23].veinsmobility  posy  ETV
vector 7999  IntersectionExampleScenario.node[22].veinsmobility  speed  ETV
vector 8000  IntersectionExampleScenario.node[22].veinsmobility  acceleration  ETV
vector 8001  IntersectionExampleScenario.node[22].veinsmobility  co2emission  ETV
vector 8006  IntersectionExampleScenario.node[23].veinsmobility  speed  ETV
vector 8007  IntersectionExampleScenario.node[23].veinsmobility  acceleration  ETV
vector 8008  IntersectionExampleScenario.node[23].veinsmobility  co2emission  ETV
7952	168986 4915 2786 7482 56.75 95.75 157 0.973 11.648172402475 478.28796597716 2501.6314991407
7951	173901 4762 2786 7482 56.75 95.75 157 -4.4601364135742 2.5 38.341367721558 205.17112934371
7950	178663 4811 2757 7482 56.5 95.75 158 5.6500000953674 15.64999961853 2262.963013649 33056.031166273
7949	183474 5090 2728 7482 56.25 95.75 159 483.14999389648 483.14999389648 76820.849029541 37115992.739745
7948	188564 5051 2728 7482 56.25 95.75 159 173.9375 734.41421508789 70631.291275024 35769104.439807
vector 8011  IntersectionExampleScenario.node[24].veinsmobility  posx  ETV
vector 8012  IntersectionExampleScenario.node[24].veinsmobility  posy  ETV
vector 8013  IntersectionExampleScenario.node[24].veinsmobility  speed  ETV
vector 8014  IntersectionExampleScenario.node[24].veinsmobility  acceleration  ETV
vector 8015  IntersectionExampleScenario.node[24].veinsmobility  co2emission  ETV
vector 8018  IntersectionExampleScenario.node[25].veinsmobility  posx  ETV
vector 8019  IntersectionExampleScenario.node[25].veinsmobility  posy  ETV
vector 8020  IntersectionExampleScenario.node[25].veinsmobility  speed  ETV
vector 8021  IntersectionExampleScenario.node[25].veinsmobility  acceleration  ETV
vector 8022  IntersectionExampleScenario.node[25].veinsmobility  co2emission  ETV
7882	194407 9060 582 9300 25.25 110.75 343 0.973 11.200708441096 691.42744376069 2806.0728114014
7881	203467 7989 582 9300 25.25 110.75 343 -8.6810245513916 4 36.134572982788 467.99787660457
7880	211456 8330 569 9300 25 110.75 344 0 15.02499961853 2196.9566392899 30075.092351361
7879	219786 11036 556 9300 24.75 110.75 345 483.14999389648 785.82187652588 183960.033638 100358153.69298
7878	230822 11044 556 9300 24.75 110.75 345 483.14999389648 732.44580078125 175343.67735291 90338943.208981
7889	241866 8992 869 9362 30.75 111.25 323 0.973 11.810082123732 696.77207271104 3074.1574863307
7888	250858 8925 869 9362 30.75 111.25 323 -3.9621696472168 2.5 40.038900375366 384.17232578545
7887	259783 8813 856 9362 30.5 111.25 324 0 15.875 2175.5140140448 30298.49474712
7886	268596 10422 842 9362 30.25 111.25 325 486.85000610352 785.82187652588 175099.37831879 96428603.225992
7885	279018 10428 842 9362 30.25 111.25 325 239.044921875 483.14999389648 149187.01547241 69563793.837845
7945	289446 6800 2728 9703 56.25 114 232 0.973 11.648172402475 586.49896131983 2817.3765461551
7944	296246 7105 2728 9703 56.25 114 232 -3.9448437690735 2.5 37.662351608276 328.2543266862
7943	303351 7226 2701 9703 56 114 233 0 15.64999961853 2213.5359112769 28897.30804425
7942	310577 7514 2674 9703 55.75 114 234 483.14999389648 785.82187652588 129984.9492569 74141508.826671
7941	318091 7541 2674 9703 55.75 114 234 483.14999389648 734.22476196289 121632.6739502 64344183.358967
vector 8025  IntersectionExampleScenario.node[26].veinsmobility  posx  ETV
vector 8026  IntersectionExampleScenario.node[26].veinsmobility  posy  ETV
vector 8027  IntersectionExampleScenario.node[26].veinsmobility  speed  ETV
vector 8028  IntersectionExampleScenario.node[26].veinsmobility  acceleration  ETV
vector 8029  IntersectionExampleScenario.node[26].veinsmobility  co2emission  ETV
7973	326028 6042 3711 9961 64.25 116 208 0.973 11.648172402475 564.34784460794 2893.5206203139
7972	332070 6120 3711 9961 64.25 116 208 -2.1404342651367 2.5 38.511121749878 318.26467866079
7971	338190 6474 3676 9961 64 116 209 1.4637622833252 15.64999961853 2210.3629370928 28416.523066385
7970	344664 6762 3641 9961 63.75 116 210 483.14999389648 785.82187652588 118280.87490082 68473753.428571
7969	351426 6764 3641 9961 63.75 116 210 483.14999389648 733.37840270996 109867.09262085 58543974.232289
vector 8032  IntersectionExampleScenario.node[27].veinsmobility  posx  ETV
vector 8033  IntersectionExampleScenario.node[27].veinsmobility  posy  ETV
vector 8034  IntersectionExampleScenario.node[27].veinsmobility  speed  ETV
vector 8035  IntersectionExampleScenario.node[27].veinsmobility  acceleration  ETV
vector 8036  IntersectionExampleScenario.node[27].veinsmobility  co2emission  ETV
vector 8039  IntersectionExampleScenario.node[28].veinsmobility  posx  ETV
vector 8040  IntersectionExampleScenario.node[28].veinsmobility  posy  ETV
vector 8041  IntersectionExampleScenario.node[28].veinsmobility  speed  ETV
vector 8042  IntersectionExampleScenario.node[28].veinsmobility  acceleration  ETV
vector 8043  IntersectionExampleScenario.node[28].veinsmobility  co2emission  ETV
vector 8046  IntersectionExampleScenario.node[29].veinsmobility  posx  ETV
vector 8047  IntersectionExampleScenario.node[29].veinsmobility  posy  ETV
vector 8048  IntersectionExampleScenario.node[29].veinsmobility  speed  ETV
vector 8049  IntersectionExampleScenario.node[29].veinsmobility  acceleration  ETV
vector 8050  IntersectionExampleScenario.node[29].veinsmobility  co2emission  ETV
vector 8053  IntersectionExampleScenario.node[30].veinsmobility  posx  ETV
vector 8054  IntersectionExampleScenario.node[30].veinsmobility  posy  ETV
vector 8055  IntersectionExampleScenario.node[30].veinsmobility  speed  ETV
vector 8056  IntersectionExampleScenario.node[30].veinsmobility  acceleration  ETV
vector 8057  IntersectionExampleScenario.node[30].veinsmobility  co2emission  ETV
7854	359774 13431 59 13175 9.5 141.75 530 0.973 11.200708441096 882.71870057862 3028.6802982864
7853	373205 11347 59 13175 9.5 141.75 530 -33.928562164307 4 35.795072555542 1500.9201946404
7852	384552 11878 54 13175 9.25 141.75 531 0 15.02499961853 2284.3870639801 31774.522103635
7851	396430 17183 49 13175 9 141.75 532 486.85000610352 486.85000610352 259004.20324707 126096197.93167
7850	413613 17162 49 13175 9 141.75 532 238.29931640625 806.11563110352 270579.39385986 142449020.24528
7868	430775 13315 270 13325 17.25 143.25 505 0.973 11.200708441096 864.36413051669 3003.9804397314
7867	444090 12885 270 13325 17.25 143.25 505 -3.9261515140533 2.5 38.511121749878 335.50442833736
7866	456975 12820 261 13325 17 143.25 506 0 15.324496269226 2210.2818912044 29845.939629774
7865	469795 16440 252 13325 16.75 143.25 507 486.85000610352 486.85000610352 246832.95309448 120170624.7206
7864	486235 16402 252 13325 16.75 143.25 507 237.84106445312 785.82187652588 259120.10613251 136586129.98053
vector 8060  IntersectionExampleScenario.node[31].veinsmobility  posx  ETV
vector 8061  IntersectionExampleScenario.node[31].veinsmobility  posy  ETV
vector 8062  IntersectionExampleScenario.node[31].veinsmobility  speed  ETV
vector 8063  IntersectionExampleScenario.node[31].veinsmobility  acceleration  ETV
vector 8064  IntersectionExampleScenario.node[31].veinsmobility  co2emission  ETV
7896	503033 12358 1003 13668 33.25 146.75 455 0.973 11.36141391502 802.06877604197 3006.966408968
7895	515391 12180 1003 13668 33.25 146.75 455 -3.9706320762634 2.5 36.813589096069 337.97750772088
7894	527571 12090 988 13668 33 146.75 456 0 15.25 2183.6132138381 27953.068414222
7893	539661 14920 973 13668 32.75 146.75 457 486.85000610352 732.90951538086 230859.33334351 117837505.87185
7892	554581 14912 973 13668 32.75 146.75 457 486.85000610352 785.82187652588 244352.92804718 132804099.37659
vector 8067  IntersectionExampleScenario.node[32].veinsmobility  posx  ETV
vector 8068  IntersectionExampleScenario.node[32].veinsmobility  posy  ETV
vector 8069  IntersectionExampleScenario.node[32].veinsmobility  speed  ETV
vector 8074  IntersectionExampleScenario.node[33].veinsmobility  posx  ETV
vector 8075  IntersectionExampleScenario.node[33].veinsmobility  posy  ETV
vector 8070  IntersectionExampleScenario.node[32].veinsmobility  acceleration  ETV
vector 8071  IntersectionExampleScenario.node[32].veinsmobility  co2emission  ETV
vector 8076  IntersectionExampleScenario.node[33].veinsmobility  speed  ETV
7910	570118 12472 1205 13776 36.5 147.75 446 0.973 11.54047740176 817.36919105355 3093.6799180455
7909	582590 12477 1205 13776 36.5 147.75 446 -4.5 2.5000019073486 38.680875778198 383.90161501772
7908	595067 12460 1188 13776 36.25 147.75 447 0 15.5 2265.0051357588 29848.248019304
7907	607527 14654 1171 13776 36 147.75 448 486.85000610352 486.85000610352 218108.80273438 106186271.94246
7906	622181 14609 1171 13776 36 147.75 448 235.89245605469 797.07032012939 234402.14377594 127076610.62636
vector 8081  IntersectionExampleScenario.node[34].veinsmobility  posx  ETV
vector 8082  IntersectionExampleScenario.node[34].veinsmobility  posy  ETV
vector 8077  IntersectionExampleScenario.node[33].veinsmobility  acceleration  ETV
vector 8078  IntersectionExampleScenario.node[33].veinsmobility  co2emission  ETV
vector 8083  IntersectionExampleScenario.node[34].veinsmobility  speed  ETV
vector 8084  IntersectionExampleScenario.node[34].veinsmobility  acceleration  ETV
vector 8085  IntersectionExampleScenario.node[34].veinsmobility  co2emission  ETV
7959	637353 10197 3344 14084 61.5 150.25 356 0.973 11.90022389248 734.7842131245 3273.0751438232
7958	647550 10475 3344 14084 61.5 150.25 356 -3.82306432724 2.5000019073486 39.699392318726 361.41548289973
7957	658025 10366 3311 14084 61.25 150.25 357 0 16 2205.2609675089 29155.457237997
7956	668391 11784 3280 14084 61 150.25 358 237.56805419922 486.85000610352 166109.81295776 78245588.283599
7955	680175 11762 3280 14084 61 150.25 358 482.94021606445 785.82187652588 195850.91843414 109100265.98649
7987	691937 8413 6051 14394 84 152.75 276 0.973 11.90022389248 652.50758688716 3141.6281771881
7986	700350 8958 6051 14394 84 152.75 276 -3.751758813858 2.5 39.699392318726 346.93171319763
7985	709308 8873 6022 14394 83.75 152.75 277 0 16 2211.0361194108 29035.389794721
7984	718181 9249 5993 14394 83.5 152.75 278 236.61956787109 486.85000610352 127097.18762207 59236348.74834
7983	727430 9231 5993 14394 83.5 152.75 278 483.14999389648 785.82187652588 154661.51049042 87914832.726009
8008	736661 7225 7183 14673 93.5 155 247 0.973 11.90022389248 611.05619997094 3103.1474138766
8007	743886 7595 7183 14673 93.5 155 247 -3.8401980400085 2.5000001192093 39.699392318726 366.71329747122
8006	751481 7661 7148 14673 93.25 155 248 0 16 2209.0404358208 28558.58690196
8005	759142 8338 7113 14673 93 155 249 236.82122802734 486.85000610352 112992.36636353 52372830.154987
8004	767480 8317 7113 14673 93 155 249 483.14999389648 785.82187652588 140070.96747589 80624496.399825
8022	775797 6333 8618 14847 105.25 156.5 206 0.973 12.099024792222 591.09231538692 3232.3996414938
8021	782130 6456 8618 14847 105.25 156.5 206 -3.6732711791992 2.5 41.396924972534 337.81127397355
8020	788586 6704 8587 14847 105 156.5 207 1.2245219945908 16.27499961853 2209.3809623718 29030.375969601
8019	795290 7005 8556 14847 104.75 156.5 208 236.29010009766 486.85000610352 93197.81817627 42790410.319662
8018	802295 7015 8556 14847 104.75 156.5 208 483.1208190918 785.82187652588 118229.46459198 68978017.211563
vector 8088  IntersectionExampleScenario.node[35].veinsmobility  posx  ETV
vector 8089  IntersectionExampleScenario.node[35].veinsmobility  posy  ETV
vector 8090  IntersectionExampleScenario.node[35].veinsmobility  speed  ETV
vector 8091  IntersectionExampleScenario.node[35].veinsmobility  acceleration  ETV
vector 8092  IntersectionExampleScenario.node[35].veinsmobility  co2emission  ETV
8036	809706 5246 10394 15245 119.25 160.25 165 0.973 11.675227021211 564.78548925677 3548.1445870628
8035	814952 4927 10394 15245 119.25 160.25 165 -3.8098392486572 2.5 38.171613693237 358.54483533318
8034	819879 5313 10359 15245 119 160.25 166 5.6500000953674 15.68763923645 2181.2263092995 29935.094144732
8033	825192 5673 10324 15245 118.75 160.25 167 486.85000610352 732.88459777832 89497.998336792 48900785.037668
8032	830865 5668 10324 15245 118.75 160.25 167 486.85000610352 785.82187652588 95617.721000671 56499170.493115
vector 8095  IntersectionExampleScenario.node[36].veinsmobility  posx  ETV
vector 8096  IntersectionExampleScenario.node[36].veinsmobility  posy  ETV
vector 8097  IntersectionExampleScenario.node[36].veinsmobility  speed  ETV
vector 8098  IntersectionExampleScenario.node[36].veinsmobility  acceleration  ETV
vector 8099  IntersectionExampleScenario.node[36].veinsmobility  co2emission  ETV
vector 8102  IntersectionExampleScenario.node[37].veinsmobility  posx  ETV
vector 8103  IntersectionExampleScenario.node[37].veinsmobility  posy  ETV
vector 8104  IntersectionExampleScenario.node[37].veinsmobility  speed  ETV
vector 8105  IntersectionExampleScenario.node[37].veinsmobility  acceleration  ETV
vector 8106  IntersectionExampleScenario.node[37].veinsmobility  co2emission  ETV
vector 8109  IntersectionExampleScenario.node[38].veinsmobility  posx  ETV
vector 8110  IntersectionExampleScenario.node[38].veinsmobility  posy  ETV
vector 8111  IntersectionExampleScenario.node[38].veinsmobility  speed  ETV
vector 8112  IntersectionExampleScenario.node[38].veinsmobility  acceleration  ETV
vector 8113  IntersectionExampleScenario.node[38].veinsmobility  co2emission  ETV
7917	837721 12961 1923 16453 47 171.5 499 0.973 11.450879080643 853.12964826173 3104.9793586787
7916	850682 11230 1923 16453 47 171.5 499 -8.487024307251 4 37.15309715271 481.82413438468
7915	861912 11631 1904 16453 46.75 171.5 500 0 15.375 2210.497877121 30840.213827553
7914	873543 16514 1885 16453 46.5 171.5 501 184.17810058594 733.24285888672 232645.48709106 112288722.93758
7913	890057 16540 1885 16453 46.5 171.5 501 486.85000610352 486.85000610352 243911.85305786 118748487.14994
7938	906597 12564 2701 16507 56 172 465 0.973 12.26218747632 840.8680938993 3529.7040220372
7937	919161 12286 2701 16507 56 172 465 -3.9792335033417 2.5 41.396924972534 362.93424526291
7936	931447 12115 2674 16507 55.75 172 466 0 16.5 2178.2628650879 29736.039638532
7935	943562 15408 2649 16507 55.5 172 467 184.17810058594 483.14999389648 205878.3039856 92937761.782715
7934	958970 15447 2649 16507 55.5 172 467 486.85000610352 731.48376464844 235067.94786072 119447929.11074
7966	974417 12614 3377 16831 61.75 175 454 0.97223939240464 11.810082123732 809.39766653913 3206.2970559232
7965	987031 12540 3377 16831 61.75 175 454 -3.8019585609436 2.5000004768372 38.680875778198 342.24495233343
7964	999571 12440 3344 16831 61.5 175 455 0 15.875 2178.4861915354 27792.148322652
7963	1012011 15092 3311 16831 61.25 175 456 184.17810058594 483.14999389648 198177.86993408 88259614.135827
7962	1027103 15119 3311 16831 61.25 175 456 486.85000610352 731.89093017578 230064.31404114 117243421.64063
7980	1042222 11767 5064 17182 75.25 178.25 413 0.973 11.200708441096 749.17273462858 2797.5530782529
7979	1053989 11733 5064 17182 75.25 178.25 413 -3.7720146179199 2.5 35.795072555542 302.93154357093
7978	1065722 11754 5033 17182 75 178.25 414 0 15.02499961853 2181.5720549924 27254.148138507
7977	1077476 13815 5002 17182 74.75 178.25 415 184.17810058594 483.19866943359 177958.35623169 78380797.886259
7976	1091291 13833 5002 17182 74.75 178.25 415 486.85000610352 732.49647521973 210526.0388031 108010527.09583
vector 8116  IntersectionExampleScenario.node[39].veinsmobility  posx  ETV
vector 8117  IntersectionExampleScenario.node[39].veinsmobility  posy  ETV
vector 8118  IntersectionExampleScenario.node[39].veinsmobility  speed  ETV
vector 8119  IntersectionExampleScenario.node[39].veinsmobility  acceleration  ETV
vector 8120  IntersectionExampleScenario.node[39].veinsmobility  co2emission  ETV
7994	1105520 10759 6925 17577 91.5 181.75 362 0.973 10.916047529558 692.46536205015 2640.6929046076
7993	1116279 11042 6925 17577 91.5 181.75 362 -3.9615905284882 2.5 34.097539901733 308.10355678645
7992	1127321 10931 6894 17577 91.25 181.75 363 0 14.625 2189.9952402422 26704.609193273
7991	1138252 12187 6863 17577 91 181.75 364 184.17810058594 483.14999389648 153602.67730713 66831009.41244
7990	1150439 12232 6863 17577 91 181.75 364 486.85000610352 734.53901672363 186075.95932007 96367243.723817
vector 8123  IntersectionExampleScenario.node[40].veinsmobility  posx  ETV
vector 8124  IntersectionExampleScenario.node[40].veinsmobility  posy  ETV
vector 8125  IntersectionExampleScenario.node[40].veinsmobility  speed  ETV
vector 8126  IntersectionExampleScenario.node[40].veinsmobility  acceleration  ETV
vector 8127  IntersectionExampleScenario.node[40].veinsmobility  co2emission  ETV
8001	1163067 11048 7148 17726 93.25 183 360 0.973 11.578557845587 752.08250173015 3023.7066542037
8000	1174115 11599 7148 17726 93.25 183 360 -4.5 2.5 39.464303970337 410.12406408199
7999	1185714 11322 7113 17726 93 183 361 0 15.553070068359 2262.1869401671 28935.144516768
7998	1197036 12128 7080 17726 92.75 183 362 164.94219970703 483.15481567383 150163.96170044 64558187.585429
7997	1209164 12183 7080 17726 92.75 183 362 486.84997558594 733.33520507812 184637.16619873 95362868.523711
vector 8130  IntersectionExampleScenario.node[41].veinsmobility  posx  ETV
vector 8131  IntersectionExampleScenario.node[41].veinsmobility  posy  ETV
vector 8132  IntersectionExampleScenario.node[41].veinsmobility  speed  ETV
vector 8133  IntersectionExampleScenario.node[41].veinsmobility  acceleration  ETV
vector 8134  IntersectionExampleScenario.node[41].veinsmobility  co2emission  ETV
vector 8137  IntersectionExampleScenario.node[42].veinsmobility  posx  ETV
vector 8138  IntersectionExampleScenario.node[42].veinsmobility  posy  ETV
vector 8139  IntersectionExampleScenario.node[42].veinsmobility  speed  ETV
vector 8140  IntersectionExampleScenario.node[42].veinsmobility  acceleration  ETV
vector 8141  IntersectionExampleScenario.node[42].veinsmobility  co2emission  ETV
vector 8144  IntersectionExampleScenario.node[43].veinsmobility  posx  ETV
vector 8145  IntersectionExampleScenario.node[43].veinsmobility  posy  ETV
vector 8146  IntersectionExampleScenario.node[43].veinsmobility  speed  ETV
vector 8147  IntersectionExampleScenario.node[43].veinsmobility  acceleration  ETV
vector 8148  IntersectionExampleScenario.node[43].veinsmobility  co2emission  ETV
vector 8151  IntersectionExampleScenario.node[44].veinsmobility  posx  ETV
vector 8152  IntersectionExampleScenario.node[44].veinsmobility  posy  ETV
vector 8153  IntersectionExampleScenario.node[44].veinsmobility  speed  ETV
vector 8154  IntersectionExampleScenario.node[44].veinsmobility  acceleration  ETV
vector 8155  IntersectionExampleScenario.node[44].veinsmobility  co2emission  ETV
vector 8158  IntersectionExampleScenario.node[45].veinsmobility  posx  ETV
vector 8159  IntersectionExampleScenario.node[45].veinsmobility  posy  ETV
vector 8160  IntersectionExampleScenario.node[45].veinsmobility  speed  ETV
vector 8161  IntersectionExampleScenario.node[45].veinsmobility  acceleration  ETV
vector 8162  IntersectionExampleScenario.node[45].veinsmobility  co2emission  ETV
8015	1223327 11319 7820 19978 98.5 201.5 413 0.973 11.450879080643 771.01642240935 3029.4987130658
8014	1234646 9889 7820 19978 98.5 201.5 413 -7.457010269165 4 37.32285118103 472.71634007258
8013	1244535 10318 7789 19978 98.25 201.5 414 0 15.375 2213.2772502899 30957.844004183
8012	1254853 14027 7758 19978 98 201.5 415 483.14999389648 483.14999389648 200507.24746704 96875075.389902
8011	1268880 13996 7758 19978 98 201.5 415 184.17810058594 733.81198120117 192126.08898926 93200555.705724
8057	1282876 7602 13125 20077 141.25 202.25 245 0.973 12.099024792222 621.7946619154 3193.8083150633
8056	1290478 7933 13125 20077 141.25 202.25 245 -3.8096423149109 2.5 40.548154830933 358.96696690278
8055	1298411 7922 13100 20077 141 202.25 246 0 16.27499961853 2181.628464533 29504.556224825
8054	1306333 8383 13074 20077 140.75 202.25 247 237.7001953125 483.14999389648 111474.75271606 51341234.731951
8053	1314716 8370 13074 20077 140.75 202.25 247 184.17810058594 483.14999389648 103486.15853882 45293801.951366
vector 8165  IntersectionExampleScenario.node[46].veinsmobility  posx  ETV
vector 8166  IntersectionExampleScenario.node[46].veinsmobility  posy  ETV
vector 8167  IntersectionExampleScenario.node[46].veinsmobility  speed  ETV
vector 8168  IntersectionExampleScenario.node[46].veinsmobility  acceleration  ETV
vector 8169  IntersectionExampleScenario.node[46].veinsmobility  co2emission  ETV
8078	1323482 6960 13805 20377 148 204.5 227 0.973 11.90022389248 594.53724591237 3078.8567812169
8077	1330442 7257 13805 20377 148 204.5 227 -3.8005900382996 2.5 39.869146347046 351.94269399289
8076	1337699 7454 13776 20377 147.75 204.5 228 0 16 2207.1577801295 28905.704433532
8075	1345153 7780 13747 20377 147.5 204.5 229 483.14999389648 733.10006713867 118848.28070068 62752728.266544
8074	1352933 7746 13747 20377 147.5 204.5 229 184.17810058594 486.87713623047 94393.87121582 40806054.92089
8113	1360679 5188 16048 20773 167.75 207.5 160 0.973 11.90022389248 541.73389716653 3323.4993234365
8112	1365867 4948 16048 20773 167.75 207.5 160 -3.6815757751465 2.5 39.869146347046 304.38132223676
8111	1370815 5174 16021 20773 167.5 207.5 161 5.6500000953674 16 2212.051774025 31437.359652185
8110	1375989 5503 15994 20773 167.25 207.5 162 483.14999389648 733.73684692383 86519.520507812 47163926.149818
8109	1381492 5490 15994 20773 167.25 207.5 162 184.17810058594 486.85000610352 64523.245117188 27460576.968427
vector 8172  IntersectionExampleScenario.node[47].veinsmobility  posx  ETV
vector 8173  IntersectionExampleScenario.node[47].veinsmobility  posy  ETV
vector 8174  IntersectionExampleScenario.node[47].veinsmobility  speed  ETV
vector 8175  IntersectionExampleScenario.node[47].veinsmobility  acceleration  ETV
vector 8176  IntersectionExampleScenario.node[47].veinsmobility  co2emission  ETV
vector 8179  IntersectionExampleScenario.node[48].veinsmobility  posx  ETV
vector 8180  IntersectionExampleScenario.node[48].veinsmobility  posy  ETV
vector 8181  IntersectionExampleScenario.node[48].veinsmobility  speed  ETV
vector 8182  IntersectionExampleScenario.node[48].veinsmobility  acceleration  ETV
vector 8183  IntersectionExampleScenario.node[48].veinsmobility  co2emission  ETV
vector 8186  IntersectionExampleScenario.node[49].veinsmobility  posx  ETV
vector 8187  IntersectionExampleScenario.node[49].veinsmobility  posy  ETV
vector 8188  IntersectionExampleScenario.node[49].veinsmobility  speed  ETV
vector 8189  IntersectionExampleScenario.node[49].veinsmobility  acceleration  ETV
vector 8190  IntersectionExampleScenario.node[49].veinsmobility  co2emission  ETV
vector 8193  IntersectionExampleScenario.node[50].veinsmobility  posx  ETV
vector 8194  IntersectionExampleScenario.node[50].veinsmobility  posy  ETV
vector 8200  IntersectionExampleScenario.node[51].veinsmobility  posx  ETV
vector 8201  IntersectionExampleScenario.node[51].veinsmobility  posy  ETV
vector 8195  IntersectionExampleScenario.node[50].veinsmobility  speed  ETV
vector 8196  IntersectionExampleScenario.node[50].veinsmobility  acceleration  ETV
vector 8197  IntersectionExampleScenario.node[50].veinsmobility  co2emission  ETV
vector 8202  IntersectionExampleScenario.node[51].veinsmobility  speed  ETV
vector 8203  IntersectionExampleScenario.node[51].veinsmobility  acceleration  ETV
vector 8204  IntersectionExampleScenario.node[51].veinsmobility  co2emission  ETV
8120	1388962 5322 17403 22603 180.25 220.25 161 0.973 11.36141391502 499.34038570949 2614.2275838502
8119	1394284 4662 17403 22603 180.25 220.25 161 -3.4165782928467 2.5 37.492597579956 268.68030164389
8118	1398946 5186 17374 22603 180 220.25 162 5.6500000953674 15.25 2177.7739691734 30562.39110604
8117	1404132 5536 17344 22603 179.75 220.25 163 238.38116455078 483.14999389648 70553.452911377 31459532.758469
8116	1409668 5520 17344 22603 179.75 220.25 163 184.17810058594 483.20883178711 64791.694152832 27510452.537655
vector 8207  IntersectionExampleScenario.node[52].veinsmobility  posx  ETV
vector 8208  IntersectionExampleScenario.node[52].veinsmobility  posy  ETV
vector 8214  IntersectionExampleScenario.node[53].veinsmobility  posx  ETV
vector 8215  IntersectionExampleScenario.node[53].veinsmobility  posy  ETV
vector 8209  IntersectionExampleScenario.node[52].veinsmobility  speed  ETV
vector 8216  IntersectionExampleScenario.node[53].veinsmobility  speed  ETV
vector 8210  IntersectionExampleScenario.node[52].veinsmobility  acceleration  ETV
vector 8211  IntersectionExampleScenario.node[52].veinsmobility  co2emission  ETV
vector 8217  IntersectionExampleScenario.node[53].veinsmobility  acceleration  ETV
vector 8218  IntersectionExampleScenario.node[53].veinsmobility  co2emission  ETV
vector 8221  IntersectionExampleScenario.node[54].veinsmobility  posx  ETV
vector 8222  IntersectionExampleScenario.node[54].veinsmobility  posy  ETV
vector 8223  IntersectionExampleScenario.node[54].veinsmobility  speed  ETV
vector 8224  IntersectionExampleScenario.node[54].veinsmobility  acceleration  ETV
vector 8225  IntersectionExampleScenario.node[54].veinsmobility  co2emission  ETV
vector 8228  IntersectionExampleScenario.node[55].veinsmobility  posx  ETV
vector 8229  IntersectionExampleScenario.node[55].veinsmobility  posy  ETV
vector 8230  IntersectionExampleScenario.node[55].veinsmobility  speed  ETV
vector 8231  IntersectionExampleScenario.node[55].veinsmobility  acceleration  ETV
vector 8232  IntersectionExampleScenario.node[55].veinsmobility  co2emission  ETV
vector 8235  IntersectionExampleScenario.node[56].veinsmobility  posx  ETV
vector 8236  IntersectionExampleScenario.node[56].veinsmobility  posy  ETV
vector 8237  IntersectionExampleScenario.node[56].veinsmobility  speed  ETV
vector 8238  IntersectionExampleScenario.node[56].veinsmobility  acceleration  ETV
vector 8239  IntersectionExampleScenario.node[56].veinsmobility  co2emission  ETV
8029	1417168 12657 9862 24390 115.25 231.5 466 0.973 11.36141391502 816.02640770487 3022.0730830374
8028	1429825 11097 9862 24390 115.25 231.5 466 -6.7711477279663 4 36.98334312439 450.59403005823
8027	1440922 11408 9829 24390 115 231.5 467 0 15.25 2175.7520129681 29985.058215833
8026	1452330 15898 9796 24390 114.75 231.5 468 486.63604736328 785.82187652588 245426.93375397 131050993.71666
8025	1468228 15843 9796 24390 114.75 231.5 468 237.36993408203 483.14999389648 217790.34875488 102564487.6767
vector 8242  IntersectionExampleScenario.node[57].veinsmobility  posx  ETV
vector 8243  IntersectionExampleScenario.node[57].veinsmobility  posy  ETV
vector 8244  IntersectionExampleScenario.node[57].veinsmobility  speed  ETV
vector 8245  IntersectionExampleScenario.node[57].veinsmobility  acceleration  ETV
vector 8246  IntersectionExampleScenario.node[57].veinsmobility  co2emission  ETV
8043	1484467 11974 11784 24744 129.5 233.5 417 0.97223939240464 11.648172402475 775.16219827416 3080.6541946139
8042	1496441 11934 11784 24744 129.5 233.5 417 -3.8517127037048 2.5 38.680875778198 329.36102921588
8041	1508375 11837 11751 24744 129.25 233.5 418 0 15.64999961853 2176.9216461387 28726.175582409
8040	1520212 14223 11718 24744 129 233.5 419 486.85000610352 785.82187652588 223091.08319855 120961209.89614
8039	1534435 14230 11718 24744 129 233.5 419 238.65472412109 483.14999389648 194405.7989502 91349668.032226
8064	1548665 10827 13493 25239 145 236.25 366 0.973 11.200708441096 708.02791502626 2804.8971034274
8063	1559492 10846 13493 25239 145 236.25 366 -3.7557451725006 2.5 35.964826583862 317.12802689039
8062	1570338 10940 13468 25239 144.75 236.25 367 0 15.02499961853 2213.010242396 28271.258826968
8061	1581278 12487 13443 25239 144.5 236.25 368 483.12426757812 785.82187652588 198656.98709869 109370344.85236
8060	1593765 12502 13443 25239 144.5 236.25 368 483.14999389648 734.6570892334 186633.40934753 95921938.605592
8071	1606267 11230 13747 25644 147.5 238.5 365 0.973 11.36141391502 752.31255643563 3092.8980035611
8070	1617497 11075 13747 25644 147.5 238.5 365 -4.5 2.5 38.341367721558 448.44477394969
8069	1628572 11371 13720 25644 147.25 238.5 366 0 15.25 2248.1835664185 29261.554882469
8068	1639943 12453 13693 25644 147 238.5 367 486.85000610352 801.41563415527 200899.11244202 112276184.92022
8067	1652396 12473 13693 25644 147 238.5 367 236.34832763672 483.14999389648 169091.29101562 79070967.738485
8099	1664869 9758 15330 25824 161 239.5 315 0.973 12.099024792222 709.14676999256 3237.5177166943
8098	1674627 10310 15330 25824 161 239.5 315 -3.8323221206665 2.5 41.396924972534 360.98416509635
8097	1684937 10237 15301 25824 160.75 239.5 316 0 16.27499961853 2203.0386561612 29197.390504103
8096	1695174 10740 15272 25824 160.5 239.5 317 483.1403503418 785.82187652588 174443.61315155 97907830.64146
8095	1705914 10758 15272 25824 160.5 239.5 317 483.14999389648 731.5458984375 161131.24916077 83015750.391171
vector 8249  IntersectionExampleScenario.node[58].veinsmobility  posx  ETV
vector 8250  IntersectionExampleScenario.node[58].veinsmobility  posy  ETV
vector 8251  IntersectionExampleScenario.node[58].veinsmobility  speed  ETV
vector 8252  IntersectionExampleScenario.node[58].veinsmobility  acceleration  ETV
vector 8253  IntersectionExampleScenario.node[58].veinsmobility  co2emission  ETV
vector 8256  IntersectionExampleScenario.node[59].veinsmobility  posx  ETV
vector 8257  IntersectionExampleScenario.node[59].veinsmobility  posy  ETV
vector 8258  IntersectionExampleScenario.node[59].veinsmobility  speed  ETV
vector 8259  IntersectionExampleScenario.node[59].veinsmobility  acceleration  ETV
vector 8260  IntersectionExampleScenario.node[59].veinsmobility  co2emission  ETV
vector 8263  IntersectionExampleScenario.node[60].veinsmobility  posx  ETV
vector 8264  IntersectionExampleScenario.node[60].veinsmobility  posy  ETV
vector 8265  IntersectionExampleScenario.node[60].veinsmobility  speed  ETV
vector 8266  IntersectionExampleScenario.node[60].veinsmobility  acceleration  ETV
vector 8267  IntersectionExampleScenario.node[60].veinsmobility  co2emission  ETV
vector 8270  IntersectionExampleScenario.node[61].veinsmobility  posx  ETV
vector 8271  IntersectionExampleScenario.node[61].veinsmobility  posy  ETV
vector 8272  IntersectionExampleScenario.node[61].veinsmobility  speed  ETV
vector 8273  IntersectionExampleScenario.node[61].veinsmobility  acceleration  ETV
vector 8274  IntersectionExampleScenario.node[61].veinsmobility  co2emission  ETV
vector 8277  IntersectionExampleScenario.node[62].veinsmobility  posx  ETV
vector 8278  IntersectionExampleScenario.node[62].veinsmobility  posy  ETV
vector 8284  IntersectionExampleScenario.node[63].veinsmobility  posx  ETV
vector 8285  IntersectionExampleScenario.node[63].veinsmobility  posy  ETV
vector 8279  IntersectionExampleScenario.node[62].veinsmobility  speed  ETV
vector 8286  IntersectionExampleScenario.node[63].veinsmobility  speed  ETV
vector 8280  IntersectionExampleScenario.node[62].veinsmobility  acceleration  ETV
vector 8281  IntersectionExampleScenario.node[62].veinsmobility  co2emission  ETV
vector 8287  IntersectionExampleScenario.node[63].veinsmobility  acceleration  ETV
vector 8288  IntersectionExampleScenario.node[63].veinsmobility  co2emission  ETV
vector 8291  IntersectionExampleScenario.node[64].veinsmobility  posx  ETV
vector 8292  IntersectionExampleScenario.node[64].veinsmobility  posy  ETV
vector 8293  IntersectionExampleScenario.node[64].veinsmobility  speed  ETV
vector 8294  IntersectionExampleScenario.node[64].veinsmobility  acceleration  ETV
vector 8295  IntersectionExampleScenario.node[64].veinsmobility  co2emission  ETV
vector 8298  IntersectionExampleScenario.node[65].veinsmobility  posx  ETV
vector 8299  IntersectionExampleScenario.node[65].veinsmobility  posy  ETV
8211	1719596 4974 22759 29209 221.25 258.5 150 0.96333723109819 12.099024792222 483.67957891873 2736.7556920032
8210	1724570 4642 22759 29209 221.25 258.5 150 -3.4488220214844 2.5 40.208654403687 215.41585690974
8209	1729212 4894 22718 29209 221 258.5 151 5.6500000953674 16.27499961853 2211.3263587952 33126.279331206
8208	1734106 5137 22677 29209 220.75 258.5 152 238.3134765625 785.82187652588 79462.497550964 45556961.624971
8207	1739243 5168 22677 29209 220.75 258.5 152 483.14999389648 483.14999389648 73438.799072266 35481955.32353
vector 8305  IntersectionExampleScenario.node[66].veinsmobility  posx  ETV
vector 8306  IntersectionExampleScenario.node[66].veinsmobility  posy  ETV
vector 8300  IntersectionExampleScenario.node[65].veinsmobility  speed  ETV
vector 8301  IntersectionExampleScenario.node[65].veinsmobility  acceleration  ETV
vector 8302  IntersectionExampleScenario.node[65].veinsmobility  co2emission  ETV
vector 8307  IntersectionExampleScenario.node[66].veinsmobility  speed  ETV
vector 8308  IntersectionExampleScenario.node[66].veinsmobility  acceleration  ETV
vector 8309  IntersectionExampleScenario.node[66].veinsmobility  co2emission  ETV
vector 8312  IntersectionExampleScenario.node[67].veinsmobility  posx  ETV
vector 8313  IntersectionExampleScenario.node[67].veinsmobility  posy  ETV
vector 8314  IntersectionExampleScenario.node[67].veinsmobility  speed  ETV
8050	1745280 13786 12332 29899 134 262.25 514 0.973 11.648172402475 877.05595261113 3234.3142072502
8049	1759066 12039 12332 29899 134 262.25 514 -7.7750473022461 4 38.511121749878 476.5267975717
8048	1771105 12362 12301 29899 133.75 262.25 515 0 15.64999961853 2201.8212580681 31157.430440079
8047	1783467 17539 12270 29899 133.5 262.25 516 236.75640869141 486.85000610352 242825.6479187 115533295.32976
8046	1801006 17532 12270 29899 133.5 262.25 516 483.14999389648 785.82187652588 268899.90512848 142495552.41008
vector 8315  IntersectionExampleScenario.node[67].veinsmobility  acceleration  ETV
vector 8316  IntersectionExampleScenario.node[67].veinsmobility  co2emission  ETV
8085	1818705 13017 13867 30170 148.5 263.75 462 0.973 11.200708441096 802.33097285841 2899.8480803858
8084	1831722 12700 13867 30170 148.5 263.75 462 -3.712042093277 2.5 36.134572982788 327.36437391695
8083	1844422 12636 13836 30170 148.25 263.75 463 0 15.02499961853 2209.6812462825 28700.976141531
8082	1857058 15776 13805 30170 148 263.75 464 486.85000610352 486.85000610352 225898.40283203 109978638.79755
8081	1872834 15531 13805 30170 148 263.75 464 237.97406005859 785.82187652588 237480.3499527 125810373.57333
vector 8319  IntersectionExampleScenario.node[68].veinsmobility  posx  ETV
vector 8320  IntersectionExampleScenario.node[68].veinsmobility  posy  ETV
vector 8321  IntersectionExampleScenario.node[68].veinsmobility  speed  ETV
vector 8322  IntersectionExampleScenario.node[68].veinsmobility  acceleration  ETV
vector 8323  IntersectionExampleScenario.node[68].veinsmobility  co2emission  ETV
8092	1888761 12243 15218 30581 160 266 425 0.973 11.450879080643 775.21514692711 2989.2517657605
8091	1901004 12043 15218 30581 160 266 425 -3.9493308067322 2.5 37.492597579956 327.25199065524
8090	1913047 12157 15191 30581 159.75 266 426 0 15.375 2211.4637987288 28622.487158132
8089	1925204 14498 15164 30581 159.5 266 427 236.19299316406 486.85000610352 199321.03866577 94300651.598819
8088	1939702 14494 15164 30581 159.5 266 427 483.14999389648 785.82187652588 228800.20139313 124749935.76784
vector 8326  IntersectionExampleScenario.node[69].veinsmobility  posx  ETV
vector 8327  IntersectionExampleScenario.node[69].veinsmobility  posy  ETV
vector 8328  IntersectionExampleScenario.node[69].veinsmobility  speed  ETV
8127	1954425 10065 17726 30771 183 267 337 0.973 12.099024792222 713.30710025996 3136.8437013586
8126	1964490 10415 17726 30771 183 267 337 -3.9367535114288 2.5000019073486 40.038900375366 342.61464398783
8125	1974905 10377 17695 30771 182.75 267 338 0 16.27499961853 2219.1372357951 29916.599563913
8124	1985282 11525 17664 30771 182.5 267 339 486.85000610352 486.85000610352 165042.15206909 80350772.742175
8123	1996807 11488 17664 30771 182.5 267 339 236.40899658203 785.82187652588 176785.82752228 96281404.406668
vector 8333  IntersectionExampleScenario.node[70].veinsmobility  posx  ETV
vector 8334  IntersectionExampleScenario.node[70].veinsmobility  posy  ETV
vector 8329  IntersectionExampleScenario.node[69].veinsmobility  acceleration  ETV
vector 8330  IntersectionExampleScenario.node[69].veinsmobility  co2emission  ETV
vector 8335  IntersectionExampleScenario.node[70].veinsmobility  speed  ETV
vector 8336  IntersectionExampleScenario.node[70].veinsmobility  acceleration  ETV
vector 8337  IntersectionExampleScenario.node[70].veinsmobility  co2emission  ETV
8134	2008858 10402 18125 31381 186.25 270 336 0.973 11.810082123732 736.4955639956 3366.7339530872
8133	2019260 10826 18125 31381 186.25 270 336 -4.5 2.5 39.869146347046 468.50553011525
8132	2030086 10689 18095 31381 186 270 337 0 15.875 2223.0796943773 29241.301415699
8131	2040775 11483 18064 31381 185.75 270 338 486.85000610352 731.46083068848 172451.43899536 89083977.351488
8130	2052258 11452 18064 31381 185.75 270 338 486.85000610352 797.07032012939 186576.12380981 105100535.48813
8148	2063710 10026 18885 31942 192.75 272.75 321 0.973 11.200708441096 665.3850281456 2877.2240253595
8147	2073736 10527 18885 31942 192.75 272.75 321 -4.6642761230469 2.5000019073486 35.455564498901 356.63113696033
8146	2084263 10572 18856 31942 192.5 272.75 322 0 15.02499961853 2221.5806806702 28111.315018331
8145	2094835 10984 18827 31942 192.25 272.75 323 486.85000610352 486.85000610352 157252.55197144 76558405.887087
8144	2105819 10952 18827 31942 192.25 272.75 323 235.83721923828 785.82187652588 170285.91292572 94128576.090733
8176	2116771 7825 20876 32247 208.25 274.25 265 0.973 12.099024792222 682.22836799439 3604.7015772772
8175	2124596 7831 20876 32247 208.25 274.25 265 -3.8607654571533 2.5 41.566686630249 499.46486909411
8174	2132427 8012 20841 32247 208 274.25 266 0 16.27499961853 2182.2176927887 28814.004976423
8173	2140439 9074 20806 32247 207.75 274.25 267 486.85000610352 732.32000732422 137747.17311096 72101594.211284
8172	2149513 9056 20806 32247 207.75 274.25 267 486.85000610352 785.82187652588 149759.50748444 85779489.054515
8183	2158569 7475 21650 32681 213.75 276.5 252 0.97223939240464 11.648172402475 625.41546345716 3154.086233008
8182	2166044 7494 21650 32681 213.75 276.5 252 -3.8552825450897 2.5 38.680875778198 394.69131781119
8181	2173538 7735 21613 32681 213.5 276.5 253 0 15.64999961853 2207.0631042346 28683.105488395
8180	2181273 8633 21576 32681 213.25 276.5 254 236.72570800781 486.85000610352 115285.34658813 53444472.58836
8179	2189906 8616 21576 32681 213.25 276.5 254 483.14999389648 785.82187652588 143165.47388458 82512568.657698
8197	2198522 7443 22337 33093 218.5 278.75 242 0.973 11.810082123732 642.19117197043 3377.4512494194
8196	2205965 7782 22337 33093 218.5 278.75 242 -4.5 2.5 39.869146347046 422.72794492914
8195	2213747 7917 22298 33093 218.25 278.75 243 0 15.875 2189.1849729305 28138.177698833
8194	2221664 8288 22261 33093 218 278.75 244 486.85000610352 734.95091247559 126906.7568512 67072305.092444
8193	2229952 8278 22261 33093 218 278.75 244 486.85000610352 785.82187652588 138467.37673187 80350799.312811
vector 8340  IntersectionExampleScenario.node[71].veinsmobility  posx  ETV
vector 8341  IntersectionExampleScenario.node[71].veinsmobility  posy  ETV
vector 8342  IntersectionExampleScenario.node[71].veinsmobility  speed  ETV
vector 8343  IntersectionExampleScenario.node[71].veinsmobility  acceleration  ETV
vector 8344  IntersectionExampleScenario.node[71].veinsmobility  co2emission  ETV
8288	2238626 4813 28177 34757 252.75 289 146 0.96997852711604 12.553400930962 500.07528890332 3042.5637318576
8287	2243439 4536 28177 34757 252.75 289 146 -3.3901748657227 2.5 42.585195541382 233.38480792026
8286	2247975 4739 28130 34757 252.5 289 147 5.6500000953674 16.89999961853 2210.9946155548 34146.538812555
8285	2252714 5032 28083 34757 252.25 289 148 486.85000610352 486.85000610352 72053.80090332 35079393.409563
8284	2257746 5011 28083 34757 252.25 289 148 238.52563476562 785.82187652588 77508.962394714 44501060.880312
8106	2262757 13686 15760 35221 165 292.25 510 0.973 11.648172402475 880.05947637898 3311.9074529
8105	2276443 11871 15760 35221 165 292.25 510 -8.8859510421753 4 38.341367721558 510.6585752883
8104	2288314 12249 15733 35221 164.75 292.25 511 0 15.64999961853 2176.1722393036 30526.98560802
8103	2300563 17380 15706 35221 164.5 292.25 512 184.17810058594 483.36395263672 229457.61361694 105180834.78946
8102	2317943 17339 15706 35221 164.5 292.25 512 486.85000610352 733.04777526855 257448.95094299 130660697.86769
8141	2335282 11973 18303 35288 187.75 292.75 421 0.973 12.099024792222 802.43586238362 3417.9506197508
8140	2347255 11838 18303 35288 187.75 292.75 421 -3.9311637878418 2.5 41.057416915894 365.46414468233
8139	2359093 11761 18272 35288 187.5 292.75 422 0 16.27499961853 2218.771526265 30627.439359918
8138	2370854 14336 18241 35288 187.25 292.75 423 184.17810058594 733.75981140137 193437.51376343 92529359.983184
8137	2385190 14384 18241 35288 187.25 292.75 423 486.85000610352 486.85000610352 205937.55258179 100260698.73139
vector 8347  IntersectionExampleScenario.node[72].veinsmobility  posx  ETV
vector 8348  IntersectionExampleScenario.node[72].veinsmobility  posy  ETV
vector 8349  IntersectionExampleScenario.node[72].veinsmobility  speed  ETV
vector 8350  IntersectionExampleScenario.node[72].veinsmobility  acceleration  ETV
vector 8351  IntersectionExampleScenario.node[72].veinsmobility  co2emission  ETV
8190	2399970 9575 22046 35687 216.5 295.75 318 0.973 12.099024792222 695.59062545831 3202.0871215717
8189	2409545 9813 22046 35687 216.5 295.75 318 -3.975298166275 2.5000004768372 40.038900375366 360.59567466097
8188	2419358 9853 22009 35687 216.25 295.75 319 0 16.27499961853 2180.1416496262 29016.400539296
8187	2429211 10835 21972 35687 216 295.75 320 184.17810058594 483.20138549805 136388.45532227 60130639.24391
8186	2440046 10871 21972 35687 216 295.75 320 486.85000610352 731.63507080078 163688.31442261 84817600.536649
8225	2450917 8815 23492 35786 226 296.5 283 0.973 12.099024792222 673.80547982007 3321.9113589018
8224	2459732 9059 23492 35786 226 296.5 283 -3.9320638179779 2.5000009536743 41.736440658569 355.21871193788
8223	2468791 9357 23453 35786 225.75 296.5 284 0 16.27499961853 2221.2909179963 30062.810216127
8222	2478148 9633 23414 35786 225.5 296.5 285 184.17810058594 734.0001373291 127258.59109497 60866375.281052
8221	2487781 9690 23414 35786 225.5 296.5 285 486.85000610352 486.85000610352 138752.2517395 67551534.606253
vector 8354  IntersectionExampleScenario.node[73].veinsmobility  posx  ETV
vector 8355  IntersectionExampleScenario.node[73].veinsmobility  posy  ETV
vector 8356  IntersectionExampleScenario.node[73].veinsmobility  speed  ETV
vector 8357  IntersectionExampleScenario.node[73].veinsmobility  acceleration  ETV
vector 8358  IntersectionExampleScenario.node[73].veinsmobility  co2emission  ETV
8232	2497867 9237 23925 36399 228.75 301 290 0.973 11.36141391502 667.64434866883 3024.7930145677
8231	2507104 9508 23925 36399 228.75 301 290 -4.5 2.5 36.813589096069 481.02996629127
8230	2516612 9544 23884 36399 228.5 301 291 0 15.25 2239.1659557652 29025.287870166
8229	2526156 9894 23843 36399 228.25 301 292 169.95465087891 483.15045166016 120655.18444824 52028698.179587
8228	2536050 9920 23843 36399 228.25 301 292 486.85000610352 732.44004821777 150494.9932251 78687694.195983
8274	2545970 6209 27910 36469 251.25 301.5 202 0.973 12.099024792222 586.42833858299 3273.837208324
8273	2552179 6394 27910 36469 251.25 301.5 202 -2.0864105224609 2.5 40.887662887573 352.76081527608
8272	2558573 6656 27865 36469 251 301.5 203 1.343207359314 16.27499961853 2226.6631273031 30053.263735492
8271	2565229 6908 27820 36469 250.75 301.5 204 184.17810058594 735.05857849121 90367.848632812 44129860.410392
8270	2572137 6936 27820 36469 250.75 301.5 204 486.85000610352 486.85003662109 99317.40133667 48352677.491515
8281	2579073 6529 28177 36889 252.75 304.5 208 0.973 12.099024792222 623.33223279169 3417.8403508825
8280	2585602 6515 28177 36889 252.75 304.5 208 -4.5 2.5 40.038900375366 485.83940261108
8279	2592117 6778 28130 36889 252.5 304.5 209 2.1530501842499 16.27499961853 2260.0962686539 29761.331374649
8278	2598895 7100 28083 36889 252.25 304.5 210 163.88433837891 483.14999389648 83216.210388184 35055921.393336
8277	2605995 7130 28083 36889 252.25 304.5 210 486.85000610352 731.43823242188 110121.1734314 58728710.864885
8302	2613125 5916 29301 37098 259 306 189 0.973 11.648172402475 546.28653220517 2968.9975063814
8301	2619041 5895 29301 37098 259 306 189 -3.0698003768921 2.5 38.341367721558 331.92093849996
8300	2624936 6226 29254 37098 258.75 306 190 2.4321117401123 15.64999961853 2115.2585537434 27556.964897479
8299	2631162 6456 29209 37098 258.5 306 191 208.72430419922 732.84976196289 86244.832351685 42629792.812813
8298	2637618 6493 29209 37098 258.5 306 191 486.85000610352 486.85003662109 92988.351226807 45271379.392041
8295	2644111 6410 29120 37522 258 309.25 206 0.973 11.00486315618 569.02628901466 2811.1682791176
8294	2650521 6447 29120 37522 258 309.25 206 -3.3081436157227 2.5 35.964826583862 331.68310961664
8293	2656968 6771 29075 37522 257.75 309.25 207 2.7533161640167 14.872227668762 2236.5377118587 27220.950317007
8292	2663739 7059 29030 37522 257.5 309.25 208 177.62042236328 486.87869262695 82013.528717041 34449284.435557
8291	2670798 7068 29030 37522 257.5 309.25 208 235.25305175781 486.85000610352 92423.992584229 42175820.213486
vector 8361  IntersectionExampleScenario.node[74].veinsmobility  posx  ETV
vector 8362  IntersectionExampleScenario.node[74].veinsmobility  posy  ETV
vector 8363  IntersectionExampleScenario.node[74].veinsmobility  speed  ETV
vector 8364  IntersectionExampleScenario.node[74].veinsmobility  acceleration  ETV
vector 8365  IntersectionExampleScenario.node[74].veinsmobility  co2emission  ETV
vector 8368  IntersectionExampleScenario.node[75].veinsmobility  posx  ETV
vector 8369  IntersectionExampleScenario.node[75].veinsmobility  posy  ETV
vector 8370  IntersectionExampleScenario.node[75].veinsmobility  speed  ETV
8330	2678491 5525 30820 37806 267.25 311.5 178 0.973 11.648172402475 545.28772690471 3142.6592415304
8329	2684016 5379 30820 37806 267.25 311.5 178 -3.0266246795654 2.5 38.341367721558 317.53692708859
8328	2689395 5764 30771 37806 267 311.5 179 5.6500000953674 15.64999961853 2188.649166584 28453.002288352
8327	2695159 6088 30722 37806 266.75 311.5 180 184.17810058594 483.20620727539 71618.533782959 30266198.266326
8326	2701247 6115 30722 37806 266.75 311.5 180 486.85000610352 734.20347595215 95897.516937256 52068681.14643
vector 8371  IntersectionExampleScenario.node[75].veinsmobility  acceleration  ETV
vector 8372  IntersectionExampleScenario.node[75].veinsmobility  co2emission  ETV
vector 8375  IntersectionExampleScenario.node[76].veinsmobility  posx  ETV
vector 8376  IntersectionExampleScenario.node[76].veinsmobility  posy  ETV
vector 8377  IntersectionExampleScenario.node[76].veinsmobility  speed  ETV
vector 8378  IntersectionExampleScenario.node[76].veinsmobility  acceleration  ETV
vector 8379  IntersectionExampleScenario.node[76].veinsmobility  co2emission  ETV
vector 8382  IntersectionExampleScenario.node[77].veinsmobility  posx  ETV
vector 8383  IntersectionExampleScenario.node[77].veinsmobility  posy  ETV
vector 8384  IntersectionExampleScenario.node[77].veinsmobility  speed  ETV
vector 8385  IntersectionExampleScenario.node[77].veinsmobility  acceleration  ETV
vector 8386  IntersectionExampleScenario.node[77].veinsmobility  co2emission  ETV
vector 8389  IntersectionExampleScenario.node[78].veinsmobility  posx  ETV
vector 8390  IntersectionExampleScenario.node[78].veinsmobility  posy  ETV
vector 8391  IntersectionExampleScenario.node[78].veinsmobility  speed  ETV
vector 8392  IntersectionExampleScenario.node[78].veinsmobility  acceleration  ETV
vector 8393  IntersectionExampleScenario.node[78].veinsmobility  co2emission  ETV
8155	2708717 13715 19005 39029 193.75 321.5 512 0.973 12.099024792222 898.39070937022 3530.1350997574
8154	2722432 11962 19005 39029 193.75 321.5 512 -10.974514007568 4 40.887662887573 619.57153441519
8153	2734394 12198 18974 39029 193.5 321.5 513 0 16.27499961853 2186.545343399 32196.365445199
8152	2746592 17462 18943 39029 193.25 321.5 514 483.14999389648 734.23052978516 256492.14611816 129226545.25613
8151	2764054 17456 18943 39029 193.25 321.5 514 184.17810058594 486.85000610352 230961.69125366 106107792.05169
8162	2781510 13928 19846 39397 200.5 324.75 498 0.973 11.648172402475 852.82240333913 3173.4034130042
8161	2795438 13548 19846 39397 200.5 324.75 498 -3.7525906562805 2.5000019073486 38.341367721558 335.94040096122
8160	2808986 13506 19813 39397 200.25 324.75 499 0 15.64999961853 2202.507220353 29223.195241846
8159	2822492 16992 19780 39397 200 324.75 500 483.14999389648 732.36666870117 249935.19689941 126182793.05717
8158	2839484 16953 19780 39397 200 324.75 500 184.17810058594 487.00622558594 221273.47427368 100179492.07661
8169	2856437 14048 20278 39575 203.75 326.5 492 0.973 11.810082123732 874.01865071105 3367.0719888515
8168	2870485 13804 20278 39575 203.75 326.5 492 -4.5 2.5 40.548154830933 402.67031699359
8167	2884289 13739 20244 39575 203.5 326.5 493 0 15.875 2230.0253438447 29424.714213455
8166	2898028 16790 20209 39575 203.25 326.5 494 236.75201416016 483.14999389648 230744.90222168 108948771.36903
8165	2914818 16741 20209 39575 203.25 326.5 494 172.9296875 483.14999389648 214829.41638184 95770996.414242
vector 8396  IntersectionExampleScenario.node[79].veinsmobility  posx  ETV
vector 8397  IntersectionExampleScenario.node[79].veinsmobility  posy  ETV
vector 8398  IntersectionExampleScenario.node[79].veinsmobility  speed  ETV
vector 8403  IntersectionExampleScenario.node[80].veinsmobility  posx  ETV
vector 8404  IntersectionExampleScenario.node[80].veinsmobility  posy  ETV
vector 8399  IntersectionExampleScenario.node[79].veinsmobility  acceleration  ETV
vector 8400  IntersectionExampleScenario.node[79].veinsmobility  co2emission  ETV
vector 8405  IntersectionExampleScenario.node[80].veinsmobility  speed  ETV
vector 8406  IntersectionExampleScenario.node[80].veinsmobility  acceleration  ETV
vector 8407  IntersectionExampleScenario.node[80].veinsmobility  co2emission  ETV
8204	2932351 12806 22376 39841 218.75 329 442 0.973 11.200708441096 783.52624057161 2878.9053563669
8203	2945157 12692 22376 39841 218.75 329 442 -3.9565653800964 2.5 35.964826583862 314.90623291774
8202	2957849 12788 22337 39841 218.5 329 443 0 15.02499961853 2223.971984121 28434.666350596
8201	2970637 15096 22298 39841 218.25 329 444 483.14999389648 483.14999389648 214518.59729004 103644658.97137
8200	2985733 15036 22298 39841 218.25 329 444 184.17810058594 735.14805603027 199805.28825378 94241342.796446
8218	3000769 13156 22759 40066 221.25 331.25 441 0.973 11.810082123732 832.8095418596 3314.4314100338
8217	3013925 13185 22759 40066 221.25 331.25 441 -4.5 2.5 38.850629806519 443.42652882594
8216	3027110 13043 22718 40066 221 331.25 442 0 15.875 2245.610220572 29142.636397803
8215	3040153 15060 22677 40066 220.75 331.25 443 237.34985351562 483.14999389648 205943.92547607 96913330.805321
8214	3055213 15013 22677 40066 220.75 331.25 443 168.58435058594 483.25680541992 187693.15457153 81803119.109392
8239	3070226 12137 24175 40191 230.25 332.5 410 0.973 12.099024792222 782.23403201235 3383.282892577
8238	3082363 12540 24175 40191 230.25 332.5 410 -3.9135506153107 2.5 41.736440658569 349.56797339849
8237	3094903 12438 24132 40191 230 332.5 411 0 16.27499961853 2180.6066252384 28098.669198836
8236	3107341 14004 24089 40191 229.75 332.5 412 238.15344238281 483.14999389648 191355.60144043 89983829.976283
8235	3121345 13864 24089 40191 229.75 332.5 412 184.17810058594 483.14999389648 173269.3477478 74768344.379888
8253	3135209 10237 26976 40453 246 335.25 358 0.973 11.093806525473 699.75061023829 2786.0249301697
8252	3145446 10237 26976 40453 246 335.25 358 -4.8903465270996 2.5 34.77654838562 336.38905453825
8251	3155683 10232 26931 40453 245.75 335.25 359 0 14.875 2226.5585168079 27728.377019573
8250	3165915 12240 26886 40453 245.5 335.25 360 483.14999389648 483.14999389648 173933.99780273 84036209.976782
8249	3178155 12202 26886 40453 245.5 335.25 360 184.17810058594 735.53268432617 158053.59779358 73834592.826545
vector 8410  IntersectionExampleScenario.node[81].veinsmobility  posx  ETV
vector 8411  IntersectionExampleScenario.node[81].veinsmobility  posy  ETV
vector 8412  IntersectionExampleScenario.node[81].veinsmobility  speed  ETV
8309	3190586 9174 29348 40689 259.25 338 316 0.973 11.36141391502 693.66825304359 3154.823623748
8308	3199760 8969 29348 40689 259.25 338 316 -4.1106557846069 4 36.98334312439 430.54852072066
8307	3208729 9113 29301 40689 259 338 317 0 15.25 2185.4099885523 27236.810144673
8306	3217842 10803 29254 40689 258.75 338 318 236.12261962891 483.14999389648 145227.35400391 67482820.527404
8305	3228645 9771 29254 40689 258.75 338 318 184.17810058594 483.26113891602 130144.54360962 55096182.944713
vector 8413  IntersectionExampleScenario.node[81].veinsmobility  acceleration  ETV
vector 8414  IntersectionExampleScenario.node[81].veinsmobility  co2emission  ETV
vector 8417  IntersectionExampleScenario.node[82].veinsmobility  posx  ETV
vector 8418  IntersectionExampleScenario.node[82].veinsmobility  posy  ETV
vector 8419  IntersectionExampleScenario.node[82].veinsmobility  speed  ETV
vector 8420  IntersectionExampleScenario.node[82].veinsmobility  acceleration  ETV
vector 8421  IntersectionExampleScenario.node[82].veinsmobility  co2emission  ETV
8323	3238979 9517 30534 40962 265.75 341 302 0.973 11.093806525473 692.90319229022 2899.633901548
8322	3248496 9556 30534 40962 265.75 341 302 -5.2315368652344 2.5 38.511121749878 392.8514677372
8321	3258052 9655 30487 40962 265.5 341 303 0 15.306318283081 2290.2538027465 29967.606743351
8320	3267707 10336 30440 40962 265.25 341 304 483.14999389648 483.14999389648 146877.59814453 70963910.64706
8319	3278043 10302 30440 40962 265.25 341 304 167.30548095703 735.00178527832 129757.66571045 60043103.774663
vector 8424  IntersectionExampleScenario.node[83].veinsmobility  posx  ETV
vector 8425  IntersectionExampleScenario.node[83].veinsmobility  posy  ETV
8316	3288497 9215 29945 40984 262.5 341.25 316 0.973 10.756497587458 648.33446258488 2652.9253803764
8315	3297712 9137 29945 40984 262.5 341.25 316 -4.5 2.5 33.418523788452 340.65297619082
8314	3306849 9149 29899 40984 262.25 341.25 317 0 14.51681137085 2222.5590783805 26828.978288627
8313	3315998 10802 29852 40984 262 341.25 318 237.75579833984 483.14999389648 144840.79605103 67165874.017035
8312	3326800 10770 29852 40984 262 341.25 318 172.9296875 483.16632080078 128593.81469727 54059556.093684
vector 8431  IntersectionExampleScenario.node[84].veinsmobility  posx  ETV
vector 8432  IntersectionExampleScenario.node[84].veinsmobility  posy  ETV
vector 8426  IntersectionExampleScenario.node[83].veinsmobility  speed  ETV
vector 8427  IntersectionExampleScenario.node[83].veinsmobility  acceleration  ETV
vector 8428  IntersectionExampleScenario.node[83].veinsmobility  co2emission  ETV
vector 8433  IntersectionExampleScenario.node[84].veinsmobility  speed  ETV
vector 8434  IntersectionExampleScenario.node[84].veinsmobility  acceleration  ETV
vector 8435  IntersectionExampleScenario.node[84].veinsmobility  co2emission  ETV
8351	3338210 5959 35588 41132 295 342.75 192 0.973 12.099024792222 596.4906242699 3405.506605572
8350	3344169 5962 35588 41132 295 342.75 192 -2.9167137145996 2.5 41.227170944214 351.78290503188
8349	3350131 6251 35554 41132 294.75 342.75 193 4.3387417793274 16.27499961853 2211.9600334167 28661.266875111
8348	3356382 6593 35519 41132 294.5 342.75 194 483.14999389648 734.15934753418 101849.21856689 54485932.579208
8347	3362975 6559 35519 41132 294.5 342.75 194 184.17810058594 486.85000610352 77046.053771973 32376186.732611
vector 8438  IntersectionExampleScenario.node[85].veinsmobility  posx  ETV
vector 8439  IntersectionExampleScenario.node[85].veinsmobility  posy  ETV
vector 8440  IntersectionExampleScenario.node[85].veinsmobility  speed  ETV
vector 8445  IntersectionExampleScenario.node[86].veinsmobility  posx  ETV
vector 8446  IntersectionExampleScenario.node[86].veinsmobility  posy  ETV
vector 8441  IntersectionExampleScenario.node[85].veinsmobility  acceleration  ETV
vector 8442  IntersectionExampleScenario.node[85].veinsmobility  co2emission  ETV
vector 8447  IntersectionExampleScenario.node[86].veinsmobility  speed  ETV
vector 8448  IntersectionExampleScenario.node[86].veinsmobility  acceleration  ETV
vector 8449  IntersectionExampleScenario.node[86].veinsmobility  co2emission  ETV
8358	3370326 5786 36153 41389 299.25 345.25 185 0.973 11.648172402475 574.46019414644 3050.1365964705
8357	3376112 5921 36153 41389 299.25 345.25 185 -4.3991203308105 2.5 39.869146347046 358.00725219861
8356	3382033 6024 36118 41389 299 345.25 186 5.1420154571533 15.64999961853 2198.825357914 28378.088061221
8355	3388057 6344 36083 41389 298.75 345.25 187 237.60339355469 483.14999389648 82372.043487549 37242098.093451
8354	3394401 6337 36083 41389 298.75 345.25 187 179.81719970703 483.14999389648 74032.502075195 31128804.508414
vector 8452  IntersectionExampleScenario.node[87].veinsmobility  posx  ETV
vector 8453  IntersectionExampleScenario.node[87].veinsmobility  posy  ETV
vector 8454  IntersectionExampleScenario.node[87].veinsmobility  speed  ETV
vector 8459  IntersectionExampleScenario.node[88].veinsmobility  posx  ETV
vector 8460  IntersectionExampleScenario.node[88].veinsmobility  posy  ETV
vector 8455  IntersectionExampleScenario.node[87].veinsmobility  acceleration  ETV
vector 8456  IntersectionExampleScenario.node[87].veinsmobility  co2emission  ETV
vector 8461  IntersectionExampleScenario.node[88].veinsmobility  speed  ETV
vector 8462  IntersectionExampleScenario.node[88].veinsmobility  acceleration  ETV
vector 8463  IntersectionExampleScenario.node[88].veinsmobility  co2emission  ETV
vector 8466  IntersectionExampleScenario.node[89].veinsmobility  posx  ETV
vector 8467  IntersectionExampleScenario.node[89].veinsmobility  posy  ETV
vector 8468  IntersectionExampleScenario.node[89].veinsmobility  speed  ETV
vector 8469  IntersectionExampleScenario.node[89].veinsmobility  acceleration  ETV
vector 8470  IntersectionExampleScenario.node[89].veinsmobility  co2emission  ETV
vector 8473  IntersectionExampleScenario.node[90].veinsmobility  posx  ETV
vector 8474  IntersectionExampleScenario.node[90].veinsmobility  posy  ETV
vector 8480  IntersectionExampleScenario.node[91].veinsmobility  posx  ETV
vector 8481  IntersectionExampleScenario.node[91].veinsmobility  posy  ETV
vector 8475  IntersectionExampleScenario.node[90].veinsmobility  speed  ETV
8365	3402307 5129 37680 41949 310.5 350 159 0.973 11.810082123732 517.76869004352 3088.8221264792
8364	3407436 5056 37680 41949 310.5 350 159 -3.2824745178223 2.5 38.850629806519 295.13468714507
8363	3412492 5104 37648 41949 310.25 350 160 5.6500000953674 15.875 2180.8675079346 31127.385888756
8362	3417596 5467 37615 41949 310 350 161 237.46331787109 483.14999389648 69703.835693359 31091062.34954
8361	3423063 5444 37615 41949 310 350 161 184.17810058594 483.16860961914 63998.319030762 27177574.504722
vector 8487  IntersectionExampleScenario.node[92].veinsmobility  posx  ETV
vector 8488  IntersectionExampleScenario.node[92].veinsmobility  posy  ETV
vector 8476  IntersectionExampleScenario.node[90].veinsmobility  acceleration  ETV
vector 8477  IntersectionExampleScenario.node[90].veinsmobility  co2emission  ETV
vector 8482  IntersectionExampleScenario.node[91].veinsmobility  speed  ETV
vector 8483  IntersectionExampleScenario.node[91].veinsmobility  acceleration  ETV
vector 8484  IntersectionExampleScenario.node[91].veinsmobility  co2emission  ETV
vector 8489  IntersectionExampleScenario.node[92].veinsmobility  speed  ETV
vector 8490  IntersectionExampleScenario.node[92].veinsmobility  acceleration  ETV
vector 8491  IntersectionExampleScenario.node[92].veinsmobility  co2emission  ETV
8246	3429314 13073 24609 42391 232.75 353 482 0.973 11.200708441096 821.2383390446 2904.6061987063
8245	3442387 11387 24609 42391 232.75 353 482 -7.2424693107605 4 35.455564498901 448.16378211868
8244	3453774 11789 24564 42391 232.5 353 483 0 15.02499961853 2181.8535255194 29453.276232969
8243	3465563 16445 24519 42391 232.25 353 484 486.63604736328 785.82187652588 253567.48067474 135221949.84702
8242	3482008 16392 24519 42391 232.25 353 484 235.55383300781 483.14999389648 225185.44894409 106041373.32516
8260	3498400 12348 27155 42650 247 354.75 432 0.97223939240464 11.648172402475 790.44068906999 3019.7068161437
8259	3510748 12342 27155 42650 247 354.75 432 -3.8517127037048 2.5 38.680875778198 323.75049123805
8258	3523090 12162 27110 42650 246.75 354.75 433 0 15.64999961853 2189.0510750022 28864.488631207
8257	3535252 14735 27065 42650 246.5 354.75 434 486.85000610352 785.82187652588 230645.10569 124765727.60585
8256	3549987 14745 27065 42650 246.5 354.75 434 235.681640625 483.14999389648 201447.83627319 94701314.673403
vector 8494  IntersectionExampleScenario.node[93].veinsmobility  posx  ETV
vector 8495  IntersectionExampleScenario.node[93].veinsmobility  posy  ETV
vector 8496  IntersectionExampleScenario.node[93].veinsmobility  speed  ETV
vector 8497  IntersectionExampleScenario.node[93].veinsmobility  acceleration  ETV
vector 8498  IntersectionExampleScenario.node[93].veinsmobility  co2emission  ETV
8267	3565128 12907 27334 43034 248 357.25 438 0.973 11.476553705853 813.1402348627 3105.5806885873
8266	3578035 13014 27334 43034 248 357.25 438 -4.5 2.5 38.001859664917 417.92708219771
8265	3591049 12891 27289 43034 247.75 357.25 439 0 15.410838127136 2292.4840225624 29524.805911725
8264	3603940 14818 27244 43034 247.5 357.25 440 483.14999389648 807.99687957764 237856.18943787 131220271.35848
8263	3618758 14954 27244 43034 247.5 357.25 440 483.14999389648 731.85597229004 220955.03147888 112184337.45915
8337	3633712 10839 30922 43307 267.75 359 366 0.973 11.810082123732 761.08068793838 3379.813457485
8336	3644551 10989 30922 43307 267.75 359 366 -4.3466529846191 2.5 41.396924972534 397.02670757099
8335	3655540 10988 30871 43307 267.5 359 367 0 16.082706451416 2181.4142027069 29103.244998198
8334	3666528 12418 30820 43307 267.25 359 368 486.85000610352 785.82187652588 199945.56121063 110608068.51858
8333	3678946 12509 30820 43307 267.25 359 368 238.02893066406 483.14999389648 170041.76953125 79667945.437848
8379	3691455 5921 38220 43737 314.75 361.75 189 0.973 11.810082123732 554.13004605692 3018.8452759323
8378	3697376 6038 38220 43737 314.75 361.75 189 -2.611515045166 2.5 38.511121749878 324.22257841061
8377	3703414 6112 38187 43737 314.5 361.75 190 3.4309701919556 15.875 2177.196590662 28327.473239016
8376	3709526 6479 38154 43737 314.25 361.75 191 486.85000610352 785.82187652588 108481.91391754 63387075.840148
8375	3716005 6493 38154 43737 314.25 361.75 191 238.76318359375 483.14999389648 84244.178863525 38124540.094473
vector 8501  IntersectionExampleScenario.node[94].veinsmobility  posx  ETV
vector 8502  IntersectionExampleScenario.node[94].veinsmobility  posy  ETV
vector 8508  IntersectionExampleScenario.node[95].veinsmobility  posx  ETV
vector 8509  IntersectionExampleScenario.node[95].veinsmobility  posy  ETV
vector 8503  IntersectionExampleScenario.node[94].veinsmobility  speed  ETV
vector 8510  IntersectionExampleScenario.node[95].veinsmobility  speed  ETV
vector 8504  IntersectionExampleScenario.node[94].veinsmobility  acceleration  ETV
vector 8505  IntersectionExampleScenario.node[94].veinsmobility  co2emission  ETV
vector 8511  IntersectionExampleScenario.node[95].veinsmobility  acceleration  ETV
vector 8512  IntersectionExampleScenario.node[95].veinsmobility  co2emission  ETV
vector 8515  IntersectionExampleScenario.node[96].veinsmobility  posx  ETV
vector 8516  IntersectionExampleScenario.node[96].veinsmobility  posy  ETV
vector 8517  IntersectionExampleScenario.node[96].veinsmobility  speed  ETV
vector 8522  IntersectionExampleScenario.node[97].veinsmobility  posx  ETV
vector 8523  IntersectionExampleScenario.node[97].veinsmobility  posy  ETV
vector 8518  IntersectionExampleScenario.node[96].veinsmobility  acceleration  ETV
vector 8519  IntersectionExampleScenario.node[96].veinsmobility  co2emission  ETV
vector 8524  IntersectionExampleScenario.node[97].veinsmobility  speed  ETV
vector 8525  IntersectionExampleScenario.node[97].veinsmobility  acceleration  ETV
vector 8526  IntersectionExampleScenario.node[97].veinsmobility  co2emission  ETV
vector 8529  IntersectionExampleScenario.node[98].veinsmobility  posx  ETV
vector 8530  IntersectionExampleScenario.node[98].veinsmobility  posy  ETV
vector 8531  IntersectionExampleScenario.node[98].veinsmobility  speed  ETV
vector 8532  IntersectionExampleScenario.node[98].veinsmobility  acceleration  ETV
vector 8533  IntersectionExampleScenario.node[98].veinsmobility  co2emission  ETV
vector 8536  IntersectionExampleScenario.node[99].veinsmobility  posx  ETV
vector 8537  IntersectionExampleScenario.node[99].veinsmobility  posy  ETV
vector 8538  IntersectionExampleScenario.node[99].veinsmobility  speed  ETV
[...]
11443	26748815 7215 268422 279470 1748 1798.75 204 3.0371170043945 15.667804718018 2175.6819884777 27194.075940536
11442	26756030 7575 268375 279470 1747.75 1798.75 205 238.98699951172 483.14999389648 91171.352142334 41520105.345733
11441	26763605 7558 268375 279470 1747.75 1798.75 205 184.17810058594 483.14999389648 81090.503723145 33838634.095952
vector 11619  IntersectionExampleScenario.node[539].veinsmobility  acceleration  ETV
vector 11620  IntersectionExampleScenario.node[539].veinsmobility  co2emission  ETV
11291	26771334 13275 257117 279766 1688.25 1800 448 0.973 12.553400930962 831.86828911873 3608.1712264235
11290	26784609 12119 257117 279766 1688.25 1800 448 -8.9583835601807 4 42.75498008728 529.36835629938
11289	26796728 12120 257068 279766 1688 1800 449 0 16.89999961853 1989.6376228333 29499.879521016
11288	26808848 16614 257019 279766 1687.75 1800 450 292.36267089844 785.82187652588 231147.47568512 121897241.16956
11287	26825462 16649 257019 279766 1687.75 1800 450 483.14999389648 483.14999389648 217417.49725342 105045262.47098
11305	26842111 12952 258550 279766 1695.75 1800 418 0.973 12.099024792222 766.1768962032 3299.2397485949
11304	26855063 12898 258550 279766 1695.75 1800 418 -3.9584517478943 2.5 40.717947006226 361.76735102956
11303	26867961 12631 258499 279766 1695.5 1800 419 0 16.27499961853 1851.2273768755 24419.953937971
11302	26880592 15505 258448 279766 1695.25 1800 420 486.85000610352 785.82187652588 223755.10779572 121328597.63648
11301	26896097 15531 258448 279766 1695.25 1800 420 320.20825195312 483.14999389648 199376.52487183 94995338.94367
11333	26911628 10152 261881 279766 1712.75 1800 350 0.973 11.200708441096 512.60585011739 1568.4073943917
11332	26921780 9014 261881 279766 1712.75 1800 350 -8.4870567321777 2.5 -22.60000038147 321.63853871578
11331	26930794 9303 261836 279766 1712.5 1800 351 0 15.02499961853 1146.2679541111 15799.94772419
11330	26940097 13024 261791 279766 1712.25 1800 352 486.85000610352 486.85000610352 171371.20214844 83432070.811934
11329	26953121 13013 261791 279766 1712.25 1800 352 498.39999389648 785.82187652588 188443.17165375 103051275.66071
11361	26966134 10636 262676 279766 1717 1800 333 0.973 12.099024792222 677.04051551916 3195.6339570764
11360	26976770 10765 262676 279766 1717 1800 333 -3.8845813274384 2.5000009536743 41.058225631714 358.17203469655
11359	26987535 10705 262627 279766 1716.75 1800 334 0 16.27499961853 1735.2227173289 22436.255031261
11358	26998240 12370 262578 279766 1716.5 1800 335 483.14999389648 785.82187652588 182241.6550827 101097307.41748
11357	27010610 12380 262578 279766 1716.5 1800 335 483.14999389648 614.45747375488 164182.45906067 80649546.898349
11396	27022990 8755 265940 279766 1734.25 1800 264 0.973 11.20638594352 571.74780889167 2680.4935306432
11395	27031745 9298 265940 279766 1734.25 1800 264 -3.7202568054199 2.5 37.516550064087 320.50084505626
11394	27041043 9133 265895 279766 1734 1800 265 0 15.35924911499 1590.4698112486 19324.546601355
11393	27050176 9823 265850 279766 1733.75 1800 266 483.11999511719 785.82187652588 148477.55742645 84676512.939047
11392	27059999 9835 265850 279766 1733.75 1800 266 483.14999389648 578.75479125977 129853.60458374 63467462.008975
11403	27069834 8096 266124 279766 1735.25 1800 260 0.973 12.099024792222 431.52384328956 1709.6420577147
11402	27077930 8600 266124 279766 1735.25 1800 260 -3.8329796791077 2.5 -22.60000038147 206.08065912589
11401	27086530 8463 266077 279766 1735 1800 261 0 16.27499961853 1122.9530995814 14416.288340725
11400	27094993 9693 266030 279766 1734.75 1800 262 486.85000610352 486.85000610352 127554.70159912 62100007.252064
11399	27104686 9681 266030 279766 1734.75 1800 262 504.79840087891 785.82187652588 144944.37366486 82004730.349647
11410	27114367 8052 266625 279766 1738 1800 249 0.973 12.099024792222 427.17885388186 1712.1619630063
11409	27122419 8851 266625 279766 1738 1800 249 -4.5 2.5 -22.60000038147 259.46998657977
11408	27131270 8664 266579 279766 1737.75 1800 250 0 16.27499961853 1153.6848152382 14297.043426199
11407	27139934 9286 266532 279766 1737.5 1800 251 486.85000610352 486.85000610352 122199.35153198 59492755.039191
11406	27149220 9249 266532 279766 1737.5 1800 251 511.19683837891 800.04531860352 142195.40190887 82444015.291044
11417	27158469 8077 267077 279766 1740.5 1800 239 0.973 11.648172402475 421.87550706639 1633.9054610399
11416	27166546 8849 267077 279766 1740.5 1800 239 -4.5 2.5 -22.60000038147 314.83291176224
11415	27175395 8675 267032 279766 1740.25 1800 240 0 15.64999961853 1163.6267568124 14563.150029203
11414	27184070 8915 266986 279766 1740 1800 241 486.85000610352 486.85000610352 117330.85147095 57122525.754761
11413	27192985 8891 266986 279766 1740 1800 241 517.59539794922 808.52735137939 138673.56874847 81706661.47072
11424	27201876 7853 267216 279766 1741.25 1800 236 0.973 11.810082123732 560.61275326404 3027.727686167
11423	27209729 8361 267216 279766 1741.25 1800 236 -3.9514322280884 2.5 40.89999961853 411.84803159688
11422	27218090 8382 267169 279766 1741 1800 237 0 15.875 1394.6379421744 15757.85378857
11421	27226472 8785 267122 279766 1740.75 1800 238 486.84881591797 785.82187652588 135398.65122223 78627805.469919
11420	27235257 8804 267122 279766 1740.75 1800 238 434.40368652344 483.14999389648 114547.52133179 55143440.067782
11431	27244061 7569 267936 279766 1745.25 1800 220 0.973 11.648172402475 394.8136870722 1581.7518165579
11430	27251630 8086 267936 279766 1745.25 1800 220 -4.5 2.5000000596046 -22.531293191016 352.38022100073
11429	27259716 8084 267891 279766 1745 1800 221 0 15.64999961853 1092.7465619836 13394.187316074
11428	27267800 8213 267846 279766 1744.75 1800 222 486.85000610352 486.85000610352 108080.70135498 52619090.114344
11427	27276013 8184 267846 279766 1744.75 1800 222 524.18948364258 797.66329956055 129013.80752563 76566973.437688
11438	27284197 6319 268469 279766 1748.25 1800 208 0.973 11.200708441096 370.27634746043 1417.8534360448
11437	27290516 5821 268469 279766 1748.25 1800 208 -8.6544380187988 2.5 -22.60000038147 324.79789032777
11436	27296337 6049 268422 279766 1748 1800 209 0 15.02499961853 1145.9928603172 15545.993776574
11435	27302386 7750 268375 279766 1747.75 1800 210 184.17810058594 471.60000610352 85864.839355469 36958199.380459
11434	27310136 7769 268375 279766 1747.75 1800 210 486.85000610352 486.85000610352 102238.50128174 49774814.973028
11452	27317905 6910 268851 279766 1750.25 1800 200 0.973 11.648172402475 368.38702280622 1515.9172524363
11451	27324815 7228 268851 279766 1750.25 1800 200 -4.5 2.5 -21.559103012085 353.10444463648
11450	27332043 7282 268800 279766 1750 1800 201 0 15.64999961853 1036.7576924358 13301.321894049
11449	27339325 7473 268751 279766 1749.75 1800 202 486.85000610352 486.85000610352 98343.70123291 47878631.545484
11448	27346798 7448 268751 279766 1749.75 1800 202 531.31387329102 790.29068756104 118504.70381165 70864577.377314
11459	27354246 6903 268902 279766 1750.5 1800 199 0.973 11.36141391502 568.10579759333 2868.0232531701
11458	27361149 7065 268902 279766 1750.5 1800 199 -4.5 2.5 37.492597579956 360.76031801346
11457	27368214 7065 268851 279766 1750.25 1800 200 3.7373144626617 15.25 2151.7095851898 26258.791263948
11456	27375279 7431 268800 279766 1750 1800 201 261.39019775391 483.14999389648 90356.518341064 41385662.019773
11455	27382710 7407 268800 279766 1750 1800 201 167.29217529297 483.17041015625 77721.101745605 32059859.471724
11466	27390117 6078 269622 279766 1754 1800 185 0.973 11.200708441096 355.77046860417 1441.5468308998
11465	27396195 6632 269622 279766 1754 1800 185 -3.7701468467712 2.5 -22.60000038147 223.64586033033
11464	27402827 6462 269567 279766 1753.75 1800 186 0 15.667088508606 1122.8429749347 15238.943230622
11463	27409289 6855 269514 279766 1753.5 1800 187 184.17810058594 465.20034790039 74600.311401367 31384661.228048
11462	27416144 6918 269514 279766 1753.5 1800 187 486.85000610352 486.85000610352 91040.951141357 44323287.61884
11473	27423062 6081 269677 279766 1754.25 1800 184 0.973 11.648172402475 490.03502909239 2823.1090210114
11472	27429143 6494 269677 279766 1754.25 1800 184 -4.5440063476562 2.5 39.39999961853 354.87711351243
11471	27435637 6604 269622 279766 1754 1800 185 0 15.64999961853 1363.2813326772 15982.067223288
11470	27442241 6860 269567 279766 1753.75 1800 186 450.71130371094 785.82187652588 108572.93595123 64816877.988055
11469	27449101 6881 269567 279766 1753.75 1800 186 483.14999389648 483.14999389648 89865.898864746 43418708.488004
11480	27455982 5095 270985 279766 1760.25 1800 160 0.973 11.200708441096 382.53823768478 1922.2191876667
11479	27461077 5662 270985 279766 1760.25 1800 160 -3.9700412750244 2.5 13.39999961853 358.04495488751
11478	27466739 5733 270931 279766 1760 1800 161 0 15.02499961853 1230.4061998427 13917.192335054
11477	27472472 5970 270876 279766 1759.75 1800 162 483.98748779297 785.82187652588 96992.382331848 59270994.347676
11476	27478442 5993 270876 279766 1759.75 1800 162 483.14999389648 490.97512817383 78294.611541748 37839915.634043
11487	27484435 4302 272213 279766 1766.25 1800 136 0.973 11.200708441096 278.45196407782 1291.3048854508
11486	27488737 4960 272213 279766 1766.25 1800 136 -3.8039727210999 2.5 -21.536556243896 198.08001535263
11485	27493697 4912 272162 279766 1766 1800 137 0 15.02499961853 985.71683239937 11577.739104426
11484	27498609 5105 272111 279766 1765.75 1800 138 486.85000610352 486.85000610352 67185.300842285 32709164.125133
11483	27503714 5090 272111 279766 1765.75 1800 138 539.41436767578 785.82187652588 84963.524757385 53266896.441297
11494	27508804 4273 272422 279766 1767.25 1800 132 0.973 11.200708441096 283.29203718527 1304.4188341672
11493	27513077 4929 272422 279766 1767.25 1800 132 -3.9121255874634 2.5 -22.131370186806 182.33190325981
11492	27518006 4896 272368 279766 1767 1800 133 0 15.02499961853 1094.3140581921 13382.169513068
11491	27522902 4925 272315 279766 1766.75 1800 134 184.17810058594 457.89624023438 48860.018310547 18985688.381826
11490	27527827 4957 272315 279766 1766.75 1800 134 486.85000610352 486.85000610352 65237.900817871 31761072.411361
11501	27532784 4309 272475 279766 1767.5 1800 131 0.973 11.200708441096 299.06125706864 1376.1519226564
11500	27537093 4613 272475 279766 1767.5 1800 131 -4.5 3.5973790884018 -22.60000038147 314.47565066675
11499	27541706 4712 272422 279766 1767.25 1800 132 0 15.623319625854 1045.8699398227 13244.331434663
11498	27546418 4919 272368 279766 1767 1800 133 486.85000610352 486.85000610352 64751.050811768 31524049.482918
11497	27551337 4902 272368 279766 1767 1800 133 545.90298461914 807.09531402588 83789.059272766 53856265.655589
11508	27556239 4058 272691 279766 1768.5 1800 127 0.973 11.648172402475 370.61420809403 2221.9908066005
11507	27560297 4532 272691 279766 1768.5 1800 127 -5.8381118774414 2.5 21.39999961853 340.70799175546
11506	27564829 4673 272636 279766 1768.25 1800 128 2.3164608478546 15.662123680115 1172.8494880199 13566.974431423
11505	27569502 4759 272581 279766 1768 1800 129 496.17752075195 785.82187652588 79672.452461243 50159537.714425
11504	27574261 4771 272581 279766 1768 1800 129 483.14999389648 483.14999389648 62326.349212646 30112975.24168
11515	27579032 3668 273547 279766 1772.5 1800 111 0.973 11.648172402475 285.21486122345 1460.6078555017
11514	27582700 3637 273547 279766 1772.5 1800 111 -7.7750906944275 2.5 -22.60000038147 320.25560670492
11513	27586337 3790 273494 279766 1772.25 1800 112 0 15.64999961853 1146.6268433332 16088.568924024
11512	27590127 4179 273441 279766 1772 1800 113 483.14999389648 483.14999389648 54595.949310303 26378032.576045
11511	27594306 4158 273441 279766 1772 1800 113 184.17810058594 471.60000610352 40474.155853271 15658963.309988
11522	27598464 3658 273657 279766 1773 1800 109 0.973 11.887396232335 294.07882200497 1536.901315698
11521	27602122 3749 273657 279766 1773 1800 109 -4.5 2.5 -22.60000038147 324.81948674648
11520	27605871 3865 273602 279766 1772.75 1800 110 0 15.982223510742 1227.2542798519 17441.938313678
11519	27609736 4106 273547 279766 1772.5 1800 111 483.14999389648 483.14999389648 53629.64932251 25911164.742841
11518	27613842 4090 273547 279766 1772.5 1800 111 160.43438720703 467.35952758789 37477.641021729 13926101.916911
11529	27617932 3384 273826 279766 1773.75 1800 106 0.973 10.756497587458 239.87114065675 1139.0913403563
11528	27621316 3893 273826 279766 1773.75 1800 106 -2.2727279663086 2.5 -13.924976348877 151.34091731402
11527	27625209 3944 273769 279766 1773.5 1800 107 2.1687560081482 14.39999961853 1043.1515491009 12052.964515223
11526	27629153 3976 273712 279766 1773.25 1800 108 184.17810058594 444.60498046875 36243.559570312 12963850.055979
11525	27633129 3996 273712 279766 1773.25 1800 108 486.85000610352 486.85000610352 52579.80065918 25598476.271843
11536	27637125 3232 274169 279766 1775.25 1800 100 0.973 11.200708441096 303.69317281139 1752.2439766649
11535	27640357 3580 274169 279766 1775.25 1800 100 -1.9950199127197 2.5 24.424730300903 204.65871839059
11534	27643937 3719 274112 279766 1775 1800 101 5.2417345046997 15.24146270752 1071.4244065285 12373.455345101
11533	27647656 3759 274054 279766 1774.75 1800 102 521.53726196289 785.82187652588 65460.068107605 42712197.762763
11532	27651415 3773 274054 279766 1774.75 1800 102 483.14999389648 483.14999389648 49281.299377441 23810259.493422
11543	27655188 2932 274791 279766 1778 1800 89 0.973 11.648172402475 258.79904875502 1466.343160465
11542	27658120 3191 274791 279766 1778 1800 89 -3.2815036773682 2.5 9.9610385894775 174.47124715188
11541	27661311 3314 274734 279766 1777.75 1800 90 5.6500000953674 15.671810150146 1057.3805675507 13471.849448127
11540	27664625 3350 274677 279766 1777.5 1800 91 537.99667358398 800.04531860352 60125.471893311 40388971.82586
11539	27667975 3366 274677 279766 1777.5 1800 91 483.14999389648 483.14999389648 43966.64944458 21242486.410798
11550	27671341 2365 275667 279766 1782 1800 73 0.973 11.648172402475 225.31602927295 1431.642581084
11549	27673706 2574 275667 279766 1782 1800 73 -2.0220565795898 2.5 -4.5975589752197 175.60122965526
11548	27676280 2717 275612 279766 1781.75 1800 74 4.5006103515625 15.64999961853 861.16418981552 11054.631366119
11547	27678997 2774 275557 279766 1781.5 1800 75 486.85000610352 486.85000610352 36513.750457764 17776719.633224
11546	27681771 2766 275557 279766 1781.5 1800 75 571.88244628906 785.82187652588 50518.91469574 34409335.359837
11557	27684537 2065 276362 279766 1785.25 1800 60 0.973 11.200708441096 200.07733671944 1199.3336794935
11556	27686602 2160 276362 279766 1785.25 1800 60 -2.0403099060059 2.5 20.458375930786 115.31916720023
11555	27688762 2241 276309 279766 1785 1800 61 5.6500000953674 15.02499961853 806.53189659119 11036.628556748
11554	27691003 2275 276255 279766 1784.75 1800 62 184.17810058594 382.21182250977 17135.643707275 4980494.267216
11553	27693278 2293 276255 279766 1784.75 1800 62 486.85000610352 486.85000610352 30184.700378418 14695421.563466
11564	27695571 1948 276525 279766 1786 1800 57 0.973 11.200708441096 212.38161196914 1314.9365207771
11563	27697519 2009 276525 279766 1786 1800 57 -0.81571578979492 2.5 33.987348556519 103.28806576212
11562	27699528 2131 276470 279766 1785.75 1800 58 5.6500000953674 15.707592964172 786.99398136139 11064.491739977
11561	27701659 2179 276415 279766 1785.5 1800 59 593.62808227539 785.82187652588 41162.039527893 28935109.409219
11560	27703838 2182 276415 279766 1785.5 1800 59 483.14999389648 483.14999389648 28505.849639893 13772601.079528
11571	27706020 1457 277287 279766 1789.5 1800 43 0.973 11.648172402475 183.62159020376 1311.9325729632
11570	27707477 1403 277287 279766 1789.5 1800 43 -2.1468696594238 2.5 28.468507766724 122.54824626858
11569	27708880 1618 277234 279766 1789.25 1800 44 5.6500000953674 15.978643417358 570.1980381012 7734.3958002636
11568	27710498 1663 277180 279766 1789 1800 45 486.85000610352 486.85000610352 21908.250274658 10666031.779935
11567	27712161 1661 277180 279766 1789 1800 45 647.42176818848 785.82187652588 32560.033622742 23647808.232629
11578	27713822 1471 277452 279766 1790.25 1800 40 1.6718654272685 11.200708441096 197.31608151946 1282.3409386658
11577	27715293 1344 277452 279766 1790.25 1800 40 -0.15801239013672 2.5 42.418340682983 95.179689181157
11576	27716637 1502 277395 279766 1790 1800 41 5.6500000953674 16.331871032715 562.10105609894 8141.6465646165
11575	27718139 1531 277340 279766 1789.75 1800 42 184.17810058594 319.25836181641 10156.024108887 2531487.7599819
11574	27719670 1553 277340 279766 1789.75 1800 42 486.85000610352 486.85000610352 20447.700256348 9954962.9946057
11585	27721223 1405 277509 279766 1790.5 1800 39 0.973 11.086046556103 202.92850775832 1324.5779472327
11584	27722628 1304 277509 279766 1790.5 1800 39 -4.5 2.5 40.883672714233 174.06752217206
11583	27723932 1477 277452 279766 1790.25 1800 40 5.6500000953674 15.870918273926 430.30151557922 5153.1375280622
11582	27725409 1513 277395 279766 1790 1800 41 683.32893371582 785.82187652588 30535.479057312 22779433.928261
11581	27726922 1515 277395 279766 1790 1800 41 483.14999389648 483.14999389648 19809.149749756 9570790.5806891
11592	27728437 1196 277854 279766 1792 1800 33 0.973 9.4416460730171 155.03203994104 971.58956265872
11591	27729633 1178 277854 279766 1792 1800 33 -0.53289794921875 2.5 37.327718734741 76.871712975499
11590	27730811 1254 277796 279766 1791.75 1800 34 5.6500000953674 15.167937278748 372.25835704803 4327.5400462263
11589	27732065 1292 277737 279766 1791.5 1800 35 717.81474304199 806.11563110352 26924.240196228 20736888.385637
11588	27733357 1294 277737 279766 1791.5 1800 35 483.14999389648 483.14999389648 16910.249786377 8170187.0810761
11599	27734651 1134 277974 279766 1792.5 1800 31 0.973 11.447624332371 156.06683621214 1160.1754448054
11598	27735785 1029 277974 279766 1792.5 1800 31 -0.38974380493164 2.5 37.350622177124 94.869935677012
11597	27736814 1182 277913 279766 1792.25 1800 32 5.6500000953674 15.370455741882 398.65791225433 5283.8264101776
11596	27737996 1218 277854 279766 1792 1800 33 659.05046081543 753.92188262939 23570.38306427 16864819.879317
11595	27739214 1219 277854 279766 1792 1800 33 483.14999389648 483.14999389648 15943.949798584 7703319.2478717
11606	27740433 1104 278035 279766 1792.75 1800 30 1.986667772344 11.200708441096 154.13369510313 1119.4858970152
11605	27741537 993 278035 279766 1792.75 1800 30 -0.044288635253906 2.5 37.32520866394 93.754473103883
11604	27742530 1136 277974 279766 1792.5 1800 31 5.6500000953674 15.02499961853 390.24174785614 5212.8905058308
11603	27743666 1184 277913 279766 1792.25 1800 32 483.14999389648 483.14999389648 15460.799804688 7469885.3312695
11602	27744850 1165 277913 279766 1792.25 1800 32 184.17810058594 276.74621582031 7136.4671630859 1619095.9188009
11613	27746015 737 278638 279766 1795.25 1800 20 3.0000122648997 10.315404520939 121.82837620665 876.12118714512
11612	27746752 602 278638 279766 1795.25 1800 20 0.28256607055664 2.5 34.524877548218 81.835805927785
11611	27747354 767 278577 279766 1795 1800 21 5.6500000953674 14.281219482422 234.43607902527 2794.6111129891
11610	27748121 813 278516 279766 1794.75 1800 22 486.85000610352 486.85000610352 10710.700134277 5214504.4257459
11609	27748934 811 278516 279766 1794.75 1800 22 731.904296875 785.82187652588 16806.275146484 12845090.473011
11620	27749745 183 279529 279766 1799 1800 5 5.2162187258585 6.8826618500064 30.239051553249 184.61558649684
11619	27749928 135 279529 279766 1799 1800 5 2.4999980926514 2.5 12.499998092651 31.24999046326
11618	27750063 221 279470 279766 1798.75 1800 6 5.6500000953674 8.7749996185303 43.27499961853 318.95686711311
11617	27750284 253 279411 279766 1798.5 1800 7 184.17810058594 192.41247558594 1312.3874511719 246111.98714531
11616	27750537 258 279411 279766 1798.5 1800 7 486.85000610352 486.85000610352 3407.9500427246 1659160.499101
7839	27750795 613 0 279765 0 1800 31 0 36 731 18721
7840	27751408 633 0 279765 0 1800 31 0 342 5012 1125784
