version 2
run nodebug-45-20200606-02:52:29-22484
attr configname nodebug
attr datetime 20200606-02:52:29
attr experiment nodebug
attr inifile omnetpp.ini
attr iterationvars ""
attr iterationvars2 $repetition=45
attr measurement ""
attr network "\"org.car2x.veins.modules.application.ExtTraCIScenarioManagerLaunchd.IntersectionExampleScenario\""
attr processid 22484
attr repetition 45
attr replication #45
attr resultdir results
attr runnumber 45
attr seedset 45
param **.coreDebug false
param **.debug false
param *.**.nic.mac1609_4.bitrate 18Mbps
param *.**.nic.mac1609_4.txPower 20mW
param *.**.nic.mac1609_4.useServiceChannel false
param *.**.nic.phy80211p.analogueModels "xmldoc(\"config.xml\")"
param *.**.nic.phy80211p.decider "xmldoc(\"config.xml\")"
param *.**.nic.phy80211p.sensitivity -89dBm
param *.**.nic.phy80211p.thermalNoise -110dBm
param *.**.nic.phy80211p.usePropagationDelay true
param *.**.nic.phy80211p.useThermalNoise true
param *.annotations.draw false
param *.connectionManager.alpha 2.0
param *.connectionManager.carrierFrequency "5.890e9 Hz"
param *.connectionManager.pMax 20mW
param *.connectionManager.sat -89dBm
param *.connectionManager.sendDirect true
param *.manager.autoShutdown true
param *.manager.host "\"localhost\""
param *.manager.launchConfig "xmldoc(\"paramics.launchd.xml\")"
param *.manager.margin 25
param *.manager.moduleDisplayString "\"\""
param *.manager.moduleName "\"node\""
param *.manager.moduleType "\"org.car2x.veins.nodes.Car\""
param *.manager.port 9999
param *.manager.updateInterval 250ms
param *.node[*0].veinsmobility.accidentCount 0
param *.node[*0].veinsmobility.accidentDuration 30s
param *.node[*0].veinsmobility.accidentStart 75s
param *.node[*].appl.LiderSelectZoneRadio 55.0
param *.node[*].appl.ShareDataZoneRadio 110.0
param *.node[*].appl.TiempoSemaforo 30.0
param *.node[*].appl.beaconInterval 1s
param *.node[*].appl.beaconPriority 3
param *.node[*].appl.dataOnSch false
param *.node[*].appl.dataPriority 2
param *.node[*].appl.debug false
param *.node[*].appl.headerLength "256 bit"
param *.node[*].appl.maxOffset 0.005s
param *.node[*].appl.sendBeacons false
param *.node[*].appl.sendData true
param *.node[*].applType "\"Dummy\""
param *.node[*].mobilityType "\"TraCIMobility\""
param *.node[*].mobilityType.debug true
param *.node[*].veinsmobility.x 0
param *.node[*].veinsmobility.y 0
param *.node[*].veinsmobility.z 1.895
param *.node[*].veinsmobilityType "\"org.car2x.veins.modules.mobility.traci.TraCIMobility\""
param *.node[*].veinsmobilityType.debug true
param *.playgroundSizeX 8500m
param *.playgroundSizeY 8500m
param *.playgroundSizeZ 50m
param *.world.use2D false
param *.world.useTorus false

scalar IntersectionExampleScenario.node[4].appl 	VehicleRemoved 	0
scalar IntersectionExampleScenario.node[4].appl 	ArrivedAtDest 	1
scalar IntersectionExampleScenario.node[4].appl 	IntersectionEnterTime 	17.25
scalar IntersectionExampleScenario.node[4].appl 	IntersectionExitTime 	39.536210917839
scalar IntersectionExampleScenario.node[4].appl 	NumberOfCollisions 	0
scalar IntersectionExampleScenario.node[4].nic.phy80211p 	busyTime 	0
scalar IntersectionExampleScenario.node[4].nic.mac1609_4 	ReceivedUnicastPackets 	0
scalar IntersectionExampleScenario.node[4].nic.mac1609_4 	ReceivedBroadcasts 	0
scalar IntersectionExampleScenario.node[4].nic.mac1609_4 	SentPackets 	0
scalar IntersectionExampleScenario.node[4].nic.mac1609_4 	SNIRLostPackets 	0
scalar IntersectionExampleScenario.node[4].nic.mac1609_4 	RXTXLostPackets 	0
scalar IntersectionExampleScenario.node[4].nic.mac1609_4 	TotalLostPackets 	0
scalar IntersectionExampleScenario.node[4].nic.mac1609_4 	DroppedPacketsInMac 	0
scalar IntersectionExampleScenario.node[4].nic.mac1609_4 	TooLittleTime 	0
scalar IntersectionExampleScenario.node[4].nic.mac1609_4 	TimesIntoBackoff 	0
scalar IntersectionExampleScenario.node[4].nic.mac1609_4 	SlotsBackoff 	0
scalar IntersectionExampleScenario.node[4].nic.mac1609_4 	NumInternalContention 	0
scalar IntersectionExampleScenario.node[4].nic.mac1609_4 	totalBusyTime 	0
scalar IntersectionExampleScenario.node[4].veinsmobility 	startTime 	17.25
scalar IntersectionExampleScenario.node[4].veinsmobility 	totalTime 	37.5
scalar IntersectionExampleScenario.node[4].veinsmobility 	stopTime 	55
scalar IntersectionExampleScenario.node[4].veinsmobility 	minSpeed 	5.6500000953674
scalar IntersectionExampleScenario.node[4].veinsmobility 	maxSpeed 	16.27499961853
scalar IntersectionExampleScenario.node[4].veinsmobility 	totalDistance 	551.9393157959
scalar IntersectionExampleScenario.node[4].veinsmobility 	totalCO2Emission 	122.15621062424
scalar IntersectionExampleScenario.node[13].appl 	VehicleRemoved 	0
scalar IntersectionExampleScenario.node[13].appl 	ArrivedAtDest 	1
scalar IntersectionExampleScenario.node[13].appl 	IntersectionEnterTime 	38
scalar IntersectionExampleScenario.node[13].appl 	IntersectionExitTime 	61.526544702909
scalar IntersectionExampleScenario.node[13].appl 	NumberOfCollisions 	0
scalar IntersectionExampleScenario.node[13].nic.phy80211p 	busyTime 	0
scalar IntersectionExampleScenario.node[13].nic.mac1609_4 	ReceivedUnicastPackets 	0
scalar IntersectionExampleScenario.node[13].nic.mac1609_4 	ReceivedBroadcasts 	0
scalar IntersectionExampleScenario.node[13].nic.mac1609_4 	SentPackets 	0
scalar IntersectionExampleScenario.node[13].nic.mac1609_4 	SNIRLostPackets 	0
scalar IntersectionExampleScenario.node[13].nic.mac1609_4 	RXTXLostPackets 	0
scalar IntersectionExampleScenario.node[13].nic.mac1609_4 	TotalLostPackets 	0
scalar IntersectionExampleScenario.node[13].nic.mac1609_4 	DroppedPacketsInMac 	0
scalar IntersectionExampleScenario.node[13].nic.mac1609_4 	TooLittleTime 	0
scalar IntersectionExampleScenario.node[13].nic.mac1609_4 	TimesIntoBackoff 	0
scalar IntersectionExampleScenario.node[13].nic.mac1609_4 	SlotsBackoff 	0
scalar IntersectionExampleScenario.node[13].nic.mac1609_4 	NumInternalContention 	0
scalar IntersectionExampleScenario.node[13].nic.mac1609_4 	totalBusyTime 	0
scalar IntersectionExampleScenario.node[13].veinsmobility 	startTime 	38
scalar IntersectionExampleScenario.node[13].veinsmobility 	totalTime 	40.25
scalar IntersectionExampleScenario.node[13].veinsmobility 	stopTime 	78.5
scalar IntersectionExampleScenario.node[13].veinsmobility 	minSpeed 	5.6500000953674
scalar IntersectionExampleScenario.node[13].veinsmobility 	maxSpeed 	15.64999961853
scalar IntersectionExampleScenario.node[13].veinsmobility 	totalDistance 	543.88909018596
scalar IntersectionExampleScenario.node[13].veinsmobility 	totalCO2Emission 	125.91256791225
scalar IntersectionExampleScenario.node[0].appl 	VehicleRemoved 	0
scalar IntersectionExampleScenario.node[0].appl 	ArrivedAtDest 	1
scalar IntersectionExampleScenario.node[0].appl 	IntersectionEnterTime 	0.25
scalar IntersectionExampleScenario.node[0].appl 	IntersectionExitTime 	63.759661195712
scalar IntersectionExampleScenario.node[0].appl 	NumberOfCollisions 	0
scalar IntersectionExampleScenario.node[0].nic.phy80211p 	busyTime 	0
scalar IntersectionExampleScenario.node[0].nic.mac1609_4 	ReceivedUnicastPackets 	0
scalar IntersectionExampleScenario.node[0].nic.mac1609_4 	ReceivedBroadcasts 	0
scalar IntersectionExampleScenario.node[0].nic.mac1609_4 	SentPackets 	0
scalar IntersectionExampleScenario.node[0].nic.mac1609_4 	SNIRLostPackets 	0
scalar IntersectionExampleScenario.node[0].nic.mac1609_4 	RXTXLostPackets 	0
scalar IntersectionExampleScenario.node[0].nic.mac1609_4 	TotalLostPackets 	0
scalar IntersectionExampleScenario.node[0].nic.mac1609_4 	DroppedPacketsInMac 	0
scalar IntersectionExampleScenario.node[0].nic.mac1609_4 	TooLittleTime 	0
scalar IntersectionExampleScenario.node[0].nic.mac1609_4 	TimesIntoBackoff 	0
scalar IntersectionExampleScenario.node[0].nic.mac1609_4 	SlotsBackoff 	0
scalar IntersectionExampleScenario.node[0].nic.mac1609_4 	NumInternalContention 	0
scalar IntersectionExampleScenario.node[0].nic.mac1609_4 	totalBusyTime 	0
scalar IntersectionExampleScenario.node[0].veinsmobility 	startTime 	0.25
scalar IntersectionExampleScenario.node[0].veinsmobility 	totalTime 	80
scalar IntersectionExampleScenario.node[0].veinsmobility 	stopTime 	80.5
scalar IntersectionExampleScenario.node[0].veinsmobility 	minSpeed 	0
scalar IntersectionExampleScenario.node[0].veinsmobility 	maxSpeed 	15.375
scalar IntersectionExampleScenario.node[0].veinsmobility 	totalDistance 	550.31298189592
scalar IntersectionExampleScenario.node[0].veinsmobility 	totalCO2Emission 	168.91836737954
scalar IntersectionExampleScenario.node[3].appl 	VehicleRemoved 	0
scalar IntersectionExampleScenario.node[3].appl 	ArrivedAtDest 	1
scalar IntersectionExampleScenario.node[3].appl 	IntersectionEnterTime 	13.75
scalar IntersectionExampleScenario.node[3].appl 	IntersectionExitTime 	65.285333400709
scalar IntersectionExampleScenario.node[3].appl 	NumberOfCollisions 	0
scalar IntersectionExampleScenario.node[3].nic.phy80211p 	busyTime 	0
scalar IntersectionExampleScenario.node[3].nic.mac1609_4 	ReceivedUnicastPackets 	0
scalar IntersectionExampleScenario.node[3].nic.mac1609_4 	ReceivedBroadcasts 	0
scalar IntersectionExampleScenario.node[3].nic.mac1609_4 	SentPackets 	0
scalar IntersectionExampleScenario.node[3].nic.mac1609_4 	SNIRLostPackets 	0
scalar IntersectionExampleScenario.node[3].nic.mac1609_4 	RXTXLostPackets 	0
scalar IntersectionExampleScenario.node[3].nic.mac1609_4 	TotalLostPackets 	0
scalar IntersectionExampleScenario.node[3].nic.mac1609_4 	DroppedPacketsInMac 	0
scalar IntersectionExampleScenario.node[3].nic.mac1609_4 	TooLittleTime 	0
scalar IntersectionExampleScenario.node[3].nic.mac1609_4 	TimesIntoBackoff 	0
scalar IntersectionExampleScenario.node[3].nic.mac1609_4 	SlotsBackoff 	0
scalar IntersectionExampleScenario.node[3].nic.mac1609_4 	NumInternalContention 	0
scalar IntersectionExampleScenario.node[3].nic.mac1609_4 	totalBusyTime 	0
scalar IntersectionExampleScenario.node[3].veinsmobility 	startTime 	13.75
scalar IntersectionExampleScenario.node[3].veinsmobility 	totalTime 	67
scalar IntersectionExampleScenario.node[3].veinsmobility 	stopTime 	81
scalar IntersectionExampleScenario.node[3].veinsmobility 	minSpeed 	0
scalar IntersectionExampleScenario.node[3].veinsmobility 	maxSpeed 	16.27499961853
scalar IntersectionExampleScenario.node[3].veinsmobility 	totalDistance 	551.63539123535
scalar IntersectionExampleScenario.node[3].veinsmobility 	totalCO2Emission 	162.01289978714
scalar IntersectionExampleScenario.node[14].appl 	VehicleRemoved 	0
scalar IntersectionExampleScenario.node[14].appl 	ArrivedAtDest 	1
scalar IntersectionExampleScenario.node[14].appl 	IntersectionEnterTime 	39.25
scalar IntersectionExampleScenario.node[14].appl 	IntersectionExitTime 	67.068121857679
scalar IntersectionExampleScenario.node[14].appl 	NumberOfCollisions 	0
scalar IntersectionExampleScenario.node[14].nic.phy80211p 	busyTime 	0
scalar IntersectionExampleScenario.node[14].nic.mac1609_4 	ReceivedUnicastPackets 	0
scalar IntersectionExampleScenario.node[14].nic.mac1609_4 	ReceivedBroadcasts 	0
scalar IntersectionExampleScenario.node[14].nic.mac1609_4 	SentPackets 	0
scalar IntersectionExampleScenario.node[14].nic.mac1609_4 	SNIRLostPackets 	0
scalar IntersectionExampleScenario.node[14].nic.mac1609_4 	RXTXLostPackets 	0
scalar IntersectionExampleScenario.node[14].nic.mac1609_4 	TotalLostPackets 	0
scalar IntersectionExampleScenario.node[14].nic.mac1609_4 	DroppedPacketsInMac 	0
scalar IntersectionExampleScenario.node[14].nic.mac1609_4 	TooLittleTime 	0
scalar IntersectionExampleScenario.node[14].nic.mac1609_4 	TimesIntoBackoff 	0
scalar IntersectionExampleScenario.node[14].nic.mac1609_4 	SlotsBackoff 	0
scalar IntersectionExampleScenario.node[14].nic.mac1609_4 	NumInternalContention 	0
scalar IntersectionExampleScenario.node[14].nic.mac1609_4 	totalBusyTime 	0
scalar IntersectionExampleScenario.node[14].veinsmobility 	startTime 	39.25
scalar IntersectionExampleScenario.node[14].veinsmobility 	totalTime 	44.25
scalar IntersectionExampleScenario.node[14].veinsmobility 	stopTime 	83.75
scalar IntersectionExampleScenario.node[14].veinsmobility 	minSpeed 	4.5681004524231
scalar IntersectionExampleScenario.node[14].veinsmobility 	maxSpeed 	15.64999961853
scalar IntersectionExampleScenario.node[14].veinsmobility 	totalDistance 	552.54505609416
scalar IntersectionExampleScenario.node[14].veinsmobility 	totalCO2Emission 	134.94030763959
scalar IntersectionExampleScenario.node[15].appl 	VehicleRemoved 	0
scalar IntersectionExampleScenario.node[15].appl 	ArrivedAtDest 	1
scalar IntersectionExampleScenario.node[15].appl 	IntersectionEnterTime 	47.5
scalar IntersectionExampleScenario.node[15].appl 	IntersectionExitTime 	71.583006463159
scalar IntersectionExampleScenario.node[15].appl 	NumberOfCollisions 	0
scalar IntersectionExampleScenario.node[15].nic.phy80211p 	busyTime 	0
scalar IntersectionExampleScenario.node[15].nic.mac1609_4 	ReceivedUnicastPackets 	0
scalar IntersectionExampleScenario.node[15].nic.mac1609_4 	ReceivedBroadcasts 	0
scalar IntersectionExampleScenario.node[15].nic.mac1609_4 	SentPackets 	0
scalar IntersectionExampleScenario.node[15].nic.mac1609_4 	SNIRLostPackets 	0
scalar IntersectionExampleScenario.node[15].nic.mac1609_4 	RXTXLostPackets 	0
scalar IntersectionExampleScenario.node[15].nic.mac1609_4 	TotalLostPackets 	0
scalar IntersectionExampleScenario.node[15].nic.mac1609_4 	DroppedPacketsInMac 	0
scalar IntersectionExampleScenario.node[15].nic.mac1609_4 	TooLittleTime 	0
scalar IntersectionExampleScenario.node[15].nic.mac1609_4 	TimesIntoBackoff 	0
scalar IntersectionExampleScenario.node[15].nic.mac1609_4 	SlotsBackoff 	0
scalar IntersectionExampleScenario.node[15].nic.mac1609_4 	NumInternalContention 	0
scalar IntersectionExampleScenario.node[15].nic.mac1609_4 	totalBusyTime 	0
scalar IntersectionExampleScenario.node[15].veinsmobility 	startTime 	47.5
scalar IntersectionExampleScenario.node[15].veinsmobility 	totalTime 	41
scalar IntersectionExampleScenario.node[15].veinsmobility 	stopTime 	88.75
scalar IntersectionExampleScenario.node[15].veinsmobility 	minSpeed 	5.6500000953674
scalar IntersectionExampleScenario.node[15].veinsmobility 	maxSpeed 	15.02499961853
scalar IntersectionExampleScenario.node[15].veinsmobility 	totalDistance 	550.48507440717
scalar IntersectionExampleScenario.node[15].veinsmobility 	totalCO2Emission 	121.88209159391
scalar IntersectionExampleScenario.node[16].appl 	VehicleRemoved 	0
scalar IntersectionExampleScenario.node[16].appl 	ArrivedAtDest 	1
scalar IntersectionExampleScenario.node[16].appl 	IntersectionEnterTime 	50.5
scalar IntersectionExampleScenario.node[16].appl 	IntersectionExitTime 	74.259265424858
scalar IntersectionExampleScenario.node[16].appl 	NumberOfCollisions 	0
scalar IntersectionExampleScenario.node[16].nic.phy80211p 	busyTime 	0
scalar IntersectionExampleScenario.node[16].nic.mac1609_4 	ReceivedUnicastPackets 	0
scalar IntersectionExampleScenario.node[16].nic.mac1609_4 	ReceivedBroadcasts 	0
scalar IntersectionExampleScenario.node[16].nic.mac1609_4 	SentPackets 	0
scalar IntersectionExampleScenario.node[16].nic.mac1609_4 	SNIRLostPackets 	0
scalar IntersectionExampleScenario.node[16].nic.mac1609_4 	RXTXLostPackets 	0
scalar IntersectionExampleScenario.node[16].nic.mac1609_4 	TotalLostPackets 	0
scalar IntersectionExampleScenario.node[16].nic.mac1609_4 	DroppedPacketsInMac 	0
scalar IntersectionExampleScenario.node[16].nic.mac1609_4 	TooLittleTime 	0
scalar IntersectionExampleScenario.node[16].nic.mac1609_4 	TimesIntoBackoff 	0
scalar IntersectionExampleScenario.node[16].nic.mac1609_4 	SlotsBackoff 	0
scalar IntersectionExampleScenario.node[16].nic.mac1609_4 	NumInternalContention 	0
scalar IntersectionExampleScenario.node[16].nic.mac1609_4 	totalBusyTime 	0
scalar IntersectionExampleScenario.node[16].veinsmobility 	startTime 	50.5
scalar IntersectionExampleScenario.node[16].veinsmobility 	totalTime 	39.75
scalar IntersectionExampleScenario.node[16].veinsmobility 	stopTime 	90.5
scalar IntersectionExampleScenario.node[16].veinsmobility 	minSpeed 	5.6500000953674
scalar IntersectionExampleScenario.node[16].veinsmobility 	maxSpeed 	16.5
scalar IntersectionExampleScenario.node[16].veinsmobility 	totalDistance 	557.36769386671
scalar IntersectionExampleScenario.node[16].veinsmobility 	totalCO2Emission 	138.48990784693
scalar IntersectionExampleScenario.node[20].appl 	VehicleRemoved 	0
scalar IntersectionExampleScenario.node[20].appl 	ArrivedAtDest 	1
scalar IntersectionExampleScenario.node[20].appl 	IntersectionEnterTime 	64.75
scalar IntersectionExampleScenario.node[20].appl 	IntersectionExitTime 	86.85497156097
scalar IntersectionExampleScenario.node[20].appl 	NumberOfCollisions 	0
scalar IntersectionExampleScenario.node[20].nic.phy80211p 	busyTime 	0
scalar IntersectionExampleScenario.node[20].nic.mac1609_4 	ReceivedUnicastPackets 	0
scalar IntersectionExampleScenario.node[20].nic.mac1609_4 	ReceivedBroadcasts 	0
scalar IntersectionExampleScenario.node[20].nic.mac1609_4 	SentPackets 	0
scalar IntersectionExampleScenario.node[20].nic.mac1609_4 	SNIRLostPackets 	0
scalar IntersectionExampleScenario.node[20].nic.mac1609_4 	RXTXLostPackets 	0
scalar IntersectionExampleScenario.node[20].nic.mac1609_4 	TotalLostPackets 	0
scalar IntersectionExampleScenario.node[20].nic.mac1609_4 	DroppedPacketsInMac 	0
scalar IntersectionExampleScenario.node[20].nic.mac1609_4 	TooLittleTime 	0
scalar IntersectionExampleScenario.node[20].nic.mac1609_4 	TimesIntoBackoff 	0
scalar IntersectionExampleScenario.node[20].nic.mac1609_4 	SlotsBackoff 	0
scalar IntersectionExampleScenario.node[20].nic.mac1609_4 	NumInternalContention 	0
scalar IntersectionExampleScenario.node[20].nic.mac1609_4 	totalBusyTime 	0
scalar IntersectionExampleScenario.node[20].veinsmobility 	startTime 	64.75
scalar IntersectionExampleScenario.node[20].veinsmobility 	totalTime 	37.25
scalar IntersectionExampleScenario.node[20].veinsmobility 	stopTime 	102.25
scalar IntersectionExampleScenario.node[20].veinsmobility 	minSpeed 	5.6500000953674
scalar IntersectionExampleScenario.node[20].veinsmobility 	maxSpeed 	16.27499961853
scalar IntersectionExampleScenario.node[20].veinsmobility 	totalDistance 	551.74661254883
scalar IntersectionExampleScenario.node[20].veinsmobility 	totalCO2Emission 	122.72925242157
scalar IntersectionExampleScenario.node[2].appl 	VehicleRemoved 	0
scalar IntersectionExampleScenario.node[2].appl 	ArrivedAtDest 	1
scalar IntersectionExampleScenario.node[2].appl 	IntersectionEnterTime 	12.25
scalar IntersectionExampleScenario.node[2].appl 	IntersectionExitTime 	94.331262802385
scalar IntersectionExampleScenario.node[2].appl 	NumberOfCollisions 	0
scalar IntersectionExampleScenario.node[2].nic.phy80211p 	busyTime 	0
scalar IntersectionExampleScenario.node[2].nic.mac1609_4 	ReceivedUnicastPackets 	0
scalar IntersectionExampleScenario.node[2].nic.mac1609_4 	ReceivedBroadcasts 	0
scalar IntersectionExampleScenario.node[2].nic.mac1609_4 	SentPackets 	0
scalar IntersectionExampleScenario.node[2].nic.mac1609_4 	SNIRLostPackets 	0
scalar IntersectionExampleScenario.node[2].nic.mac1609_4 	RXTXLostPackets 	0
scalar IntersectionExampleScenario.node[2].nic.mac1609_4 	TotalLostPackets 	0
scalar IntersectionExampleScenario.node[2].nic.mac1609_4 	DroppedPacketsInMac 	0
scalar IntersectionExampleScenario.node[2].nic.mac1609_4 	TooLittleTime 	0
scalar IntersectionExampleScenario.node[2].nic.mac1609_4 	TimesIntoBackoff 	0
scalar IntersectionExampleScenario.node[2].nic.mac1609_4 	SlotsBackoff 	0
scalar IntersectionExampleScenario.node[2].nic.mac1609_4 	NumInternalContention 	0
scalar IntersectionExampleScenario.node[2].nic.mac1609_4 	totalBusyTime 	0
scalar IntersectionExampleScenario.node[2].veinsmobility 	startTime 	12.25
scalar IntersectionExampleScenario.node[2].veinsmobility 	totalTime 	97.25
scalar IntersectionExampleScenario.node[2].veinsmobility 	stopTime 	109.75
scalar IntersectionExampleScenario.node[2].veinsmobility 	minSpeed 	0
scalar IntersectionExampleScenario.node[2].veinsmobility 	maxSpeed 	16.27499961853
scalar IntersectionExampleScenario.node[2].veinsmobility 	totalDistance 	551.7405166626
scalar IntersectionExampleScenario.node[2].veinsmobility 	totalCO2Emission 	194.83883726436
scalar IntersectionExampleScenario.node[8].appl 	VehicleRemoved 	0
scalar IntersectionExampleScenario.node[8].appl 	ArrivedAtDest 	1
scalar IntersectionExampleScenario.node[8].appl 	IntersectionEnterTime 	22.75
scalar IntersectionExampleScenario.node[8].appl 	IntersectionExitTime 	96.281253802794
scalar IntersectionExampleScenario.node[8].appl 	NumberOfCollisions 	0
scalar IntersectionExampleScenario.node[8].nic.phy80211p 	busyTime 	0
scalar IntersectionExampleScenario.node[8].nic.mac1609_4 	ReceivedUnicastPackets 	0
scalar IntersectionExampleScenario.node[8].nic.mac1609_4 	ReceivedBroadcasts 	0
scalar IntersectionExampleScenario.node[8].nic.mac1609_4 	SentPackets 	0
scalar IntersectionExampleScenario.node[8].nic.mac1609_4 	SNIRLostPackets 	0
scalar IntersectionExampleScenario.node[8].nic.mac1609_4 	RXTXLostPackets 	0
scalar IntersectionExampleScenario.node[8].nic.mac1609_4 	TotalLostPackets 	0
scalar IntersectionExampleScenario.node[8].nic.mac1609_4 	DroppedPacketsInMac 	0
scalar IntersectionExampleScenario.node[8].nic.mac1609_4 	TooLittleTime 	0
scalar IntersectionExampleScenario.node[8].nic.mac1609_4 	TimesIntoBackoff 	0
scalar IntersectionExampleScenario.node[8].nic.mac1609_4 	SlotsBackoff 	0
scalar IntersectionExampleScenario.node[8].nic.mac1609_4 	NumInternalContention 	0
scalar IntersectionExampleScenario.node[8].nic.mac1609_4 	totalBusyTime 	0
scalar IntersectionExampleScenario.node[8].veinsmobility 	startTime 	22.75
scalar IntersectionExampleScenario.node[8].veinsmobility 	totalTime 	89.25
scalar IntersectionExampleScenario.node[8].veinsmobility 	stopTime 	112.25
scalar IntersectionExampleScenario.node[8].veinsmobility 	minSpeed 	0
scalar IntersectionExampleScenario.node[8].veinsmobility 	maxSpeed 	16.125
scalar IntersectionExampleScenario.node[8].veinsmobility 	totalDistance 	522.40705108643
scalar IntersectionExampleScenario.node[8].veinsmobility 	totalCO2Emission 	179.56195521283
scalar IntersectionExampleScenario.node[5].appl 	VehicleRemoved 	0
scalar IntersectionExampleScenario.node[5].appl 	ArrivedAtDest 	1
scalar IntersectionExampleScenario.node[5].appl 	IntersectionEnterTime 	20.75
scalar IntersectionExampleScenario.node[5].appl 	IntersectionExitTime 	98.309819038375
scalar IntersectionExampleScenario.node[5].appl 	NumberOfCollisions 	0
scalar IntersectionExampleScenario.node[5].nic.phy80211p 	busyTime 	0
scalar IntersectionExampleScenario.node[5].nic.mac1609_4 	ReceivedUnicastPackets 	0
scalar IntersectionExampleScenario.node[5].nic.mac1609_4 	ReceivedBroadcasts 	0
scalar IntersectionExampleScenario.node[5].nic.mac1609_4 	SentPackets 	0
scalar IntersectionExampleScenario.node[5].nic.mac1609_4 	SNIRLostPackets 	0
scalar IntersectionExampleScenario.node[5].nic.mac1609_4 	RXTXLostPackets 	0
scalar IntersectionExampleScenario.node[5].nic.mac1609_4 	TotalLostPackets 	0
scalar IntersectionExampleScenario.node[5].nic.mac1609_4 	DroppedPacketsInMac 	0
scalar IntersectionExampleScenario.node[5].nic.mac1609_4 	TooLittleTime 	0
scalar IntersectionExampleScenario.node[5].nic.mac1609_4 	TimesIntoBackoff 	0
scalar IntersectionExampleScenario.node[5].nic.mac1609_4 	SlotsBackoff 	0
scalar IntersectionExampleScenario.node[5].nic.mac1609_4 	NumInternalContention 	0
scalar IntersectionExampleScenario.node[5].nic.mac1609_4 	totalBusyTime 	0
scalar IntersectionExampleScenario.node[5].veinsmobility 	startTime 	20.75
scalar IntersectionExampleScenario.node[5].veinsmobility 	totalTime 	95
scalar IntersectionExampleScenario.node[5].veinsmobility 	stopTime 	116
scalar IntersectionExampleScenario.node[5].veinsmobility 	minSpeed 	0
scalar IntersectionExampleScenario.node[5].veinsmobility 	maxSpeed 	14.625
scalar IntersectionExampleScenario.node[5].veinsmobility 	totalDistance 	543.08682904752
scalar IntersectionExampleScenario.node[5].veinsmobility 	totalCO2Emission 	186.06892240291
scalar IntersectionExampleScenario.node[7].appl 	VehicleRemoved 	0
scalar IntersectionExampleScenario.node[7].appl 	ArrivedAtDest 	1
scalar IntersectionExampleScenario.node[7].appl 	IntersectionEnterTime 	22.25
scalar IntersectionExampleScenario.node[7].appl 	IntersectionExitTime 	100.76382068242
scalar IntersectionExampleScenario.node[7].appl 	NumberOfCollisions 	0
scalar IntersectionExampleScenario.node[7].nic.phy80211p 	busyTime 	0
scalar IntersectionExampleScenario.node[7].nic.mac1609_4 	ReceivedUnicastPackets 	0
scalar IntersectionExampleScenario.node[7].nic.mac1609_4 	ReceivedBroadcasts 	0
scalar IntersectionExampleScenario.node[7].nic.mac1609_4 	SentPackets 	0
scalar IntersectionExampleScenario.node[7].nic.mac1609_4 	SNIRLostPackets 	0
scalar IntersectionExampleScenario.node[7].nic.mac1609_4 	RXTXLostPackets 	0
scalar IntersectionExampleScenario.node[7].nic.mac1609_4 	TotalLostPackets 	0
scalar IntersectionExampleScenario.node[7].nic.mac1609_4 	DroppedPacketsInMac 	0
scalar IntersectionExampleScenario.node[7].nic.mac1609_4 	TooLittleTime 	0
scalar IntersectionExampleScenario.node[7].nic.mac1609_4 	TimesIntoBackoff 	0
scalar IntersectionExampleScenario.node[7].nic.mac1609_4 	SlotsBackoff 	0
scalar IntersectionExampleScenario.node[7].nic.mac1609_4 	NumInternalContention 	0
scalar IntersectionExampleScenario.node[7].nic.mac1609_4 	totalBusyTime 	0
scalar IntersectionExampleScenario.node[7].veinsmobility 	startTime 	22.25
scalar IntersectionExampleScenario.node[7].veinsmobility 	totalTime 	94.5
scalar IntersectionExampleScenario.node[7].veinsmobility 	stopTime 	117
scalar IntersectionExampleScenario.node[7].veinsmobility 	minSpeed 	0
scalar IntersectionExampleScenario.node[7].veinsmobility 	maxSpeed 	15.375
scalar IntersectionExampleScenario.node[7].veinsmobility 	totalDistance 	569.91613104344
scalar IntersectionExampleScenario.node[7].veinsmobility 	totalCO2Emission 	191.60313569579
scalar IntersectionExampleScenario.node[9].appl 	VehicleRemoved 	0
scalar IntersectionExampleScenario.node[9].appl 	ArrivedAtDest 	1
scalar IntersectionExampleScenario.node[9].appl 	IntersectionEnterTime 	23.25
scalar IntersectionExampleScenario.node[9].appl 	IntersectionExitTime 	103.01378016479
scalar IntersectionExampleScenario.node[9].appl 	NumberOfCollisions 	0
scalar IntersectionExampleScenario.node[9].nic.phy80211p 	busyTime 	0
scalar IntersectionExampleScenario.node[9].nic.mac1609_4 	ReceivedUnicastPackets 	0
scalar IntersectionExampleScenario.node[9].nic.mac1609_4 	ReceivedBroadcasts 	0
scalar IntersectionExampleScenario.node[9].nic.mac1609_4 	SentPackets 	0
scalar IntersectionExampleScenario.node[9].nic.mac1609_4 	SNIRLostPackets 	0
scalar IntersectionExampleScenario.node[9].nic.mac1609_4 	RXTXLostPackets 	0
scalar IntersectionExampleScenario.node[9].nic.mac1609_4 	TotalLostPackets 	0
scalar IntersectionExampleScenario.node[9].nic.mac1609_4 	DroppedPacketsInMac 	0
scalar IntersectionExampleScenario.node[9].nic.mac1609_4 	TooLittleTime 	0
scalar IntersectionExampleScenario.node[9].nic.mac1609_4 	TimesIntoBackoff 	0
scalar IntersectionExampleScenario.node[9].nic.mac1609_4 	SlotsBackoff 	0
scalar IntersectionExampleScenario.node[9].nic.mac1609_4 	NumInternalContention 	0
scalar IntersectionExampleScenario.node[9].nic.mac1609_4 	totalBusyTime 	0
scalar IntersectionExampleScenario.node[9].veinsmobility 	startTime 	23.25
scalar IntersectionExampleScenario.node[9].veinsmobility 	totalTime 	96.75
scalar IntersectionExampleScenario.node[9].veinsmobility 	stopTime 	120.25
scalar IntersectionExampleScenario.node[9].veinsmobility 	minSpeed 	0
scalar IntersectionExampleScenario.node[9].veinsmobility 	maxSpeed 	14.983232498169
scalar IntersectionExampleScenario.node[9].veinsmobility 	totalDistance 	577.25398280391
scalar IntersectionExampleScenario.node[9].veinsmobility 	totalCO2Emission 	195.8088960126
scalar IntersectionExampleScenario.node[10].appl 	VehicleRemoved 	0
scalar IntersectionExampleScenario.node[10].appl 	ArrivedAtDest 	1
scalar IntersectionExampleScenario.node[10].appl 	IntersectionEnterTime 	25.75
scalar IntersectionExampleScenario.node[10].appl 	IntersectionExitTime 	105.017003163
scalar IntersectionExampleScenario.node[10].appl 	NumberOfCollisions 	0
scalar IntersectionExampleScenario.node[10].nic.phy80211p 	busyTime 	0
scalar IntersectionExampleScenario.node[10].nic.mac1609_4 	ReceivedUnicastPackets 	0
scalar IntersectionExampleScenario.node[10].nic.mac1609_4 	ReceivedBroadcasts 	0
scalar IntersectionExampleScenario.node[10].nic.mac1609_4 	SentPackets 	0
scalar IntersectionExampleScenario.node[10].nic.mac1609_4 	SNIRLostPackets 	0
scalar IntersectionExampleScenario.node[10].nic.mac1609_4 	RXTXLostPackets 	0
scalar IntersectionExampleScenario.node[10].nic.mac1609_4 	TotalLostPackets 	0
scalar IntersectionExampleScenario.node[10].nic.mac1609_4 	DroppedPacketsInMac 	0
scalar IntersectionExampleScenario.node[10].nic.mac1609_4 	TooLittleTime 	0
scalar IntersectionExampleScenario.node[10].nic.mac1609_4 	TimesIntoBackoff 	0
scalar IntersectionExampleScenario.node[10].nic.mac1609_4 	SlotsBackoff 	0
scalar IntersectionExampleScenario.node[10].nic.mac1609_4 	NumInternalContention 	0
scalar IntersectionExampleScenario.node[10].nic.mac1609_4 	totalBusyTime 	0
scalar IntersectionExampleScenario.node[10].veinsmobility 	startTime 	25.75
scalar IntersectionExampleScenario.node[10].veinsmobility 	totalTime 	95.5
scalar IntersectionExampleScenario.node[10].veinsmobility 	stopTime 	121.5
scalar IntersectionExampleScenario.node[10].veinsmobility 	minSpeed 	0
scalar IntersectionExampleScenario.node[10].veinsmobility 	maxSpeed 	15.375
scalar IntersectionExampleScenario.node[10].veinsmobility 	totalDistance 	583.79866345227
scalar IntersectionExampleScenario.node[10].veinsmobility 	totalCO2Emission 	201.2202454763
scalar IntersectionExampleScenario.node[12].appl 	VehicleRemoved 	0
scalar IntersectionExampleScenario.node[12].appl 	ArrivedAtDest 	1
scalar IntersectionExampleScenario.node[12].appl 	IntersectionEnterTime 	35.75
scalar IntersectionExampleScenario.node[12].appl 	IntersectionExitTime 	106.57536073204
scalar IntersectionExampleScenario.node[12].appl 	NumberOfCollisions 	0
scalar IntersectionExampleScenario.node[12].nic.phy80211p 	busyTime 	0
scalar IntersectionExampleScenario.node[12].nic.mac1609_4 	ReceivedUnicastPackets 	0
scalar IntersectionExampleScenario.node[12].nic.mac1609_4 	ReceivedBroadcasts 	0
scalar IntersectionExampleScenario.node[12].nic.mac1609_4 	SentPackets 	0
scalar IntersectionExampleScenario.node[12].nic.mac1609_4 	SNIRLostPackets 	0
scalar IntersectionExampleScenario.node[12].nic.mac1609_4 	RXTXLostPackets 	0
scalar IntersectionExampleScenario.node[12].nic.mac1609_4 	TotalLostPackets 	0
scalar IntersectionExampleScenario.node[12].nic.mac1609_4 	DroppedPacketsInMac 	0
scalar IntersectionExampleScenario.node[12].nic.mac1609_4 	TooLittleTime 	0
scalar IntersectionExampleScenario.node[12].nic.mac1609_4 	TimesIntoBackoff 	0
scalar IntersectionExampleScenario.node[12].nic.mac1609_4 	SlotsBackoff 	0
scalar IntersectionExampleScenario.node[12].nic.mac1609_4 	NumInternalContention 	0
scalar IntersectionExampleScenario.node[12].nic.mac1609_4 	totalBusyTime 	0
scalar IntersectionExampleScenario.node[12].veinsmobility 	startTime 	35.75
scalar IntersectionExampleScenario.node[12].veinsmobility 	totalTime 	87
scalar IntersectionExampleScenario.node[12].veinsmobility 	stopTime 	123
scalar IntersectionExampleScenario.node[12].veinsmobility 	minSpeed 	0
scalar IntersectionExampleScenario.node[12].veinsmobility 	maxSpeed 	15.64999961853
scalar IntersectionExampleScenario.node[12].veinsmobility 	totalDistance 	554.54349517822
scalar IntersectionExampleScenario.node[12].veinsmobility 	totalCO2Emission 	180.50050407518
scalar IntersectionExampleScenario.node[18].appl 	VehicleRemoved 	0
scalar IntersectionExampleScenario.node[18].appl 	ArrivedAtDest 	1
scalar IntersectionExampleScenario.node[18].appl 	IntersectionEnterTime 	57
scalar IntersectionExampleScenario.node[18].appl 	IntersectionExitTime 	109.09863952699
scalar IntersectionExampleScenario.node[18].appl 	NumberOfCollisions 	0
scalar IntersectionExampleScenario.node[18].nic.phy80211p 	busyTime 	0
scalar IntersectionExampleScenario.node[18].nic.mac1609_4 	ReceivedUnicastPackets 	0
scalar IntersectionExampleScenario.node[18].nic.mac1609_4 	ReceivedBroadcasts 	0
scalar IntersectionExampleScenario.node[18].nic.mac1609_4 	SentPackets 	0
scalar IntersectionExampleScenario.node[18].nic.mac1609_4 	SNIRLostPackets 	0
scalar IntersectionExampleScenario.node[18].nic.mac1609_4 	RXTXLostPackets 	0
scalar IntersectionExampleScenario.node[18].nic.mac1609_4 	TotalLostPackets 	0
scalar IntersectionExampleScenario.node[18].nic.mac1609_4 	DroppedPacketsInMac 	0
scalar IntersectionExampleScenario.node[18].nic.mac1609_4 	TooLittleTime 	0
scalar IntersectionExampleScenario.node[18].nic.mac1609_4 	TimesIntoBackoff 	0
scalar IntersectionExampleScenario.node[18].nic.mac1609_4 	SlotsBackoff 	0
scalar IntersectionExampleScenario.node[18].nic.mac1609_4 	NumInternalContention 	0
scalar IntersectionExampleScenario.node[18].nic.mac1609_4 	totalBusyTime 	0
scalar IntersectionExampleScenario.node[18].veinsmobility 	startTime 	57
scalar IntersectionExampleScenario.node[18].veinsmobility 	totalTime 	68.25
scalar IntersectionExampleScenario.node[18].veinsmobility 	stopTime 	125.5
scalar IntersectionExampleScenario.node[18].veinsmobility 	minSpeed 	0
scalar IntersectionExampleScenario.node[18].veinsmobility 	maxSpeed 	15.64999961853
scalar IntersectionExampleScenario.node[18].veinsmobility 	totalDistance 	549.57102364955
scalar IntersectionExampleScenario.node[18].veinsmobility 	totalCO2Emission 	166.88093499714
scalar IntersectionExampleScenario.node[22].appl 	VehicleRemoved 	0
scalar IntersectionExampleScenario.node[22].appl 	ArrivedAtDest 	1
scalar IntersectionExampleScenario.node[22].appl 	IntersectionEnterTime 	73.75
scalar IntersectionExampleScenario.node[22].appl 	IntersectionExitTime 	110.58559033595
scalar IntersectionExampleScenario.node[22].appl 	NumberOfCollisions 	0
scalar IntersectionExampleScenario.node[22].nic.phy80211p 	busyTime 	0
scalar IntersectionExampleScenario.node[22].nic.mac1609_4 	ReceivedUnicastPackets 	0
scalar IntersectionExampleScenario.node[22].nic.mac1609_4 	ReceivedBroadcasts 	0
scalar IntersectionExampleScenario.node[22].nic.mac1609_4 	SentPackets 	0
scalar IntersectionExampleScenario.node[22].nic.mac1609_4 	SNIRLostPackets 	0
scalar IntersectionExampleScenario.node[22].nic.mac1609_4 	RXTXLostPackets 	0
scalar IntersectionExampleScenario.node[22].nic.mac1609_4 	TotalLostPackets 	0
scalar IntersectionExampleScenario.node[22].nic.mac1609_4 	DroppedPacketsInMac 	0
scalar IntersectionExampleScenario.node[22].nic.mac1609_4 	TooLittleTime 	0
scalar IntersectionExampleScenario.node[22].nic.mac1609_4 	TimesIntoBackoff 	0
scalar IntersectionExampleScenario.node[22].nic.mac1609_4 	SlotsBackoff 	0
scalar IntersectionExampleScenario.node[22].nic.mac1609_4 	NumInternalContention 	0
scalar IntersectionExampleScenario.node[22].nic.mac1609_4 	totalBusyTime 	0
scalar IntersectionExampleScenario.node[22].veinsmobility 	startTime 	73.75
scalar IntersectionExampleScenario.node[22].veinsmobility 	totalTime 	52
scalar IntersectionExampleScenario.node[22].veinsmobility 	stopTime 	126
scalar IntersectionExampleScenario.node[22].veinsmobility 	minSpeed 	1.4718384742737
scalar IntersectionExampleScenario.node[22].veinsmobility 	maxSpeed 	16.27499961853
scalar IntersectionExampleScenario.node[22].veinsmobility 	totalDistance 	550.70523834229
scalar IntersectionExampleScenario.node[22].veinsmobility 	totalCO2Emission 	152.16003989359
scalar IntersectionExampleScenario.node[29].appl 	VehicleRemoved 	0
scalar IntersectionExampleScenario.node[29].appl 	ArrivedAtDest 	1
scalar IntersectionExampleScenario.node[29].appl 	IntersectionEnterTime 	95.25
scalar IntersectionExampleScenario.node[29].appl 	IntersectionExitTime 	118.52953876287
scalar IntersectionExampleScenario.node[29].appl 	NumberOfCollisions 	0
scalar IntersectionExampleScenario.node[29].nic.phy80211p 	busyTime 	0
scalar IntersectionExampleScenario.node[29].nic.mac1609_4 	ReceivedUnicastPackets 	0
scalar IntersectionExampleScenario.node[29].nic.mac1609_4 	ReceivedBroadcasts 	0
scalar IntersectionExampleScenario.node[29].nic.mac1609_4 	SentPackets 	0
scalar IntersectionExampleScenario.node[29].nic.mac1609_4 	SNIRLostPackets 	0
scalar IntersectionExampleScenario.node[29].nic.mac1609_4 	RXTXLostPackets 	0
scalar IntersectionExampleScenario.node[29].nic.mac1609_4 	TotalLostPackets 	0
scalar IntersectionExampleScenario.node[29].nic.mac1609_4 	DroppedPacketsInMac 	0
scalar IntersectionExampleScenario.node[29].nic.mac1609_4 	TooLittleTime 	0
scalar IntersectionExampleScenario.node[29].nic.mac1609_4 	TimesIntoBackoff 	0
scalar IntersectionExampleScenario.node[29].nic.mac1609_4 	SlotsBackoff 	0
scalar IntersectionExampleScenario.node[29].nic.mac1609_4 	NumInternalContention 	0
scalar IntersectionExampleScenario.node[29].nic.mac1609_4 	totalBusyTime 	0
scalar IntersectionExampleScenario.node[29].veinsmobility 	startTime 	95.25
scalar IntersectionExampleScenario.node[29].veinsmobility 	totalTime 	39.5
scalar IntersectionExampleScenario.node[29].veinsmobility 	stopTime 	135
scalar IntersectionExampleScenario.node[29].veinsmobility 	minSpeed 	5.6500000953674
scalar IntersectionExampleScenario.node[29].veinsmobility 	maxSpeed 	15.64999961853
scalar IntersectionExampleScenario.node[29].veinsmobility 	totalDistance 	550.74513661167
scalar IntersectionExampleScenario.node[29].veinsmobility 	totalCO2Emission 	122.88181662431
scalar IntersectionExampleScenario.node[30].appl 	VehicleRemoved 	0
scalar IntersectionExampleScenario.node[30].appl 	ArrivedAtDest 	1
scalar IntersectionExampleScenario.node[30].appl 	IntersectionEnterTime 	96.25
scalar IntersectionExampleScenario.node[30].appl 	IntersectionExitTime 	120.78922784908
scalar IntersectionExampleScenario.node[30].appl 	NumberOfCollisions 	0
scalar IntersectionExampleScenario.node[30].nic.phy80211p 	busyTime 	0
scalar IntersectionExampleScenario.node[30].nic.mac1609_4 	ReceivedUnicastPackets 	0
scalar IntersectionExampleScenario.node[30].nic.mac1609_4 	ReceivedBroadcasts 	0
scalar IntersectionExampleScenario.node[30].nic.mac1609_4 	SentPackets 	0
scalar IntersectionExampleScenario.node[30].nic.mac1609_4 	SNIRLostPackets 	0
scalar IntersectionExampleScenario.node[30].nic.mac1609_4 	RXTXLostPackets 	0
scalar IntersectionExampleScenario.node[30].nic.mac1609_4 	TotalLostPackets 	0
scalar IntersectionExampleScenario.node[30].nic.mac1609_4 	DroppedPacketsInMac 	0
scalar IntersectionExampleScenario.node[30].nic.mac1609_4 	TooLittleTime 	0
scalar IntersectionExampleScenario.node[30].nic.mac1609_4 	TimesIntoBackoff 	0
scalar IntersectionExampleScenario.node[30].nic.mac1609_4 	SlotsBackoff 	0
scalar IntersectionExampleScenario.node[30].nic.mac1609_4 	NumInternalContention 	0
scalar IntersectionExampleScenario.node[30].nic.mac1609_4 	totalBusyTime 	0
scalar IntersectionExampleScenario.node[30].veinsmobility 	startTime 	96.25
scalar IntersectionExampleScenario.node[30].veinsmobility 	totalTime 	40.5
scalar IntersectionExampleScenario.node[30].veinsmobility 	stopTime 	137
scalar IntersectionExampleScenario.node[30].veinsmobility 	minSpeed 	5.6500000953674
scalar IntersectionExampleScenario.node[30].veinsmobility 	maxSpeed 	15.64999961853
scalar IntersectionExampleScenario.node[30].veinsmobility 	totalDistance 	574.60814666748
scalar IntersectionExampleScenario.node[30].veinsmobility 	totalCO2Emission 	131.33798962789
scalar IntersectionExampleScenario.node[1].appl 	VehicleRemoved 	0
scalar IntersectionExampleScenario.node[1].appl 	ArrivedAtDest 	1
scalar IntersectionExampleScenario.node[1].appl 	IntersectionEnterTime 	10.25
scalar IntersectionExampleScenario.node[1].appl 	IntersectionExitTime 	125.27041555609
scalar IntersectionExampleScenario.node[1].appl 	NumberOfCollisions 	0
scalar IntersectionExampleScenario.node[1].nic.phy80211p 	busyTime 	0
scalar IntersectionExampleScenario.node[1].nic.mac1609_4 	ReceivedUnicastPackets 	0
scalar IntersectionExampleScenario.node[1].nic.mac1609_4 	ReceivedBroadcasts 	0
scalar IntersectionExampleScenario.node[1].nic.mac1609_4 	SentPackets 	0
scalar IntersectionExampleScenario.node[1].nic.mac1609_4 	SNIRLostPackets 	0
scalar IntersectionExampleScenario.node[1].nic.mac1609_4 	RXTXLostPackets 	0
scalar IntersectionExampleScenario.node[1].nic.mac1609_4 	TotalLostPackets 	0
scalar IntersectionExampleScenario.node[1].nic.mac1609_4 	DroppedPacketsInMac 	0
scalar IntersectionExampleScenario.node[1].nic.mac1609_4 	TooLittleTime 	0
scalar IntersectionExampleScenario.node[1].nic.mac1609_4 	TimesIntoBackoff 	0
scalar IntersectionExampleScenario.node[1].nic.mac1609_4 	SlotsBackoff 	0
scalar IntersectionExampleScenario.node[1].nic.mac1609_4 	NumInternalContention 	0
scalar IntersectionExampleScenario.node[1].nic.mac1609_4 	totalBusyTime 	0
scalar IntersectionExampleScenario.node[1].veinsmobility 	startTime 	10.25
scalar IntersectionExampleScenario.node[1].veinsmobility 	totalTime 	131
scalar IntersectionExampleScenario.node[1].veinsmobility 	stopTime 	141.5
scalar IntersectionExampleScenario.node[1].veinsmobility 	minSpeed 	0
scalar IntersectionExampleScenario.node[1].veinsmobility 	maxSpeed 	15.64999961853
scalar IntersectionExampleScenario.node[1].veinsmobility 	totalDistance 	554.18723297119
scalar IntersectionExampleScenario.node[1].veinsmobility 	totalCO2Emission 	223.96927662703
scalar IntersectionExampleScenario.node[6].appl 	VehicleRemoved 	0
scalar IntersectionExampleScenario.node[6].appl 	ArrivedAtDest 	1
scalar IntersectionExampleScenario.node[6].appl 	IntersectionEnterTime 	22.25
scalar IntersectionExampleScenario.node[6].appl 	IntersectionExitTime 	126.25931759769
scalar IntersectionExampleScenario.node[6].appl 	NumberOfCollisions 	0
scalar IntersectionExampleScenario.node[6].nic.phy80211p 	busyTime 	0
scalar IntersectionExampleScenario.node[6].nic.mac1609_4 	ReceivedUnicastPackets 	0
scalar IntersectionExampleScenario.node[6].nic.mac1609_4 	ReceivedBroadcasts 	0
scalar IntersectionExampleScenario.node[6].nic.mac1609_4 	SentPackets 	0
scalar IntersectionExampleScenario.node[6].nic.mac1609_4 	SNIRLostPackets 	0
scalar IntersectionExampleScenario.node[6].nic.mac1609_4 	RXTXLostPackets 	0
scalar IntersectionExampleScenario.node[6].nic.mac1609_4 	TotalLostPackets 	0
scalar IntersectionExampleScenario.node[6].nic.mac1609_4 	DroppedPacketsInMac 	0
scalar IntersectionExampleScenario.node[6].nic.mac1609_4 	TooLittleTime 	0
scalar IntersectionExampleScenario.node[6].nic.mac1609_4 	TimesIntoBackoff 	0
scalar IntersectionExampleScenario.node[6].nic.mac1609_4 	SlotsBackoff 	0
scalar IntersectionExampleScenario.node[6].nic.mac1609_4 	NumInternalContention 	0
scalar IntersectionExampleScenario.node[6].nic.mac1609_4 	totalBusyTime 	0
scalar IntersectionExampleScenario.node[6].veinsmobility 	startTime 	22.25
scalar IntersectionExampleScenario.node[6].veinsmobility 	totalTime 	120.25
scalar IntersectionExampleScenario.node[6].veinsmobility 	stopTime 	142.75
scalar IntersectionExampleScenario.node[6].veinsmobility 	minSpeed 	0
scalar IntersectionExampleScenario.node[6].veinsmobility 	maxSpeed 	15.64999961853
scalar IntersectionExampleScenario.node[6].veinsmobility 	totalDistance 	548.94074312211
scalar IntersectionExampleScenario.node[6].veinsmobility 	totalCO2Emission 	208.97795714601
scalar IntersectionExampleScenario.node[11].appl 	VehicleRemoved 	0
scalar IntersectionExampleScenario.node[11].appl 	ArrivedAtDest 	1
scalar IntersectionExampleScenario.node[11].appl 	IntersectionEnterTime 	33.25
scalar IntersectionExampleScenario.node[11].appl 	IntersectionExitTime 	128.59868678707
scalar IntersectionExampleScenario.node[11].appl 	NumberOfCollisions 	0
scalar IntersectionExampleScenario.node[11].nic.phy80211p 	busyTime 	0
scalar IntersectionExampleScenario.node[11].nic.mac1609_4 	ReceivedUnicastPackets 	0
scalar IntersectionExampleScenario.node[11].nic.mac1609_4 	ReceivedBroadcasts 	0
scalar IntersectionExampleScenario.node[11].nic.mac1609_4 	SentPackets 	0
scalar IntersectionExampleScenario.node[11].nic.mac1609_4 	SNIRLostPackets 	0
scalar IntersectionExampleScenario.node[11].nic.mac1609_4 	RXTXLostPackets 	0
scalar IntersectionExampleScenario.node[11].nic.mac1609_4 	TotalLostPackets 	0
scalar IntersectionExampleScenario.node[11].nic.mac1609_4 	DroppedPacketsInMac 	0
scalar IntersectionExampleScenario.node[11].nic.mac1609_4 	TooLittleTime 	0
scalar IntersectionExampleScenario.node[11].nic.mac1609_4 	TimesIntoBackoff 	0
scalar IntersectionExampleScenario.node[11].nic.mac1609_4 	SlotsBackoff 	0
scalar IntersectionExampleScenario.node[11].nic.mac1609_4 	NumInternalContention 	0
scalar IntersectionExampleScenario.node[11].nic.mac1609_4 	totalBusyTime 	0
scalar IntersectionExampleScenario.node[11].veinsmobility 	startTime 	33.25
scalar IntersectionExampleScenario.node[11].veinsmobility 	totalTime 	111.75
scalar IntersectionExampleScenario.node[11].veinsmobility 	stopTime 	145.25
scalar IntersectionExampleScenario.node[11].veinsmobility 	minSpeed 	0
scalar IntersectionExampleScenario.node[11].veinsmobility 	maxSpeed 	15.875
scalar IntersectionExampleScenario.node[11].veinsmobility 	totalDistance 	543.5979313827
scalar IntersectionExampleScenario.node[11].veinsmobility 	totalCO2Emission 	201.82122361837
scalar IntersectionExampleScenario.node[17].appl 	VehicleRemoved 	0
scalar IntersectionExampleScenario.node[17].appl 	ArrivedAtDest 	1
scalar IntersectionExampleScenario.node[17].appl 	IntersectionEnterTime 	53.25
scalar IntersectionExampleScenario.node[17].appl 	IntersectionExitTime 	131.33136816107
scalar IntersectionExampleScenario.node[17].appl 	NumberOfCollisions 	0
scalar IntersectionExampleScenario.node[17].nic.phy80211p 	busyTime 	0
scalar IntersectionExampleScenario.node[17].nic.mac1609_4 	ReceivedUnicastPackets 	0
scalar IntersectionExampleScenario.node[17].nic.mac1609_4 	ReceivedBroadcasts 	0
scalar IntersectionExampleScenario.node[17].nic.mac1609_4 	SentPackets 	0
scalar IntersectionExampleScenario.node[17].nic.mac1609_4 	SNIRLostPackets 	0
scalar IntersectionExampleScenario.node[17].nic.mac1609_4 	RXTXLostPackets 	0
scalar IntersectionExampleScenario.node[17].nic.mac1609_4 	TotalLostPackets 	0
scalar IntersectionExampleScenario.node[17].nic.mac1609_4 	DroppedPacketsInMac 	0
scalar IntersectionExampleScenario.node[17].nic.mac1609_4 	TooLittleTime 	0
scalar IntersectionExampleScenario.node[17].nic.mac1609_4 	TimesIntoBackoff 	0
scalar IntersectionExampleScenario.node[17].nic.mac1609_4 	SlotsBackoff 	0
scalar IntersectionExampleScenario.node[17].nic.mac1609_4 	NumInternalContention 	0
scalar IntersectionExampleScenario.node[17].nic.mac1609_4 	totalBusyTime 	0
scalar IntersectionExampleScenario.node[17].veinsmobility 	startTime 	53.25
scalar IntersectionExampleScenario.node[17].veinsmobility 	totalTime 	95.25
scalar IntersectionExampleScenario.node[17].veinsmobility 	stopTime 	148.75
scalar IntersectionExampleScenario.node[17].veinsmobility 	minSpeed 	0
scalar IntersectionExampleScenario.node[17].veinsmobility 	maxSpeed 	14.75
scalar IntersectionExampleScenario.node[17].veinsmobility 	totalDistance 	552.62855423421
scalar IntersectionExampleScenario.node[17].veinsmobility 	totalCO2Emission 	178.85349428486
scalar IntersectionExampleScenario.node[19].appl 	VehicleRemoved 	0
scalar IntersectionExampleScenario.node[19].appl 	ArrivedAtDest 	1
scalar IntersectionExampleScenario.node[19].appl 	IntersectionEnterTime 	58.75
scalar IntersectionExampleScenario.node[19].appl 	IntersectionExitTime 	133.5477003126
scalar IntersectionExampleScenario.node[19].appl 	NumberOfCollisions 	0
scalar IntersectionExampleScenario.node[19].nic.phy80211p 	busyTime 	0
scalar IntersectionExampleScenario.node[19].nic.mac1609_4 	ReceivedUnicastPackets 	0
scalar IntersectionExampleScenario.node[19].nic.mac1609_4 	ReceivedBroadcasts 	0
scalar IntersectionExampleScenario.node[19].nic.mac1609_4 	SentPackets 	0
scalar IntersectionExampleScenario.node[19].nic.mac1609_4 	SNIRLostPackets 	0
scalar IntersectionExampleScenario.node[19].nic.mac1609_4 	RXTXLostPackets 	0
scalar IntersectionExampleScenario.node[19].nic.mac1609_4 	TotalLostPackets 	0
scalar IntersectionExampleScenario.node[19].nic.mac1609_4 	DroppedPacketsInMac 	0
scalar IntersectionExampleScenario.node[19].nic.mac1609_4 	TooLittleTime 	0
scalar IntersectionExampleScenario.node[19].nic.mac1609_4 	TimesIntoBackoff 	0
scalar IntersectionExampleScenario.node[19].nic.mac1609_4 	SlotsBackoff 	0
scalar IntersectionExampleScenario.node[19].nic.mac1609_4 	NumInternalContention 	0
scalar IntersectionExampleScenario.node[19].nic.mac1609_4 	totalBusyTime 	0
scalar IntersectionExampleScenario.node[19].veinsmobility 	startTime 	58.75
scalar IntersectionExampleScenario.node[19].veinsmobility 	totalTime 	91.25
scalar IntersectionExampleScenario.node[19].veinsmobility 	stopTime 	150.25
scalar IntersectionExampleScenario.node[19].veinsmobility 	minSpeed 	0
scalar IntersectionExampleScenario.node[19].veinsmobility 	maxSpeed 	15.875
scalar IntersectionExampleScenario.node[19].veinsmobility 	totalDistance 	544.97093167924
scalar IntersectionExampleScenario.node[19].veinsmobility 	totalCO2Emission 	187.55503792933
scalar IntersectionExampleScenario.node[27].appl 	VehicleRemoved 	0
scalar IntersectionExampleScenario.node[27].appl 	ArrivedAtDest 	1
scalar IntersectionExampleScenario.node[27].appl 	IntersectionEnterTime 	85.5
scalar IntersectionExampleScenario.node[27].appl 	IntersectionExitTime 	135.87092360938
scalar IntersectionExampleScenario.node[27].appl 	NumberOfCollisions 	0
scalar IntersectionExampleScenario.node[27].nic.phy80211p 	busyTime 	0
scalar IntersectionExampleScenario.node[27].nic.mac1609_4 	ReceivedUnicastPackets 	0
scalar IntersectionExampleScenario.node[27].nic.mac1609_4 	ReceivedBroadcasts 	0
scalar IntersectionExampleScenario.node[27].nic.mac1609_4 	SentPackets 	0
scalar IntersectionExampleScenario.node[27].nic.mac1609_4 	SNIRLostPackets 	0
scalar IntersectionExampleScenario.node[27].nic.mac1609_4 	RXTXLostPackets 	0
scalar IntersectionExampleScenario.node[27].nic.mac1609_4 	TotalLostPackets 	0
scalar IntersectionExampleScenario.node[27].nic.mac1609_4 	DroppedPacketsInMac 	0
scalar IntersectionExampleScenario.node[27].nic.mac1609_4 	TooLittleTime 	0
scalar IntersectionExampleScenario.node[27].nic.mac1609_4 	TimesIntoBackoff 	0
scalar IntersectionExampleScenario.node[27].nic.mac1609_4 	SlotsBackoff 	0
scalar IntersectionExampleScenario.node[27].nic.mac1609_4 	NumInternalContention 	0
scalar IntersectionExampleScenario.node[27].nic.mac1609_4 	totalBusyTime 	0
scalar IntersectionExampleScenario.node[27].veinsmobility 	startTime 	85.5
scalar IntersectionExampleScenario.node[27].veinsmobility 	totalTime 	67.25
scalar IntersectionExampleScenario.node[27].veinsmobility 	stopTime 	153
scalar IntersectionExampleScenario.node[27].veinsmobility 	minSpeed 	0
scalar IntersectionExampleScenario.node[27].veinsmobility 	maxSpeed 	15.64999961853
scalar IntersectionExampleScenario.node[27].veinsmobility 	totalDistance 	546.36818788046
scalar IntersectionExampleScenario.node[27].veinsmobility 	totalCO2Emission 	157.37068982243
scalar IntersectionExampleScenario.node[33].appl 	VehicleRemoved 	0
scalar IntersectionExampleScenario.node[33].appl 	ArrivedAtDest 	1
scalar IntersectionExampleScenario.node[33].appl 	IntersectionEnterTime 	105.75
scalar IntersectionExampleScenario.node[33].appl 	IntersectionExitTime 	137.79653613555
scalar IntersectionExampleScenario.node[33].appl 	NumberOfCollisions 	0
scalar IntersectionExampleScenario.node[33].nic.phy80211p 	busyTime 	0
scalar IntersectionExampleScenario.node[33].nic.mac1609_4 	ReceivedUnicastPackets 	0
scalar IntersectionExampleScenario.node[33].nic.mac1609_4 	ReceivedBroadcasts 	0
scalar IntersectionExampleScenario.node[33].nic.mac1609_4 	SentPackets 	0
scalar IntersectionExampleScenario.node[33].nic.mac1609_4 	SNIRLostPackets 	0
scalar IntersectionExampleScenario.node[33].nic.mac1609_4 	RXTXLostPackets 	0
scalar IntersectionExampleScenario.node[33].nic.mac1609_4 	TotalLostPackets 	0
scalar IntersectionExampleScenario.node[33].nic.mac1609_4 	DroppedPacketsInMac 	0
scalar IntersectionExampleScenario.node[33].nic.mac1609_4 	TooLittleTime 	0
scalar IntersectionExampleScenario.node[33].nic.mac1609_4 	TimesIntoBackoff 	0
scalar IntersectionExampleScenario.node[33].nic.mac1609_4 	SlotsBackoff 	0
scalar IntersectionExampleScenario.node[33].nic.mac1609_4 	NumInternalContention 	0
scalar IntersectionExampleScenario.node[33].nic.mac1609_4 	totalBusyTime 	0
scalar IntersectionExampleScenario.node[33].veinsmobility 	startTime 	105.75
scalar IntersectionExampleScenario.node[33].veinsmobility 	totalTime 	48.75
scalar IntersectionExampleScenario.node[33].veinsmobility 	stopTime 	154.75
scalar IntersectionExampleScenario.node[33].veinsmobility 	minSpeed 	3.1092486381531
scalar IntersectionExampleScenario.node[33].veinsmobility 	maxSpeed 	15.64999961853
scalar IntersectionExampleScenario.node[33].veinsmobility 	totalDistance 	546.19287209467
scalar IntersectionExampleScenario.node[33].veinsmobility 	totalCO2Emission 	140.24361058439
scalar IntersectionExampleScenario.node[36].appl 	VehicleRemoved 	0
scalar IntersectionExampleScenario.node[36].appl 	ArrivedAtDest 	1
scalar IntersectionExampleScenario.node[36].appl 	IntersectionEnterTime 	125
scalar IntersectionExampleScenario.node[36].appl 	IntersectionExitTime 	147.01437869115
scalar IntersectionExampleScenario.node[36].appl 	NumberOfCollisions 	0
scalar IntersectionExampleScenario.node[36].nic.phy80211p 	busyTime 	0
scalar IntersectionExampleScenario.node[36].nic.mac1609_4 	ReceivedUnicastPackets 	0
scalar IntersectionExampleScenario.node[36].nic.mac1609_4 	ReceivedBroadcasts 	0
scalar IntersectionExampleScenario.node[36].nic.mac1609_4 	SentPackets 	0
scalar IntersectionExampleScenario.node[36].nic.mac1609_4 	SNIRLostPackets 	0
scalar IntersectionExampleScenario.node[36].nic.mac1609_4 	RXTXLostPackets 	0
scalar IntersectionExampleScenario.node[36].nic.mac1609_4 	TotalLostPackets 	0
scalar IntersectionExampleScenario.node[36].nic.mac1609_4 	DroppedPacketsInMac 	0
scalar IntersectionExampleScenario.node[36].nic.mac1609_4 	TooLittleTime 	0
scalar IntersectionExampleScenario.node[36].nic.mac1609_4 	TimesIntoBackoff 	0
scalar IntersectionExampleScenario.node[36].nic.mac1609_4 	SlotsBackoff 	0
scalar IntersectionExampleScenario.node[36].nic.mac1609_4 	NumInternalContention 	0
scalar IntersectionExampleScenario.node[36].nic.mac1609_4 	totalBusyTime 	0
scalar IntersectionExampleScenario.node[36].veinsmobility 	startTime 	125
scalar IntersectionExampleScenario.node[36].veinsmobility 	totalTime 	37
scalar IntersectionExampleScenario.node[36].veinsmobility 	stopTime 	162.25
scalar IntersectionExampleScenario.node[36].veinsmobility 	minSpeed 	5.6500000953674
scalar IntersectionExampleScenario.node[36].veinsmobility 	maxSpeed 	17.25
scalar IntersectionExampleScenario.node[36].veinsmobility 	totalDistance 	548.83938509981
scalar IntersectionExampleScenario.node[36].veinsmobility 	totalCO2Emission 	132.58390056761
scalar IntersectionExampleScenario.node[37].appl 	VehicleRemoved 	0
scalar IntersectionExampleScenario.node[37].appl 	ArrivedAtDest 	1
scalar IntersectionExampleScenario.node[37].appl 	IntersectionEnterTime 	127.5
scalar IntersectionExampleScenario.node[37].appl 	IntersectionExitTime 	151.05676031709
scalar IntersectionExampleScenario.node[37].appl 	NumberOfCollisions 	0
scalar IntersectionExampleScenario.node[37].nic.phy80211p 	busyTime 	0
scalar IntersectionExampleScenario.node[37].nic.mac1609_4 	ReceivedUnicastPackets 	0
scalar IntersectionExampleScenario.node[37].nic.mac1609_4 	ReceivedBroadcasts 	0
scalar IntersectionExampleScenario.node[37].nic.mac1609_4 	SentPackets 	0
scalar IntersectionExampleScenario.node[37].nic.mac1609_4 	SNIRLostPackets 	0
scalar IntersectionExampleScenario.node[37].nic.mac1609_4 	RXTXLostPackets 	0
scalar IntersectionExampleScenario.node[37].nic.mac1609_4 	TotalLostPackets 	0
scalar IntersectionExampleScenario.node[37].nic.mac1609_4 	DroppedPacketsInMac 	0
scalar IntersectionExampleScenario.node[37].nic.mac1609_4 	TooLittleTime 	0
scalar IntersectionExampleScenario.node[37].nic.mac1609_4 	TimesIntoBackoff 	0
scalar IntersectionExampleScenario.node[37].nic.mac1609_4 	SlotsBackoff 	0
scalar IntersectionExampleScenario.node[37].nic.mac1609_4 	NumInternalContention 	0
scalar IntersectionExampleScenario.node[37].nic.mac1609_4 	totalBusyTime 	0
scalar IntersectionExampleScenario.node[37].veinsmobility 	startTime 	127.5
scalar IntersectionExampleScenario.node[37].veinsmobility 	totalTime 	39.25
scalar IntersectionExampleScenario.node[37].veinsmobility 	stopTime 	167
scalar IntersectionExampleScenario.node[37].veinsmobility 	minSpeed 	5.6500000953674
scalar IntersectionExampleScenario.node[37].veinsmobility 	maxSpeed 	16.125
scalar IntersectionExampleScenario.node[37].veinsmobility 	totalDistance 	569.2474822998
scalar IntersectionExampleScenario.node[37].veinsmobility 	totalCO2Emission 	122.01815206681
scalar IntersectionExampleScenario.node[24].appl 	VehicleRemoved 	0
scalar IntersectionExampleScenario.node[24].appl 	ArrivedAtDest 	1
scalar IntersectionExampleScenario.node[24].appl 	IntersectionEnterTime 	75
scalar IntersectionExampleScenario.node[24].appl 	IntersectionExitTime 	156.3403444002
scalar IntersectionExampleScenario.node[24].appl 	NumberOfCollisions 	0
scalar IntersectionExampleScenario.node[24].nic.phy80211p 	busyTime 	0
scalar IntersectionExampleScenario.node[24].nic.mac1609_4 	ReceivedUnicastPackets 	0
scalar IntersectionExampleScenario.node[24].nic.mac1609_4 	ReceivedBroadcasts 	0
scalar IntersectionExampleScenario.node[24].nic.mac1609_4 	SentPackets 	0
scalar IntersectionExampleScenario.node[24].nic.mac1609_4 	SNIRLostPackets 	0
scalar IntersectionExampleScenario.node[24].nic.mac1609_4 	RXTXLostPackets 	0
scalar IntersectionExampleScenario.node[24].nic.mac1609_4 	TotalLostPackets 	0
scalar IntersectionExampleScenario.node[24].nic.mac1609_4 	DroppedPacketsInMac 	0
scalar IntersectionExampleScenario.node[24].nic.mac1609_4 	TooLittleTime 	0
scalar IntersectionExampleScenario.node[24].nic.mac1609_4 	TimesIntoBackoff 	0
scalar IntersectionExampleScenario.node[24].nic.mac1609_4 	SlotsBackoff 	0
scalar IntersectionExampleScenario.node[24].nic.mac1609_4 	NumInternalContention 	0
scalar IntersectionExampleScenario.node[24].nic.mac1609_4 	totalBusyTime 	0
scalar IntersectionExampleScenario.node[24].veinsmobility 	startTime 	75
scalar IntersectionExampleScenario.node[24].veinsmobility 	totalTime 	97.25
scalar IntersectionExampleScenario.node[24].veinsmobility 	stopTime 	172.5
scalar IntersectionExampleScenario.node[24].veinsmobility 	minSpeed 	0
scalar IntersectionExampleScenario.node[24].veinsmobility 	maxSpeed 	15.5
scalar IntersectionExampleScenario.node[24].veinsmobility 	totalDistance 	561.72383117676
scalar IntersectionExampleScenario.node[24].veinsmobility 	totalCO2Emission 	190.70725717062
scalar IntersectionExampleScenario.node[21].appl 	VehicleRemoved 	0
scalar IntersectionExampleScenario.node[21].appl 	ArrivedAtDest 	1
scalar IntersectionExampleScenario.node[21].appl 	IntersectionEnterTime 	71.25
scalar IntersectionExampleScenario.node[21].appl 	IntersectionExitTime 	155.36760971654
scalar IntersectionExampleScenario.node[21].appl 	NumberOfCollisions 	0
scalar IntersectionExampleScenario.node[21].nic.phy80211p 	busyTime 	0
scalar IntersectionExampleScenario.node[21].nic.mac1609_4 	ReceivedUnicastPackets 	0
scalar IntersectionExampleScenario.node[21].nic.mac1609_4 	ReceivedBroadcasts 	0
scalar IntersectionExampleScenario.node[21].nic.mac1609_4 	SentPackets 	0
scalar IntersectionExampleScenario.node[21].nic.mac1609_4 	SNIRLostPackets 	0
scalar IntersectionExampleScenario.node[21].nic.mac1609_4 	RXTXLostPackets 	0
scalar IntersectionExampleScenario.node[21].nic.mac1609_4 	TotalLostPackets 	0
scalar IntersectionExampleScenario.node[21].nic.mac1609_4 	DroppedPacketsInMac 	0
scalar IntersectionExampleScenario.node[21].nic.mac1609_4 	TooLittleTime 	0
scalar IntersectionExampleScenario.node[21].nic.mac1609_4 	TimesIntoBackoff 	0
scalar IntersectionExampleScenario.node[21].nic.mac1609_4 	SlotsBackoff 	0
scalar IntersectionExampleScenario.node[21].nic.mac1609_4 	NumInternalContention 	0
scalar IntersectionExampleScenario.node[21].nic.mac1609_4 	totalBusyTime 	0
scalar IntersectionExampleScenario.node[21].veinsmobility 	startTime 	71.25
scalar IntersectionExampleScenario.node[21].veinsmobility 	totalTime 	101
scalar IntersectionExampleScenario.node[21].veinsmobility 	stopTime 	172.5
scalar IntersectionExampleScenario.node[21].veinsmobility 	minSpeed 	0
scalar IntersectionExampleScenario.node[21].veinsmobility 	maxSpeed 	14.75
scalar IntersectionExampleScenario.node[21].veinsmobility 	totalDistance 	549.74894060245
scalar IntersectionExampleScenario.node[21].veinsmobility 	totalCO2Emission 	184.30245375628
scalar IntersectionExampleScenario.node[25].appl 	VehicleRemoved 	0
scalar IntersectionExampleScenario.node[25].appl 	ArrivedAtDest 	1
scalar IntersectionExampleScenario.node[25].appl 	IntersectionEnterTime 	78.5
scalar IntersectionExampleScenario.node[25].appl 	IntersectionExitTime 	158.82137321364
scalar IntersectionExampleScenario.node[25].appl 	NumberOfCollisions 	0
scalar IntersectionExampleScenario.node[25].nic.phy80211p 	busyTime 	0
scalar IntersectionExampleScenario.node[25].nic.mac1609_4 	ReceivedUnicastPackets 	0
scalar IntersectionExampleScenario.node[25].nic.mac1609_4 	ReceivedBroadcasts 	0
scalar IntersectionExampleScenario.node[25].nic.mac1609_4 	SentPackets 	0
scalar IntersectionExampleScenario.node[25].nic.mac1609_4 	SNIRLostPackets 	0
scalar IntersectionExampleScenario.node[25].nic.mac1609_4 	RXTXLostPackets 	0
scalar IntersectionExampleScenario.node[25].nic.mac1609_4 	TotalLostPackets 	0
scalar IntersectionExampleScenario.node[25].nic.mac1609_4 	DroppedPacketsInMac 	0
scalar IntersectionExampleScenario.node[25].nic.mac1609_4 	TooLittleTime 	0
scalar IntersectionExampleScenario.node[25].nic.mac1609_4 	TimesIntoBackoff 	0
scalar IntersectionExampleScenario.node[25].nic.mac1609_4 	SlotsBackoff 	0
scalar IntersectionExampleScenario.node[25].nic.mac1609_4 	NumInternalContention 	0
scalar IntersectionExampleScenario.node[25].nic.mac1609_4 	totalBusyTime 	0
scalar IntersectionExampleScenario.node[25].veinsmobility 	startTime 	78.5
scalar IntersectionExampleScenario.node[25].veinsmobility 	totalTime 	96.75
scalar IntersectionExampleScenario.node[25].veinsmobility 	stopTime 	175.5
scalar IntersectionExampleScenario.node[25].veinsmobility 	minSpeed 	0
scalar IntersectionExampleScenario.node[25].veinsmobility 	maxSpeed 	15.02499961853
scalar IntersectionExampleScenario.node[25].veinsmobility 	totalDistance 	563.79456496478
scalar IntersectionExampleScenario.node[25].veinsmobility 	totalCO2Emission 	186.3537075308
scalar IntersectionExampleScenario.node[26].appl 	VehicleRemoved 	0
scalar IntersectionExampleScenario.node[26].appl 	ArrivedAtDest 	1
scalar IntersectionExampleScenario.node[26].appl 	IntersectionEnterTime 	83.5
scalar IntersectionExampleScenario.node[26].appl 	IntersectionExitTime 	160.87375088705
scalar IntersectionExampleScenario.node[26].appl 	NumberOfCollisions 	0
scalar IntersectionExampleScenario.node[26].nic.phy80211p 	busyTime 	0
scalar IntersectionExampleScenario.node[26].nic.mac1609_4 	ReceivedUnicastPackets 	0
scalar IntersectionExampleScenario.node[26].nic.mac1609_4 	ReceivedBroadcasts 	0
scalar IntersectionExampleScenario.node[26].nic.mac1609_4 	SentPackets 	0
scalar IntersectionExampleScenario.node[26].nic.mac1609_4 	SNIRLostPackets 	0
scalar IntersectionExampleScenario.node[26].nic.mac1609_4 	RXTXLostPackets 	0
scalar IntersectionExampleScenario.node[26].nic.mac1609_4 	TotalLostPackets 	0
scalar IntersectionExampleScenario.node[26].nic.mac1609_4 	DroppedPacketsInMac 	0
scalar IntersectionExampleScenario.node[26].nic.mac1609_4 	TooLittleTime 	0
scalar IntersectionExampleScenario.node[26].nic.mac1609_4 	TimesIntoBackoff 	0
scalar IntersectionExampleScenario.node[26].nic.mac1609_4 	SlotsBackoff 	0
scalar IntersectionExampleScenario.node[26].nic.mac1609_4 	NumInternalContention 	0
scalar IntersectionExampleScenario.node[26].nic.mac1609_4 	totalBusyTime 	0
scalar IntersectionExampleScenario.node[26].veinsmobility 	startTime 	83.5
scalar IntersectionExampleScenario.node[26].veinsmobility 	totalTime 	92.75
scalar IntersectionExampleScenario.node[26].veinsmobility 	stopTime 	176.5
scalar IntersectionExampleScenario.node[26].veinsmobility 	minSpeed 	0
scalar IntersectionExampleScenario.node[26].veinsmobility 	maxSpeed 	15.671595573425
scalar IntersectionExampleScenario.node[26].veinsmobility 	totalDistance 	557.38800048828
scalar IntersectionExampleScenario.node[26].veinsmobility 	totalCO2Emission 	186.60675379868
scalar IntersectionExampleScenario.node[31].appl 	VehicleRemoved 	0
scalar IntersectionExampleScenario.node[31].appl 	ArrivedAtDest 	1
scalar IntersectionExampleScenario.node[31].appl 	IntersectionEnterTime 	96.25
scalar IntersectionExampleScenario.node[31].appl 	IntersectionExitTime 	163.0995932302
scalar IntersectionExampleScenario.node[31].appl 	NumberOfCollisions 	0
scalar IntersectionExampleScenario.node[31].nic.phy80211p 	busyTime 	0
scalar IntersectionExampleScenario.node[31].nic.mac1609_4 	ReceivedUnicastPackets 	0
scalar IntersectionExampleScenario.node[31].nic.mac1609_4 	ReceivedBroadcasts 	0
scalar IntersectionExampleScenario.node[31].nic.mac1609_4 	SentPackets 	0
scalar IntersectionExampleScenario.node[31].nic.mac1609_4 	SNIRLostPackets 	0
scalar IntersectionExampleScenario.node[31].nic.mac1609_4 	RXTXLostPackets 	0
scalar IntersectionExampleScenario.node[31].nic.mac1609_4 	TotalLostPackets 	0
scalar IntersectionExampleScenario.node[31].nic.mac1609_4 	DroppedPacketsInMac 	0
scalar IntersectionExampleScenario.node[31].nic.mac1609_4 	TooLittleTime 	0
scalar IntersectionExampleScenario.node[31].nic.mac1609_4 	TimesIntoBackoff 	0
scalar IntersectionExampleScenario.node[31].nic.mac1609_4 	SlotsBackoff 	0
scalar IntersectionExampleScenario.node[31].nic.mac1609_4 	NumInternalContention 	0
scalar IntersectionExampleScenario.node[31].nic.mac1609_4 	totalBusyTime 	0
scalar IntersectionExampleScenario.node[31].veinsmobility 	startTime 	96.25
scalar IntersectionExampleScenario.node[31].veinsmobility 	totalTime 	83.25
scalar IntersectionExampleScenario.node[31].veinsmobility 	stopTime 	179.75
scalar IntersectionExampleScenario.node[31].veinsmobility 	minSpeed 	0
scalar IntersectionExampleScenario.node[31].veinsmobility 	maxSpeed 	15.875
scalar IntersectionExampleScenario.node[31].veinsmobility 	totalDistance 	546.25800219976
scalar IntersectionExampleScenario.node[31].veinsmobility 	totalCO2Emission 	180.55383733237
scalar IntersectionExampleScenario.node[38].appl 	VehicleRemoved 	0
scalar IntersectionExampleScenario.node[38].appl 	ArrivedAtDest 	1
scalar IntersectionExampleScenario.node[38].appl 	IntersectionEnterTime 	128
scalar IntersectionExampleScenario.node[38].appl 	IntersectionExitTime 	165.31000441234
scalar IntersectionExampleScenario.node[38].appl 	NumberOfCollisions 	0
scalar IntersectionExampleScenario.node[38].nic.phy80211p 	busyTime 	0
scalar IntersectionExampleScenario.node[38].nic.mac1609_4 	ReceivedUnicastPackets 	0
scalar IntersectionExampleScenario.node[38].nic.mac1609_4 	ReceivedBroadcasts 	0
scalar IntersectionExampleScenario.node[38].nic.mac1609_4 	SentPackets 	0
scalar IntersectionExampleScenario.node[38].nic.mac1609_4 	SNIRLostPackets 	0
scalar IntersectionExampleScenario.node[38].nic.mac1609_4 	RXTXLostPackets 	0
scalar IntersectionExampleScenario.node[38].nic.mac1609_4 	TotalLostPackets 	0
scalar IntersectionExampleScenario.node[38].nic.mac1609_4 	DroppedPacketsInMac 	0
scalar IntersectionExampleScenario.node[38].nic.mac1609_4 	TooLittleTime 	0
scalar IntersectionExampleScenario.node[38].nic.mac1609_4 	TimesIntoBackoff 	0
scalar IntersectionExampleScenario.node[38].nic.mac1609_4 	SlotsBackoff 	0
scalar IntersectionExampleScenario.node[38].nic.mac1609_4 	NumInternalContention 	0
scalar IntersectionExampleScenario.node[38].nic.mac1609_4 	totalBusyTime 	0
scalar IntersectionExampleScenario.node[38].veinsmobility 	startTime 	128
scalar IntersectionExampleScenario.node[38].veinsmobility 	totalTime 	54
scalar IntersectionExampleScenario.node[38].veinsmobility 	stopTime 	182.25
scalar IntersectionExampleScenario.node[38].veinsmobility 	minSpeed 	0
scalar IntersectionExampleScenario.node[38].veinsmobility 	maxSpeed 	15.02499961853
scalar IntersectionExampleScenario.node[38].veinsmobility 	totalDistance 	550.22515132582
scalar IntersectionExampleScenario.node[38].veinsmobility 	totalCO2Emission 	142.2130789153
scalar IntersectionExampleScenario.node[40].appl 	VehicleRemoved 	0
scalar IntersectionExampleScenario.node[40].appl 	ArrivedAtDest 	1
scalar IntersectionExampleScenario.node[40].appl 	IntersectionEnterTime 	131.5
scalar IntersectionExampleScenario.node[40].appl 	IntersectionExitTime 	167.54067219273
scalar IntersectionExampleScenario.node[40].appl 	NumberOfCollisions 	0
scalar IntersectionExampleScenario.node[40].nic.phy80211p 	busyTime 	0
scalar IntersectionExampleScenario.node[40].nic.mac1609_4 	ReceivedUnicastPackets 	0
scalar IntersectionExampleScenario.node[40].nic.mac1609_4 	ReceivedBroadcasts 	0
scalar IntersectionExampleScenario.node[40].nic.mac1609_4 	SentPackets 	0
scalar IntersectionExampleScenario.node[40].nic.mac1609_4 	SNIRLostPackets 	0
scalar IntersectionExampleScenario.node[40].nic.mac1609_4 	RXTXLostPackets 	0
scalar IntersectionExampleScenario.node[40].nic.mac1609_4 	TotalLostPackets 	0
scalar IntersectionExampleScenario.node[40].nic.mac1609_4 	DroppedPacketsInMac 	0
scalar IntersectionExampleScenario.node[40].nic.mac1609_4 	TooLittleTime 	0
scalar IntersectionExampleScenario.node[40].nic.mac1609_4 	TimesIntoBackoff 	0
scalar IntersectionExampleScenario.node[40].nic.mac1609_4 	SlotsBackoff 	0
scalar IntersectionExampleScenario.node[40].nic.mac1609_4 	NumInternalContention 	0
scalar IntersectionExampleScenario.node[40].nic.mac1609_4 	totalBusyTime 	0
scalar IntersectionExampleScenario.node[40].veinsmobility 	startTime 	131.5
scalar IntersectionExampleScenario.node[40].veinsmobility 	totalTime 	53
scalar IntersectionExampleScenario.node[40].veinsmobility 	stopTime 	184.75
scalar IntersectionExampleScenario.node[40].veinsmobility 	minSpeed 	1.5738532543182
scalar IntersectionExampleScenario.node[40].veinsmobility 	maxSpeed 	15.25
scalar IntersectionExampleScenario.node[40].veinsmobility 	totalDistance 	555.55423888112
scalar IntersectionExampleScenario.node[40].veinsmobility 	totalCO2Emission 	148.15182726814
scalar IntersectionExampleScenario.node[47].appl 	VehicleRemoved 	0
scalar IntersectionExampleScenario.node[47].appl 	ArrivedAtDest 	1
scalar IntersectionExampleScenario.node[47].appl 	IntersectionEnterTime 	154.25
scalar IntersectionExampleScenario.node[47].appl 	IntersectionExitTime 	177.36635223439
scalar IntersectionExampleScenario.node[47].appl 	NumberOfCollisions 	0
scalar IntersectionExampleScenario.node[47].nic.phy80211p 	busyTime 	0
scalar IntersectionExampleScenario.node[47].nic.mac1609_4 	ReceivedUnicastPackets 	0
scalar IntersectionExampleScenario.node[47].nic.mac1609_4 	ReceivedBroadcasts 	0
scalar IntersectionExampleScenario.node[47].nic.mac1609_4 	SentPackets 	0
scalar IntersectionExampleScenario.node[47].nic.mac1609_4 	SNIRLostPackets 	0
scalar IntersectionExampleScenario.node[47].nic.mac1609_4 	RXTXLostPackets 	0
scalar IntersectionExampleScenario.node[47].nic.mac1609_4 	TotalLostPackets 	0
scalar IntersectionExampleScenario.node[47].nic.mac1609_4 	DroppedPacketsInMac 	0
scalar IntersectionExampleScenario.node[47].nic.mac1609_4 	TooLittleTime 	0
scalar IntersectionExampleScenario.node[47].nic.mac1609_4 	TimesIntoBackoff 	0
scalar IntersectionExampleScenario.node[47].nic.mac1609_4 	SlotsBackoff 	0
scalar IntersectionExampleScenario.node[47].nic.mac1609_4 	NumInternalContention 	0
scalar IntersectionExampleScenario.node[47].nic.mac1609_4 	totalBusyTime 	0
scalar IntersectionExampleScenario.node[47].veinsmobility 	startTime 	154.25
scalar IntersectionExampleScenario.node[47].veinsmobility 	totalTime 	39.25
scalar IntersectionExampleScenario.node[47].veinsmobility 	stopTime 	193.75
scalar IntersectionExampleScenario.node[47].veinsmobility 	minSpeed 	5.6500000953674
scalar IntersectionExampleScenario.node[47].veinsmobility 	maxSpeed 	15.64999961853
scalar IntersectionExampleScenario.node[47].veinsmobility 	totalDistance 	549.99327646805
scalar IntersectionExampleScenario.node[47].veinsmobility 	totalCO2Emission 	123.03689066274
scalar IntersectionExampleScenario.node[23].appl 	VehicleRemoved 	0
scalar IntersectionExampleScenario.node[23].appl 	ArrivedAtDest 	1
scalar IntersectionExampleScenario.node[23].appl 	IntersectionEnterTime 	73.75
scalar IntersectionExampleScenario.node[23].appl 	IntersectionExitTime 	184.52965269732
scalar IntersectionExampleScenario.node[23].appl 	NumberOfCollisions 	0
scalar IntersectionExampleScenario.node[23].nic.phy80211p 	busyTime 	0
scalar IntersectionExampleScenario.node[23].nic.mac1609_4 	ReceivedUnicastPackets 	0
scalar IntersectionExampleScenario.node[23].nic.mac1609_4 	ReceivedBroadcasts 	0
scalar IntersectionExampleScenario.node[23].nic.mac1609_4 	SentPackets 	0
scalar IntersectionExampleScenario.node[23].nic.mac1609_4 	SNIRLostPackets 	0
scalar IntersectionExampleScenario.node[23].nic.mac1609_4 	RXTXLostPackets 	0
scalar IntersectionExampleScenario.node[23].nic.mac1609_4 	TotalLostPackets 	0
scalar IntersectionExampleScenario.node[23].nic.mac1609_4 	DroppedPacketsInMac 	0
scalar IntersectionExampleScenario.node[23].nic.mac1609_4 	TooLittleTime 	0
scalar IntersectionExampleScenario.node[23].nic.mac1609_4 	TimesIntoBackoff 	0
scalar IntersectionExampleScenario.node[23].nic.mac1609_4 	SlotsBackoff 	0
scalar IntersectionExampleScenario.node[23].nic.mac1609_4 	NumInternalContention 	0
scalar IntersectionExampleScenario.node[23].nic.mac1609_4 	totalBusyTime 	0
scalar IntersectionExampleScenario.node[23].veinsmobility 	startTime 	73.75
scalar IntersectionExampleScenario.node[23].veinsmobility 	totalTime 	127.25
scalar IntersectionExampleScenario.node[23].veinsmobility 	stopTime 	201.25
scalar IntersectionExampleScenario.node[23].veinsmobility 	minSpeed 	0
scalar IntersectionExampleScenario.node[23].veinsmobility 	maxSpeed 	15.875
scalar IntersectionExampleScenario.node[23].veinsmobility 	totalDistance 	545.340872778
scalar IntersectionExampleScenario.node[23].veinsmobility 	totalCO2Emission 	222.48685616749
scalar IntersectionExampleScenario.node[28].appl 	VehicleRemoved 	0
scalar IntersectionExampleScenario.node[28].appl 	ArrivedAtDest 	1
scalar IntersectionExampleScenario.node[28].appl 	IntersectionEnterTime 	92.75
scalar IntersectionExampleScenario.node[28].appl 	IntersectionExitTime 	187.25930662573
scalar IntersectionExampleScenario.node[28].appl 	NumberOfCollisions 	0
scalar IntersectionExampleScenario.node[28].nic.phy80211p 	busyTime 	0
scalar IntersectionExampleScenario.node[28].nic.mac1609_4 	ReceivedUnicastPackets 	0
scalar IntersectionExampleScenario.node[28].nic.mac1609_4 	ReceivedBroadcasts 	0
scalar IntersectionExampleScenario.node[28].nic.mac1609_4 	SentPackets 	0
scalar IntersectionExampleScenario.node[28].nic.mac1609_4 	SNIRLostPackets 	0
scalar IntersectionExampleScenario.node[28].nic.mac1609_4 	RXTXLostPackets 	0
scalar IntersectionExampleScenario.node[28].nic.mac1609_4 	TotalLostPackets 	0
scalar IntersectionExampleScenario.node[28].nic.mac1609_4 	DroppedPacketsInMac 	0
scalar IntersectionExampleScenario.node[28].nic.mac1609_4 	TooLittleTime 	0
scalar IntersectionExampleScenario.node[28].nic.mac1609_4 	TimesIntoBackoff 	0
scalar IntersectionExampleScenario.node[28].nic.mac1609_4 	SlotsBackoff 	0
scalar IntersectionExampleScenario.node[28].nic.mac1609_4 	NumInternalContention 	0
scalar IntersectionExampleScenario.node[28].nic.mac1609_4 	totalBusyTime 	0
scalar IntersectionExampleScenario.node[28].veinsmobility 	startTime 	92.75
scalar IntersectionExampleScenario.node[28].veinsmobility 	totalTime 	111.75
scalar IntersectionExampleScenario.node[28].veinsmobility 	stopTime 	204.75
scalar IntersectionExampleScenario.node[28].veinsmobility 	minSpeed 	0
scalar IntersectionExampleScenario.node[28].veinsmobility 	maxSpeed 	15.02499961853
scalar IntersectionExampleScenario.node[28].veinsmobility 	totalDistance 	542.75849694907
scalar IntersectionExampleScenario.node[28].veinsmobility 	totalCO2Emission 	195.2596066317
scalar IntersectionExampleScenario.node[43].appl 	VehicleRemoved 	0
scalar IntersectionExampleScenario.node[43].appl 	ArrivedAtDest 	1
scalar IntersectionExampleScenario.node[43].appl 	IntersectionEnterTime 	139.75
scalar IntersectionExampleScenario.node[43].appl 	IntersectionExitTime 	189.81383770009
scalar IntersectionExampleScenario.node[43].appl 	NumberOfCollisions 	0
scalar IntersectionExampleScenario.node[43].nic.phy80211p 	busyTime 	0
scalar IntersectionExampleScenario.node[43].nic.mac1609_4 	ReceivedUnicastPackets 	0
scalar IntersectionExampleScenario.node[43].nic.mac1609_4 	ReceivedBroadcasts 	0
scalar IntersectionExampleScenario.node[43].nic.mac1609_4 	SentPackets 	0
scalar IntersectionExampleScenario.node[43].nic.mac1609_4 	SNIRLostPackets 	0
scalar IntersectionExampleScenario.node[43].nic.mac1609_4 	RXTXLostPackets 	0
scalar IntersectionExampleScenario.node[43].nic.mac1609_4 	TotalLostPackets 	0
scalar IntersectionExampleScenario.node[43].nic.mac1609_4 	DroppedPacketsInMac 	0
scalar IntersectionExampleScenario.node[43].nic.mac1609_4 	TooLittleTime 	0
scalar IntersectionExampleScenario.node[43].nic.mac1609_4 	TimesIntoBackoff 	0
scalar IntersectionExampleScenario.node[43].nic.mac1609_4 	SlotsBackoff 	0
scalar IntersectionExampleScenario.node[43].nic.mac1609_4 	NumInternalContention 	0
scalar IntersectionExampleScenario.node[43].nic.mac1609_4 	totalBusyTime 	0
scalar IntersectionExampleScenario.node[43].veinsmobility 	startTime 	139.75
scalar IntersectionExampleScenario.node[43].veinsmobility 	totalTime 	66
scalar IntersectionExampleScenario.node[43].veinsmobility 	stopTime 	206
scalar IntersectionExampleScenario.node[43].veinsmobility 	minSpeed 	0
scalar IntersectionExampleScenario.node[43].veinsmobility 	maxSpeed 	16
scalar IntersectionExampleScenario.node[43].veinsmobility 	totalDistance 	549.90318607523
scalar IntersectionExampleScenario.node[43].veinsmobility 	totalCO2Emission 	158.78753117408
scalar IntersectionExampleScenario.node[45].appl 	VehicleRemoved 	0
scalar IntersectionExampleScenario.node[45].appl 	ArrivedAtDest 	1
scalar IntersectionExampleScenario.node[45].appl 	IntersectionEnterTime 	143
scalar IntersectionExampleScenario.node[45].appl 	IntersectionExitTime 	191.81682430027
scalar IntersectionExampleScenario.node[45].appl 	NumberOfCollisions 	0
scalar IntersectionExampleScenario.node[45].nic.phy80211p 	busyTime 	0
scalar IntersectionExampleScenario.node[45].nic.mac1609_4 	ReceivedUnicastPackets 	0
scalar IntersectionExampleScenario.node[45].nic.mac1609_4 	ReceivedBroadcasts 	0
scalar IntersectionExampleScenario.node[45].nic.mac1609_4 	SentPackets 	0
scalar IntersectionExampleScenario.node[45].nic.mac1609_4 	SNIRLostPackets 	0
scalar IntersectionExampleScenario.node[45].nic.mac1609_4 	RXTXLostPackets 	0
scalar IntersectionExampleScenario.node[45].nic.mac1609_4 	TotalLostPackets 	0
scalar IntersectionExampleScenario.node[45].nic.mac1609_4 	DroppedPacketsInMac 	0
scalar IntersectionExampleScenario.node[45].nic.mac1609_4 	TooLittleTime 	0
scalar IntersectionExampleScenario.node[45].nic.mac1609_4 	TimesIntoBackoff 	0
scalar IntersectionExampleScenario.node[45].nic.mac1609_4 	SlotsBackoff 	0
[...]
scalar IntersectionExampleScenario.node[196].veinsmobility 	totalCO2Emission 	220.8490741935
scalar IntersectionExampleScenario.node[198].appl 	VehicleRemoved 	0
scalar IntersectionExampleScenario.node[198].appl 	ArrivedAtDest 	1
scalar IntersectionExampleScenario.node[198].appl 	IntersectionEnterTime 	667.75
scalar IntersectionExampleScenario.node[198].appl 	IntersectionExitTime 	762.26573860299
scalar IntersectionExampleScenario.node[198].appl 	NumberOfCollisions 	0
scalar IntersectionExampleScenario.node[198].nic.phy80211p 	busyTime 	0
scalar IntersectionExampleScenario.node[198].nic.mac1609_4 	ReceivedUnicastPackets 	0
scalar IntersectionExampleScenario.node[198].nic.mac1609_4 	ReceivedBroadcasts 	0
scalar IntersectionExampleScenario.node[198].nic.mac1609_4 	SentPackets 	0
scalar IntersectionExampleScenario.node[198].nic.mac1609_4 	SNIRLostPackets 	0
scalar IntersectionExampleScenario.node[198].nic.mac1609_4 	RXTXLostPackets 	0
scalar IntersectionExampleScenario.node[198].nic.mac1609_4 	TotalLostPackets 	0
scalar IntersectionExampleScenario.node[198].nic.mac1609_4 	DroppedPacketsInMac 	0
scalar IntersectionExampleScenario.node[198].nic.mac1609_4 	TooLittleTime 	0
scalar IntersectionExampleScenario.node[198].nic.mac1609_4 	TimesIntoBackoff 	0
scalar IntersectionExampleScenario.node[198].nic.mac1609_4 	SlotsBackoff 	0
scalar IntersectionExampleScenario.node[198].nic.mac1609_4 	NumInternalContention 	0
scalar IntersectionExampleScenario.node[198].nic.mac1609_4 	totalBusyTime 	0
scalar IntersectionExampleScenario.node[198].veinsmobility 	startTime 	667.75
scalar IntersectionExampleScenario.node[198].veinsmobility 	totalTime 	112
scalar IntersectionExampleScenario.node[198].veinsmobility 	stopTime 	780
scalar IntersectionExampleScenario.node[198].veinsmobility 	minSpeed 	0
scalar IntersectionExampleScenario.node[198].veinsmobility 	maxSpeed 	14.625
scalar IntersectionExampleScenario.node[198].veinsmobility 	totalDistance 	543.60620411876
scalar IntersectionExampleScenario.node[198].veinsmobility 	totalCO2Emission 	193.21297539768
scalar IntersectionExampleScenario.node[200].appl 	VehicleRemoved 	0
scalar IntersectionExampleScenario.node[200].appl 	ArrivedAtDest 	1
scalar IntersectionExampleScenario.node[200].appl 	IntersectionEnterTime 	672
scalar IntersectionExampleScenario.node[200].appl 	IntersectionExitTime 	764.60850372066
scalar IntersectionExampleScenario.node[200].appl 	NumberOfCollisions 	0
scalar IntersectionExampleScenario.node[200].nic.phy80211p 	busyTime 	0
scalar IntersectionExampleScenario.node[200].nic.mac1609_4 	ReceivedUnicastPackets 	0
scalar IntersectionExampleScenario.node[200].nic.mac1609_4 	ReceivedBroadcasts 	0
scalar IntersectionExampleScenario.node[200].nic.mac1609_4 	SentPackets 	0
scalar IntersectionExampleScenario.node[200].nic.mac1609_4 	SNIRLostPackets 	0
scalar IntersectionExampleScenario.node[200].nic.mac1609_4 	RXTXLostPackets 	0
scalar IntersectionExampleScenario.node[200].nic.mac1609_4 	TotalLostPackets 	0
scalar IntersectionExampleScenario.node[200].nic.mac1609_4 	DroppedPacketsInMac 	0
scalar IntersectionExampleScenario.node[200].nic.mac1609_4 	TooLittleTime 	0
scalar IntersectionExampleScenario.node[200].nic.mac1609_4 	TimesIntoBackoff 	0
scalar IntersectionExampleScenario.node[200].nic.mac1609_4 	SlotsBackoff 	0
scalar IntersectionExampleScenario.node[200].nic.mac1609_4 	NumInternalContention 	0
scalar IntersectionExampleScenario.node[200].nic.mac1609_4 	totalBusyTime 	0
scalar IntersectionExampleScenario.node[200].veinsmobility 	startTime 	672
scalar IntersectionExampleScenario.node[200].veinsmobility 	totalTime 	109.5
scalar IntersectionExampleScenario.node[200].veinsmobility 	stopTime 	781.75
scalar IntersectionExampleScenario.node[200].veinsmobility 	minSpeed 	0
scalar IntersectionExampleScenario.node[200].veinsmobility 	maxSpeed 	15.029483795166
scalar IntersectionExampleScenario.node[200].veinsmobility 	totalDistance 	549.45779359145
scalar IntersectionExampleScenario.node[200].veinsmobility 	totalCO2Emission 	197.5768030682
scalar IntersectionExampleScenario.node[201].appl 	VehicleRemoved 	0
scalar IntersectionExampleScenario.node[201].appl 	ArrivedAtDest 	1
scalar IntersectionExampleScenario.node[201].appl 	IntersectionEnterTime 	683
scalar IntersectionExampleScenario.node[201].appl 	IntersectionExitTime 	766.61137363437
scalar IntersectionExampleScenario.node[201].appl 	NumberOfCollisions 	0
scalar IntersectionExampleScenario.node[201].nic.phy80211p 	busyTime 	0
scalar IntersectionExampleScenario.node[201].nic.mac1609_4 	ReceivedUnicastPackets 	0
scalar IntersectionExampleScenario.node[201].nic.mac1609_4 	ReceivedBroadcasts 	0
scalar IntersectionExampleScenario.node[201].nic.mac1609_4 	SentPackets 	0
scalar IntersectionExampleScenario.node[201].nic.mac1609_4 	SNIRLostPackets 	0
scalar IntersectionExampleScenario.node[201].nic.mac1609_4 	RXTXLostPackets 	0
scalar IntersectionExampleScenario.node[201].nic.mac1609_4 	TotalLostPackets 	0
scalar IntersectionExampleScenario.node[201].nic.mac1609_4 	DroppedPacketsInMac 	0
scalar IntersectionExampleScenario.node[201].nic.mac1609_4 	TooLittleTime 	0
scalar IntersectionExampleScenario.node[201].nic.mac1609_4 	TimesIntoBackoff 	0
scalar IntersectionExampleScenario.node[201].nic.mac1609_4 	SlotsBackoff 	0
scalar IntersectionExampleScenario.node[201].nic.mac1609_4 	NumInternalContention 	0
scalar IntersectionExampleScenario.node[201].nic.mac1609_4 	totalBusyTime 	0
scalar IntersectionExampleScenario.node[201].veinsmobility 	startTime 	683
scalar IntersectionExampleScenario.node[201].veinsmobility 	totalTime 	99.25
scalar IntersectionExampleScenario.node[201].veinsmobility 	stopTime 	782.5
scalar IntersectionExampleScenario.node[201].veinsmobility 	minSpeed 	0
scalar IntersectionExampleScenario.node[201].veinsmobility 	maxSpeed 	15.64999961853
scalar IntersectionExampleScenario.node[201].veinsmobility 	totalDistance 	551.79524230957
scalar IntersectionExampleScenario.node[201].veinsmobility 	totalCO2Emission 	189.53999508191
scalar IntersectionExampleScenario.node[203].appl 	VehicleRemoved 	0
scalar IntersectionExampleScenario.node[203].appl 	ArrivedAtDest 	1
scalar IntersectionExampleScenario.node[203].appl 	IntersectionEnterTime 	691.5
scalar IntersectionExampleScenario.node[203].appl 	IntersectionExitTime 	768.75213285498
scalar IntersectionExampleScenario.node[203].appl 	NumberOfCollisions 	0
scalar IntersectionExampleScenario.node[203].nic.phy80211p 	busyTime 	0
scalar IntersectionExampleScenario.node[203].nic.mac1609_4 	ReceivedUnicastPackets 	0
scalar IntersectionExampleScenario.node[203].nic.mac1609_4 	ReceivedBroadcasts 	0
scalar IntersectionExampleScenario.node[203].nic.mac1609_4 	SentPackets 	0
scalar IntersectionExampleScenario.node[203].nic.mac1609_4 	SNIRLostPackets 	0
scalar IntersectionExampleScenario.node[203].nic.mac1609_4 	RXTXLostPackets 	0
scalar IntersectionExampleScenario.node[203].nic.mac1609_4 	TotalLostPackets 	0
scalar IntersectionExampleScenario.node[203].nic.mac1609_4 	DroppedPacketsInMac 	0
scalar IntersectionExampleScenario.node[203].nic.mac1609_4 	TooLittleTime 	0
scalar IntersectionExampleScenario.node[203].nic.mac1609_4 	TimesIntoBackoff 	0
scalar IntersectionExampleScenario.node[203].nic.mac1609_4 	SlotsBackoff 	0
scalar IntersectionExampleScenario.node[203].nic.mac1609_4 	NumInternalContention 	0
scalar IntersectionExampleScenario.node[203].nic.mac1609_4 	totalBusyTime 	0
scalar IntersectionExampleScenario.node[203].veinsmobility 	startTime 	691.5
scalar IntersectionExampleScenario.node[203].veinsmobility 	totalTime 	93.5
scalar IntersectionExampleScenario.node[203].veinsmobility 	stopTime 	785.25
scalar IntersectionExampleScenario.node[203].veinsmobility 	minSpeed 	0
scalar IntersectionExampleScenario.node[203].veinsmobility 	maxSpeed 	15.64999961853
scalar IntersectionExampleScenario.node[203].veinsmobility 	totalDistance 	550.37558711401
scalar IntersectionExampleScenario.node[203].veinsmobility 	totalCO2Emission 	182.41918739346
scalar IntersectionExampleScenario.node[209].appl 	VehicleRemoved 	0
scalar IntersectionExampleScenario.node[209].appl 	ArrivedAtDest 	1
scalar IntersectionExampleScenario.node[209].appl 	IntersectionEnterTime 	708
scalar IntersectionExampleScenario.node[209].appl 	IntersectionExitTime 	771.6248743649
scalar IntersectionExampleScenario.node[209].appl 	NumberOfCollisions 	0
scalar IntersectionExampleScenario.node[209].nic.phy80211p 	busyTime 	0
scalar IntersectionExampleScenario.node[209].nic.mac1609_4 	ReceivedUnicastPackets 	0
scalar IntersectionExampleScenario.node[209].nic.mac1609_4 	ReceivedBroadcasts 	0
scalar IntersectionExampleScenario.node[209].nic.mac1609_4 	SentPackets 	0
scalar IntersectionExampleScenario.node[209].nic.mac1609_4 	SNIRLostPackets 	0
scalar IntersectionExampleScenario.node[209].nic.mac1609_4 	RXTXLostPackets 	0
scalar IntersectionExampleScenario.node[209].nic.mac1609_4 	TotalLostPackets 	0
scalar IntersectionExampleScenario.node[209].nic.mac1609_4 	DroppedPacketsInMac 	0
scalar IntersectionExampleScenario.node[209].nic.mac1609_4 	TooLittleTime 	0
scalar IntersectionExampleScenario.node[209].nic.mac1609_4 	TimesIntoBackoff 	0
scalar IntersectionExampleScenario.node[209].nic.mac1609_4 	SlotsBackoff 	0
scalar IntersectionExampleScenario.node[209].nic.mac1609_4 	NumInternalContention 	0
scalar IntersectionExampleScenario.node[209].nic.mac1609_4 	totalBusyTime 	0
scalar IntersectionExampleScenario.node[209].veinsmobility 	startTime 	708
scalar IntersectionExampleScenario.node[209].veinsmobility 	totalTime 	80.25
scalar IntersectionExampleScenario.node[209].veinsmobility 	stopTime 	788.5
scalar IntersectionExampleScenario.node[209].veinsmobility 	minSpeed 	0
scalar IntersectionExampleScenario.node[209].veinsmobility 	maxSpeed 	15.375
scalar IntersectionExampleScenario.node[209].veinsmobility 	totalDistance 	552.32076849828
scalar IntersectionExampleScenario.node[209].veinsmobility 	totalCO2Emission 	168.77752137437
scalar IntersectionExampleScenario.node[214].appl 	VehicleRemoved 	0
scalar IntersectionExampleScenario.node[214].appl 	ArrivedAtDest 	1
scalar IntersectionExampleScenario.node[214].appl 	IntersectionEnterTime 	731.75
scalar IntersectionExampleScenario.node[214].appl 	IntersectionExitTime 	773.07187748278
scalar IntersectionExampleScenario.node[214].appl 	NumberOfCollisions 	0
scalar IntersectionExampleScenario.node[214].nic.phy80211p 	busyTime 	0
scalar IntersectionExampleScenario.node[214].nic.mac1609_4 	ReceivedUnicastPackets 	0
scalar IntersectionExampleScenario.node[214].nic.mac1609_4 	ReceivedBroadcasts 	0
scalar IntersectionExampleScenario.node[214].nic.mac1609_4 	SentPackets 	0
scalar IntersectionExampleScenario.node[214].nic.mac1609_4 	SNIRLostPackets 	0
scalar IntersectionExampleScenario.node[214].nic.mac1609_4 	RXTXLostPackets 	0
scalar IntersectionExampleScenario.node[214].nic.mac1609_4 	TotalLostPackets 	0
scalar IntersectionExampleScenario.node[214].nic.mac1609_4 	DroppedPacketsInMac 	0
scalar IntersectionExampleScenario.node[214].nic.mac1609_4 	TooLittleTime 	0
scalar IntersectionExampleScenario.node[214].nic.mac1609_4 	TimesIntoBackoff 	0
scalar IntersectionExampleScenario.node[214].nic.mac1609_4 	SlotsBackoff 	0
scalar IntersectionExampleScenario.node[214].nic.mac1609_4 	NumInternalContention 	0
scalar IntersectionExampleScenario.node[214].nic.mac1609_4 	totalBusyTime 	0
scalar IntersectionExampleScenario.node[214].veinsmobility 	startTime 	731.75
scalar IntersectionExampleScenario.node[214].veinsmobility 	totalTime 	56.75
scalar IntersectionExampleScenario.node[214].veinsmobility 	stopTime 	788.75
scalar IntersectionExampleScenario.node[214].veinsmobility 	minSpeed 	0
scalar IntersectionExampleScenario.node[214].veinsmobility 	maxSpeed 	16.27499961853
scalar IntersectionExampleScenario.node[214].veinsmobility 	totalDistance 	551.21685791598
scalar IntersectionExampleScenario.node[214].veinsmobility 	totalCO2Emission 	153.49933631583
scalar IntersectionExampleScenario.node[215].appl 	VehicleRemoved 	0
scalar IntersectionExampleScenario.node[215].appl 	ArrivedAtDest 	1
scalar IntersectionExampleScenario.node[215].appl 	IntersectionEnterTime 	734.5
scalar IntersectionExampleScenario.node[215].appl 	IntersectionExitTime 	775.32240703324
scalar IntersectionExampleScenario.node[215].appl 	NumberOfCollisions 	0
scalar IntersectionExampleScenario.node[215].nic.phy80211p 	busyTime 	0
scalar IntersectionExampleScenario.node[215].nic.mac1609_4 	ReceivedUnicastPackets 	0
scalar IntersectionExampleScenario.node[215].nic.mac1609_4 	ReceivedBroadcasts 	0
scalar IntersectionExampleScenario.node[215].nic.mac1609_4 	SentPackets 	0
scalar IntersectionExampleScenario.node[215].nic.mac1609_4 	SNIRLostPackets 	0
scalar IntersectionExampleScenario.node[215].nic.mac1609_4 	RXTXLostPackets 	0
scalar IntersectionExampleScenario.node[215].nic.mac1609_4 	TotalLostPackets 	0
scalar IntersectionExampleScenario.node[215].nic.mac1609_4 	DroppedPacketsInMac 	0
scalar IntersectionExampleScenario.node[215].nic.mac1609_4 	TooLittleTime 	0
scalar IntersectionExampleScenario.node[215].nic.mac1609_4 	TimesIntoBackoff 	0
scalar IntersectionExampleScenario.node[215].nic.mac1609_4 	SlotsBackoff 	0
scalar IntersectionExampleScenario.node[215].nic.mac1609_4 	NumInternalContention 	0
scalar IntersectionExampleScenario.node[215].nic.mac1609_4 	totalBusyTime 	0
scalar IntersectionExampleScenario.node[215].veinsmobility 	startTime 	734.5
scalar IntersectionExampleScenario.node[215].veinsmobility 	totalTime 	57.5
scalar IntersectionExampleScenario.node[215].veinsmobility 	stopTime 	792.25
scalar IntersectionExampleScenario.node[215].veinsmobility 	minSpeed 	0
scalar IntersectionExampleScenario.node[215].veinsmobility 	maxSpeed 	14.808766365051
scalar IntersectionExampleScenario.node[215].veinsmobility 	totalDistance 	565.71000671463
scalar IntersectionExampleScenario.node[215].veinsmobility 	totalCO2Emission 	139.87888804217
scalar IntersectionExampleScenario.node[223].appl 	VehicleRemoved 	0
scalar IntersectionExampleScenario.node[223].appl 	ArrivedAtDest 	1
scalar IntersectionExampleScenario.node[223].appl 	IntersectionEnterTime 	746.5
scalar IntersectionExampleScenario.node[223].appl 	IntersectionExitTime 	777.33664752167
scalar IntersectionExampleScenario.node[223].appl 	NumberOfCollisions 	0
scalar IntersectionExampleScenario.node[223].nic.phy80211p 	busyTime 	0
scalar IntersectionExampleScenario.node[223].nic.mac1609_4 	ReceivedUnicastPackets 	0
scalar IntersectionExampleScenario.node[223].nic.mac1609_4 	ReceivedBroadcasts 	0
scalar IntersectionExampleScenario.node[223].nic.mac1609_4 	SentPackets 	0
scalar IntersectionExampleScenario.node[223].nic.mac1609_4 	SNIRLostPackets 	0
scalar IntersectionExampleScenario.node[223].nic.mac1609_4 	RXTXLostPackets 	0
scalar IntersectionExampleScenario.node[223].nic.mac1609_4 	TotalLostPackets 	0
scalar IntersectionExampleScenario.node[223].nic.mac1609_4 	DroppedPacketsInMac 	0
scalar IntersectionExampleScenario.node[223].nic.mac1609_4 	TooLittleTime 	0
scalar IntersectionExampleScenario.node[223].nic.mac1609_4 	TimesIntoBackoff 	0
scalar IntersectionExampleScenario.node[223].nic.mac1609_4 	SlotsBackoff 	0
scalar IntersectionExampleScenario.node[223].nic.mac1609_4 	NumInternalContention 	0
scalar IntersectionExampleScenario.node[223].nic.mac1609_4 	totalBusyTime 	0
scalar IntersectionExampleScenario.node[223].veinsmobility 	startTime 	746.5
scalar IntersectionExampleScenario.node[223].veinsmobility 	totalTime 	46.5
scalar IntersectionExampleScenario.node[223].veinsmobility 	stopTime 	793.25
scalar IntersectionExampleScenario.node[223].veinsmobility 	minSpeed 	4.354679107666
scalar IntersectionExampleScenario.node[223].veinsmobility 	maxSpeed 	16.27499961853
scalar IntersectionExampleScenario.node[223].veinsmobility 	totalDistance 	549.51933922799
scalar IntersectionExampleScenario.node[223].veinsmobility 	totalCO2Emission 	147.04092059377
scalar IntersectionExampleScenario.node[227].appl 	VehicleRemoved 	0
scalar IntersectionExampleScenario.node[227].appl 	ArrivedAtDest 	1
scalar IntersectionExampleScenario.node[227].appl 	IntersectionEnterTime 	751
scalar IntersectionExampleScenario.node[227].appl 	IntersectionExitTime 	779.06031151392
scalar IntersectionExampleScenario.node[227].appl 	NumberOfCollisions 	0
scalar IntersectionExampleScenario.node[227].nic.phy80211p 	busyTime 	0
scalar IntersectionExampleScenario.node[227].nic.mac1609_4 	ReceivedUnicastPackets 	0
scalar IntersectionExampleScenario.node[227].nic.mac1609_4 	ReceivedBroadcasts 	0
scalar IntersectionExampleScenario.node[227].nic.mac1609_4 	SentPackets 	0
scalar IntersectionExampleScenario.node[227].nic.mac1609_4 	SNIRLostPackets 	0
scalar IntersectionExampleScenario.node[227].nic.mac1609_4 	RXTXLostPackets 	0
scalar IntersectionExampleScenario.node[227].nic.mac1609_4 	TotalLostPackets 	0
scalar IntersectionExampleScenario.node[227].nic.mac1609_4 	DroppedPacketsInMac 	0
scalar IntersectionExampleScenario.node[227].nic.mac1609_4 	TooLittleTime 	0
scalar IntersectionExampleScenario.node[227].nic.mac1609_4 	TimesIntoBackoff 	0
scalar IntersectionExampleScenario.node[227].nic.mac1609_4 	SlotsBackoff 	0
scalar IntersectionExampleScenario.node[227].nic.mac1609_4 	NumInternalContention 	0
scalar IntersectionExampleScenario.node[227].nic.mac1609_4 	totalBusyTime 	0
scalar IntersectionExampleScenario.node[227].veinsmobility 	startTime 	751
scalar IntersectionExampleScenario.node[227].veinsmobility 	totalTime 	44.25
scalar IntersectionExampleScenario.node[227].veinsmobility 	stopTime 	795.5
scalar IntersectionExampleScenario.node[227].veinsmobility 	minSpeed 	5.6500000953674
scalar IntersectionExampleScenario.node[227].veinsmobility 	maxSpeed 	15.02499961853
scalar IntersectionExampleScenario.node[227].veinsmobility 	totalDistance 	551.82936096191
scalar IntersectionExampleScenario.node[227].veinsmobility 	totalCO2Emission 	128.34325663744
scalar IntersectionExampleScenario.node[228].appl 	VehicleRemoved 	0
scalar IntersectionExampleScenario.node[228].appl 	ArrivedAtDest 	1
scalar IntersectionExampleScenario.node[228].appl 	IntersectionEnterTime 	752.5
scalar IntersectionExampleScenario.node[228].appl 	IntersectionExitTime 	780.81188751495
scalar IntersectionExampleScenario.node[228].appl 	NumberOfCollisions 	0
scalar IntersectionExampleScenario.node[228].nic.phy80211p 	busyTime 	0
scalar IntersectionExampleScenario.node[228].nic.mac1609_4 	ReceivedUnicastPackets 	0
scalar IntersectionExampleScenario.node[228].nic.mac1609_4 	ReceivedBroadcasts 	0
scalar IntersectionExampleScenario.node[228].nic.mac1609_4 	SentPackets 	0
scalar IntersectionExampleScenario.node[228].nic.mac1609_4 	SNIRLostPackets 	0
scalar IntersectionExampleScenario.node[228].nic.mac1609_4 	RXTXLostPackets 	0
scalar IntersectionExampleScenario.node[228].nic.mac1609_4 	TotalLostPackets 	0
scalar IntersectionExampleScenario.node[228].nic.mac1609_4 	DroppedPacketsInMac 	0
scalar IntersectionExampleScenario.node[228].nic.mac1609_4 	TooLittleTime 	0
scalar IntersectionExampleScenario.node[228].nic.mac1609_4 	TimesIntoBackoff 	0
scalar IntersectionExampleScenario.node[228].nic.mac1609_4 	SlotsBackoff 	0
scalar IntersectionExampleScenario.node[228].nic.mac1609_4 	NumInternalContention 	0
scalar IntersectionExampleScenario.node[228].nic.mac1609_4 	totalBusyTime 	0
scalar IntersectionExampleScenario.node[228].veinsmobility 	startTime 	752.5
scalar IntersectionExampleScenario.node[228].veinsmobility 	totalTime 	44.25
scalar IntersectionExampleScenario.node[228].veinsmobility 	stopTime 	797
scalar IntersectionExampleScenario.node[228].veinsmobility 	minSpeed 	5.6500000953674
scalar IntersectionExampleScenario.node[228].veinsmobility 	maxSpeed 	15.358901023865
scalar IntersectionExampleScenario.node[228].veinsmobility 	totalDistance 	573.51696777344
scalar IntersectionExampleScenario.node[228].veinsmobility 	totalCO2Emission 	124.46402516951
