file 12026435 1591426482                                        
version 2
run nodebug-45-20200606-02:52:29-22484
attr configname nodebug
attr datetime 20200606-02:52:29
attr experiment nodebug
attr inifile omnetpp.ini
attr iterationvars ""
attr iterationvars2 $repetition=45
attr measurement ""
attr network "\"org.car2x.veins.modules.application.ExtTraCIScenarioManagerLaunchd.IntersectionExampleScenario\""
attr processid 22484
attr repetition 45
attr replication #45
attr resultdir results
attr runnumber 45
attr seedset 45
param **.coreDebug false
param **.debug false
param *.**.nic.mac1609_4.bitrate 18Mbps
param *.**.nic.mac1609_4.txPower 20mW
param *.**.nic.mac1609_4.useServiceChannel false
param *.**.nic.phy80211p.analogueModels "xmldoc(\"config.xml\")"
param *.**.nic.phy80211p.decider "xmldoc(\"config.xml\")"
param *.**.nic.phy80211p.sensitivity -89dBm
param *.**.nic.phy80211p.thermalNoise -110dBm
param *.**.nic.phy80211p.usePropagationDelay true
param *.**.nic.phy80211p.useThermalNoise true
param *.annotations.draw false
param *.connectionManager.alpha 2.0
param *.connectionManager.carrierFrequency "5.890e9 Hz"
param *.connectionManager.pMax 20mW
param *.connectionManager.sat -89dBm
param *.connectionManager.sendDirect true
param *.manager.autoShutdown true
param *.manager.host "\"localhost\""
param *.manager.launchConfig "xmldoc(\"paramics.launchd.xml\")"
param *.manager.margin 25
param *.manager.moduleDisplayString "\"\""
param *.manager.moduleName "\"node\""
param *.manager.moduleType "\"org.car2x.veins.nodes.Car\""
param *.manager.port 9999
param *.manager.updateInterval 250ms
param *.node[*0].veinsmobility.accidentCount 0
param *.node[*0].veinsmobility.accidentDuration 30s
param *.node[*0].veinsmobility.accidentStart 75s
param *.node[*].appl.LiderSelectZoneRadio 55.0
param *.node[*].appl.ShareDataZoneRadio 110.0
param *.node[*].appl.TiempoSemaforo 30.0
param *.node[*].appl.beaconInterval 1s
param *.node[*].appl.beaconPriority 3
param *.node[*].appl.dataOnSch false
param *.node[*].appl.dataPriority 2
param *.node[*].appl.debug false
param *.node[*].appl.headerLength "256 bit"
param *.node[*].appl.maxOffset 0.005s
param *.node[*].appl.sendBeacons false
param *.node[*].appl.sendData true
param *.node[*].applType "\"Dummy\""
param *.node[*].mobilityType "\"TraCIMobility\""
param *.node[*].mobilityType.debug true
param *.node[*].veinsmobility.x 0
param *.node[*].veinsmobility.y 0
param *.node[*].veinsmobility.z 1.895
param *.node[*].veinsmobilityType "\"org.car2x.veins.modules.mobility.traci.TraCIMobility\""
param *.node[*].veinsmobilityType.debug true
param *.playgroundSizeX 8500m
param *.playgroundSizeY 8500m
param *.playgroundSizeZ 50m
param *.world.use2D false
param *.world.useTorus false

vector 51505  IntersectionExampleScenario.manager  vehiclesinsim  ETV
attr type  int
vector 51506  IntersectionExampleScenario.manager  realtime  ETV
attr type  int
attr unit  s
vector 51509  IntersectionExampleScenario.node[0].veinsmobility  posx  ETV
vector 51510  IntersectionExampleScenario.node[0].veinsmobility  posy  ETV
vector 51511  IntersectionExampleScenario.node[0].veinsmobility  speed  ETV
vector 51512  IntersectionExampleScenario.node[0].veinsmobility  acceleration  ETV
vector 51513  IntersectionExampleScenario.node[0].veinsmobility  co2emission  ETV
vector 51516  IntersectionExampleScenario.node[1].veinsmobility  posx  ETV
vector 51517  IntersectionExampleScenario.node[1].veinsmobility  posy  ETV
vector 51518  IntersectionExampleScenario.node[1].veinsmobility  speed  ETV
vector 51519  IntersectionExampleScenario.node[1].veinsmobility  acceleration  ETV
vector 51520  IntersectionExampleScenario.node[1].veinsmobility  co2emission  ETV
vector 51523  IntersectionExampleScenario.node[2].veinsmobility  posx  ETV
vector 51524  IntersectionExampleScenario.node[2].veinsmobility  posy  ETV
vector 51525  IntersectionExampleScenario.node[2].veinsmobility  speed  ETV
vector 51526  IntersectionExampleScenario.node[2].veinsmobility  acceleration  ETV
vector 51527  IntersectionExampleScenario.node[2].veinsmobility  co2emission  ETV
vector 51530  IntersectionExampleScenario.node[3].veinsmobility  posx  ETV
vector 51531  IntersectionExampleScenario.node[3].veinsmobility  posy  ETV
vector 51532  IntersectionExampleScenario.node[3].veinsmobility  speed  ETV
vector 51533  IntersectionExampleScenario.node[3].veinsmobility  acceleration  ETV
vector 51534  IntersectionExampleScenario.node[3].veinsmobility  co2emission  ETV
vector 51537  IntersectionExampleScenario.node[4].veinsmobility  posx  ETV
vector 51538  IntersectionExampleScenario.node[4].veinsmobility  posy  ETV
vector 51539  IntersectionExampleScenario.node[4].veinsmobility  speed  ETV
vector 51540  IntersectionExampleScenario.node[4].veinsmobility  acceleration  ETV
vector 51541  IntersectionExampleScenario.node[4].veinsmobility  co2emission  ETV
vector 51544  IntersectionExampleScenario.node[5].veinsmobility  posx  ETV
vector 51545  IntersectionExampleScenario.node[5].veinsmobility  posy  ETV
vector 51546  IntersectionExampleScenario.node[5].veinsmobility  speed  ETV
vector 51547  IntersectionExampleScenario.node[5].veinsmobility  acceleration  ETV
vector 51548  IntersectionExampleScenario.node[5].veinsmobility  co2emission  ETV
vector 51551  IntersectionExampleScenario.node[6].veinsmobility  posx  ETV
vector 51552  IntersectionExampleScenario.node[6].veinsmobility  posy  ETV
vector 51558  IntersectionExampleScenario.node[7].veinsmobility  posx  ETV
vector 51559  IntersectionExampleScenario.node[7].veinsmobility  posy  ETV
vector 51553  IntersectionExampleScenario.node[6].veinsmobility  speed  ETV
vector 51560  IntersectionExampleScenario.node[7].veinsmobility  speed  ETV
vector 51565  IntersectionExampleScenario.node[8].veinsmobility  posx  ETV
vector 51566  IntersectionExampleScenario.node[8].veinsmobility  posy  ETV
vector 51554  IntersectionExampleScenario.node[6].veinsmobility  acceleration  ETV
vector 51555  IntersectionExampleScenario.node[6].veinsmobility  co2emission  ETV
vector 51561  IntersectionExampleScenario.node[7].veinsmobility  acceleration  ETV
vector 51562  IntersectionExampleScenario.node[7].veinsmobility  co2emission  ETV
vector 51567  IntersectionExampleScenario.node[8].veinsmobility  speed  ETV
vector 51572  IntersectionExampleScenario.node[9].veinsmobility  posx  ETV
vector 51573  IntersectionExampleScenario.node[9].veinsmobility  posy  ETV
vector 51568  IntersectionExampleScenario.node[8].veinsmobility  acceleration  ETV
vector 51569  IntersectionExampleScenario.node[8].veinsmobility  co2emission  ETV
vector 51574  IntersectionExampleScenario.node[9].veinsmobility  speed  ETV
vector 51575  IntersectionExampleScenario.node[9].veinsmobility  acceleration  ETV
vector 51576  IntersectionExampleScenario.node[9].veinsmobility  co2emission  ETV
vector 51579  IntersectionExampleScenario.node[10].veinsmobility  posx  ETV
vector 51580  IntersectionExampleScenario.node[10].veinsmobility  posy  ETV
vector 51581  IntersectionExampleScenario.node[10].veinsmobility  speed  ETV
vector 51582  IntersectionExampleScenario.node[10].veinsmobility  acceleration  ETV
vector 51583  IntersectionExampleScenario.node[10].veinsmobility  co2emission  ETV
vector 51586  IntersectionExampleScenario.node[11].veinsmobility  posx  ETV
vector 51587  IntersectionExampleScenario.node[11].veinsmobility  posy  ETV
vector 51588  IntersectionExampleScenario.node[11].veinsmobility  speed  ETV
vector 51589  IntersectionExampleScenario.node[11].veinsmobility  acceleration  ETV
vector 51590  IntersectionExampleScenario.node[11].veinsmobility  co2emission  ETV
vector 51593  IntersectionExampleScenario.node[12].veinsmobility  posx  ETV
vector 51594  IntersectionExampleScenario.node[12].veinsmobility  posy  ETV
vector 51595  IntersectionExampleScenario.node[12].veinsmobility  speed  ETV
vector 51596  IntersectionExampleScenario.node[12].veinsmobility  acceleration  ETV
vector 51597  IntersectionExampleScenario.node[12].veinsmobility  co2emission  ETV
vector 51600  IntersectionExampleScenario.node[13].veinsmobility  posx  ETV
vector 51601  IntersectionExampleScenario.node[13].veinsmobility  posy  ETV
vector 51602  IntersectionExampleScenario.node[13].veinsmobility  speed  ETV
vector 51603  IntersectionExampleScenario.node[13].veinsmobility  acceleration  ETV
vector 51604  IntersectionExampleScenario.node[13].veinsmobility  co2emission  ETV
vector 51607  IntersectionExampleScenario.node[14].veinsmobility  posx  ETV
vector 51608  IntersectionExampleScenario.node[14].veinsmobility  posy  ETV
vector 51609  IntersectionExampleScenario.node[14].veinsmobility  speed  ETV
vector 51610  IntersectionExampleScenario.node[14].veinsmobility  acceleration  ETV
vector 51611  IntersectionExampleScenario.node[14].veinsmobility  co2emission  ETV
vector 51614  IntersectionExampleScenario.node[15].veinsmobility  posx  ETV
vector 51615  IntersectionExampleScenario.node[15].veinsmobility  posy  ETV
vector 51616  IntersectionExampleScenario.node[15].veinsmobility  speed  ETV
vector 51617  IntersectionExampleScenario.node[15].veinsmobility  acceleration  ETV
vector 51618  IntersectionExampleScenario.node[15].veinsmobility  co2emission  ETV
vector 51621  IntersectionExampleScenario.node[16].veinsmobility  posx  ETV
vector 51622  IntersectionExampleScenario.node[16].veinsmobility  posy  ETV
vector 51623  IntersectionExampleScenario.node[16].veinsmobility  speed  ETV
vector 51624  IntersectionExampleScenario.node[16].veinsmobility  acceleration  ETV
vector 51625  IntersectionExampleScenario.node[16].veinsmobility  co2emission  ETV
vector 51628  IntersectionExampleScenario.node[17].veinsmobility  posx  ETV
vector 51629  IntersectionExampleScenario.node[17].veinsmobility  posy  ETV
vector 51630  IntersectionExampleScenario.node[17].veinsmobility  speed  ETV
vector 51631  IntersectionExampleScenario.node[17].veinsmobility  acceleration  ETV
vector 51632  IntersectionExampleScenario.node[17].veinsmobility  co2emission  ETV
51541	10104 4740 352 4077 17.75 54.75 149 0.973 12.099024792222 488.62484249694 2757.5086340594
51540	14844 4409 352 4077 17.75 54.75 149 -3.7545585632324 2.5 41.057416915894 220.15223558387
51539	19253 4660 341 4077 17.5 54.75 150 5.6500000953674 16.27499961853 2213.4851999283 33462.212550292
51538	23913 4914 330 4077 17.25 54.75 151 184.17810058594 732.13882446289 67522.463638306 34185405.8791
51537	28827 4944 330 4077 17.25 54.75 151 486.85000610352 486.85000610352 73514.350921631 35790462.194892
vector 51635  IntersectionExampleScenario.node[18].veinsmobility  posx  ETV
vector 51636  IntersectionExampleScenario.node[18].veinsmobility  posy  ETV
vector 51637  IntersectionExampleScenario.node[18].veinsmobility  speed  ETV
vector 51638  IntersectionExampleScenario.node[18].veinsmobility  acceleration  ETV
vector 51639  IntersectionExampleScenario.node[18].veinsmobility  co2emission  ETV
vector 51642  IntersectionExampleScenario.node[19].veinsmobility  posx  ETV
vector 51643  IntersectionExampleScenario.node[19].veinsmobility  posy  ETV
vector 51644  IntersectionExampleScenario.node[19].veinsmobility  speed  ETV
vector 51645  IntersectionExampleScenario.node[19].veinsmobility  acceleration  ETV
vector 51646  IntersectionExampleScenario.node[19].veinsmobility  co2emission  ETV
vector 51649  IntersectionExampleScenario.node[20].veinsmobility  posx  ETV
vector 51650  IntersectionExampleScenario.node[20].veinsmobility  posy  ETV
vector 51651  IntersectionExampleScenario.node[20].veinsmobility  speed  ETV
vector 51652  IntersectionExampleScenario.node[20].veinsmobility  acceleration  ETV
vector 51653  IntersectionExampleScenario.node[20].veinsmobility  co2emission  ETV
vector 51656  IntersectionExampleScenario.node[21].veinsmobility  posx  ETV
vector 51657  IntersectionExampleScenario.node[21].veinsmobility  posy  ETV
vector 51658  IntersectionExampleScenario.node[21].veinsmobility  speed  ETV
vector 51659  IntersectionExampleScenario.node[21].veinsmobility  acceleration  ETV
vector 51660  IntersectionExampleScenario.node[21].veinsmobility  co2emission  ETV
vector 51663  IntersectionExampleScenario.node[22].veinsmobility  posx  ETV
vector 51664  IntersectionExampleScenario.node[22].veinsmobility  posy  ETV
vector 51670  IntersectionExampleScenario.node[23].veinsmobility  posx  ETV
vector 51671  IntersectionExampleScenario.node[23].veinsmobility  posy  ETV
vector 51665  IntersectionExampleScenario.node[22].veinsmobility  speed  ETV
vector 51672  IntersectionExampleScenario.node[23].veinsmobility  speed  ETV
vector 51666  IntersectionExampleScenario.node[22].veinsmobility  acceleration  ETV
vector 51667  IntersectionExampleScenario.node[22].veinsmobility  co2emission  ETV
vector 51673  IntersectionExampleScenario.node[23].veinsmobility  acceleration  ETV
vector 51674  IntersectionExampleScenario.node[23].veinsmobility  co2emission  ETV
vector 51677  IntersectionExampleScenario.node[24].veinsmobility  posx  ETV
vector 51678  IntersectionExampleScenario.node[24].veinsmobility  posy  ETV
vector 51679  IntersectionExampleScenario.node[24].veinsmobility  speed  ETV
vector 51680  IntersectionExampleScenario.node[24].veinsmobility  acceleration  ETV
vector 51681  IntersectionExampleScenario.node[24].veinsmobility  co2emission  ETV
51604	36578 5105 2085 7432 38.5 78.25 160 0.973 11.648172402475 503.65027164899 2731.3763833604
51603	41683 4778 2085 7432 38.5 78.25 160 -3.6179485321045 2.5 38.001859664917 278.0227249038
51602	46461 4993 2056 7432 38.25 78.25 161 5.6500000953674 15.64999961853 2180.9299302101 30862.892106752
51601	51454 5324 2027 7432 38 78.25 162 184.17810058594 483.14999389648 64407.276550293 27352655.687539
51600	56778 5340 2027 7432 38 78.25 162 486.85000610352 732.58955383301 87066.583984375 47717286.211193
vector 51684  IntersectionExampleScenario.node[25].veinsmobility  posx  ETV
vector 51685  IntersectionExampleScenario.node[25].veinsmobility  posy  ETV
vector 51686  IntersectionExampleScenario.node[25].veinsmobility  speed  ETV
vector 51687  IntersectionExampleScenario.node[25].veinsmobility  acceleration  ETV
vector 51688  IntersectionExampleScenario.node[25].veinsmobility  co2emission  ETV
51513	62519 8621 8 7742 0.75 80.25 319 0.973 11.450879080643 675.67346951815 2907.6704306316
51512	71140 7623 8 7742 0.75 80.25 319 -8.4870233535767 4 37.15309715271 478.32412368335
51511	78763 7979 5 7742 0.5 80.25 320 0 15.375 2183.8080518246 30335.054557731
51510	86742 10405 2 7742 0.25 80.25 321 483.14999389648 733.74011230469 163685.2922821 84673904.594295
51509	97147 10390 2 7742 0.25 80.25 321 184.17810058594 486.85000610352 139468.36502075 62819046.448584
51534	107537 7973 222 7820 14.25 80.75 267 0.973 12.099024792222 648.05159914855 3162.5537326612
51533	115510 8498 222 7820 14.25 80.75 267 -3.8096423149109 2.5 40.548154830933 356.85980983772
51532	124008 8385 213 7820 14 80.75 268 0 16.27499961853 2210.6544861831 30304.383178288
51531	132393 8823 204 7820 13.75 80.75 269 483.14999389648 483.14999389648 129967.34835815 62793723.565984
51530	141216 8784 204 7820 13.75 80.75 269 184.17810058594 731.86672973633 121694.5096283 59092000.195051
vector 51691  IntersectionExampleScenario.node[26].veinsmobility  posx  ETV
vector 51692  IntersectionExampleScenario.node[26].veinsmobility  posy  ETV
51611	150154 5426 2233 8249 39.75 83.5 176 0.973 11.648172402475 539.76123055838 2959.4814032138
51610	155580 5293 2233 8249 39.75 83.5 176 -2.9193420410156 2.5 38.341367721558 302.41502883063
51609	160873 5555 2203 8249 39.5 83.5 177 4.5681004524231 15.64999961853 2217.5250720978 29883.197312816
51608	166428 5869 2172 8249 39.25 83.5 178 483.14999389648 735.31817626953 94551.343978882 51250410.457736
51607	172297 5842 2172 8249 39.25 83.5 178 184.17810058594 486.87731933594 71477.183898926 30502367.618241
vector 51693  IntersectionExampleScenario.node[26].veinsmobility  speed  ETV
vector 51694  IntersectionExampleScenario.node[26].veinsmobility  acceleration  ETV
vector 51695  IntersectionExampleScenario.node[26].veinsmobility  co2emission  ETV
vector 51698  IntersectionExampleScenario.node[27].veinsmobility  posx  ETV
vector 51699  IntersectionExampleScenario.node[27].veinsmobility  posy  ETV
vector 51700  IntersectionExampleScenario.node[27].veinsmobility  speed  ETV
vector 51701  IntersectionExampleScenario.node[27].veinsmobility  acceleration  ETV
vector 51702  IntersectionExampleScenario.node[27].veinsmobility  co2emission  ETV
51618	178787 5145 3194 9080 48 88.5 163 0.973 11.200708441096 487.52836637563 2625.9231037435
51617	183932 4943 3194 9080 48 88.5 163 -3.430118560791 2.5 35.455564498901 239.7354968281
51616	188875 5135 3163 9080 47.75 88.5 164 5.6500000953674 15.02499961853 2206.7047729492 30420.465302976
51615	194010 5430 3132 9080 47.5 88.5 165 483.14999389648 733.29412841797 88532.120437622 48502361.108969
51614	199440 5416 3132 9080 47.5 88.5 165 184.17810058594 486.85678100586 65728.564422607 28002614.69774
51625	204856 5015 3570 9367 51 90.25 158 0.973 12.26218747632 553.95963138772 3195.7179527918
51624	209871 4777 3570 9367 51 90.25 158 -4.5 2.5 41.90619468689 344.55875398863
51623	214648 4905 3537 9367 50.75 90.25 159 5.6500000953674 16.5 2236.0347714424 33074.855285619
51622	219553 5276 3504 9367 50.5 90.25 160 237.21490478516 483.14999389648 69569.683776855 31138080.352556
51621	224829 5253 3504 9367 50.5 90.25 160 171.40313720703 483.14999389648 62689.243133545 26463424.863469
vector 51705  IntersectionExampleScenario.node[28].veinsmobility  posx  ETV
vector 51706  IntersectionExampleScenario.node[28].veinsmobility  posy  ETV
vector 51707  IntersectionExampleScenario.node[28].veinsmobility  speed  ETV
vector 51708  IntersectionExampleScenario.node[28].veinsmobility  acceleration  ETV
vector 51709  IntersectionExampleScenario.node[28].veinsmobility  co2emission  ETV
vector 51712  IntersectionExampleScenario.node[29].veinsmobility  posx  ETV
vector 51713  IntersectionExampleScenario.node[29].veinsmobility  posy  ETV
vector 51714  IntersectionExampleScenario.node[29].veinsmobility  speed  ETV
vector 51715  IntersectionExampleScenario.node[29].veinsmobility  acceleration  ETV
vector 51716  IntersectionExampleScenario.node[29].veinsmobility  co2emission  ETV
vector 51719  IntersectionExampleScenario.node[30].veinsmobility  posx  ETV
vector 51720  IntersectionExampleScenario.node[30].veinsmobility  posy  ETV
vector 51726  IntersectionExampleScenario.node[31].veinsmobility  posx  ETV
vector 51727  IntersectionExampleScenario.node[31].veinsmobility  posy  ETV
vector 51721  IntersectionExampleScenario.node[30].veinsmobility  speed  ETV
vector 51728  IntersectionExampleScenario.node[31].veinsmobility  speed  ETV
vector 51722  IntersectionExampleScenario.node[30].veinsmobility  acceleration  ETV
vector 51723  IntersectionExampleScenario.node[30].veinsmobility  co2emission  ETV
vector 51729  IntersectionExampleScenario.node[31].veinsmobility  acceleration  ETV
vector 51730  IntersectionExampleScenario.node[31].veinsmobility  co2emission  ETV
51653	231686 4819 5630 11370 65.25 102 148 0.973 12.099024792222 490.9170096863 2770.7218517746
51652	236505 4257 5630 11370 65.25 102 148 -3.2282333374023 2.5 41.566686630249 213.62512747117
51651	240762 4684 5593 11370 65 102 149 5.6500000953674 16.27499961853 2212.5592670441 33673.958949228
51650	245446 4990 5556 11370 64.75 102 150 483.14999389648 483.14999389648 72472.499084473 35015087.490326
51649	250436 4959 5556 11370 64.75 102 150 184.17810058594 731.91429138184 67015.667144775 33906379.471287
vector 51733  IntersectionExampleScenario.node[32].veinsmobility  posx  ETV
vector 51734  IntersectionExampleScenario.node[32].veinsmobility  posy  ETV
vector 51735  IntersectionExampleScenario.node[32].veinsmobility  speed  ETV
vector 51740  IntersectionExampleScenario.node[33].veinsmobility  posx  ETV
vector 51741  IntersectionExampleScenario.node[33].veinsmobility  posy  ETV
vector 51736  IntersectionExampleScenario.node[32].veinsmobility  acceleration  ETV
vector 51737  IntersectionExampleScenario.node[32].veinsmobility  co2emission  ETV
vector 51742  IntersectionExampleScenario.node[33].veinsmobility  speed  ETV
vector 51743  IntersectionExampleScenario.node[33].veinsmobility  acceleration  ETV
vector 51744  IntersectionExampleScenario.node[33].veinsmobility  co2emission  ETV
vector 51747  IntersectionExampleScenario.node[34].veinsmobility  posx  ETV
vector 51748  IntersectionExampleScenario.node[34].veinsmobility  posy  ETV
51527	256351 10386 176 12552 12.75 109.5 388 0.973 12.099024792222 779.35534905744 3441.2659541559
51526	266737 8892 176 12552 12.75 109.5 388 -9.2126445770264 4 41.396924972534 525.32208356757
51525	275629 9437 169 12552 12.5 109.5 389 0 16.27499961853 2208.8033750057 32581.164432489
51524	285066 12895 162 12552 12.25 109.5 390 238.08117675781 785.82187652588 198136.75777435 104691622.87645
51523	297961 12911 162 12552 12.25 109.5 390 483.14999389648 483.14999389648 188428.49761963 91039227.474848
vector 51749  IntersectionExampleScenario.node[34].veinsmobility  speed  ETV
vector 51750  IntersectionExampleScenario.node[34].veinsmobility  acceleration  ETV
vector 51751  IntersectionExampleScenario.node[34].veinsmobility  co2emission  ETV
51569	311119 10147 634 12931 23.25 112 356 0.973 11.990504229548 718.24782085134 3174.7863604432
51568	321266 10351 634 12931 23.25 112 356 -3.8975827693939 2.5000009536743 39.869146347046 343.46583009634
51567	331617 10329 615 12931 23 112 357 0 16.125 2092.4739367403 28198.970807903
51566	341946 11892 596 12931 22.75 112 358 235.41912841797 753.92188262939 181558.95030975 95544268.496211
51565	353838 11915 596 12931 22.75 112 358 483.14999389648 483.14999389648 172967.69781494 83569342.143578
vector 51754  IntersectionExampleScenario.node[35].veinsmobility  posx  ETV
vector 51755  IntersectionExampleScenario.node[35].veinsmobility  posy  ETV
vector 51756  IntersectionExampleScenario.node[35].veinsmobility  speed  ETV
vector 51757  IntersectionExampleScenario.node[35].veinsmobility  acceleration  ETV
vector 51758  IntersectionExampleScenario.node[35].veinsmobility  co2emission  ETV
51548	366154 11261 510 13500 21.25 115.75 379 0.973 10.916047529558 744.27568961162 2854.4114260449
51547	377415 11595 510 13500 21.25 115.75 379 -4.5 2.5 34.606801986694 481.02083329456
51546	389010 11535 497 13500 21 115.75 380 0 14.625 2176.6182696102 25897.585443068
51545	400545 12660 484 13500 20.75 115.75 381 486.85000610352 785.82187652588 207862.52906799 115824198.30353
51544	413205 12691 484 13500 20.75 115.75 381 238.29022216797 483.14999389648 175493.87811279 82041446.998042
51562	425896 11576 596 13656 22.75 116.75 377 0.973 11.450879080643 766.41254278315 2966.0552668604
51561	437472 11989 596 13656 22.75 116.75 377 -4.5 2.5 38.680875778198 444.17099156619
51560	449461 11991 579 13656 22.5 116.75 378 0 15.375 2284.7206475837 28517.383797735
51559	461452 12624 562 13656 22.25 116.75 379 483.14999389648 806.11563110352 209313.09780884 118218157.24669
51558	474076 12639 562 13656 22.25 116.75 379 483.14999389648 731.86692810059 191388.27742004 97838574.857764
51576	486715 12190 676 14153 23.75 120 386 0.973 10.916047529558 783.2355840504 2804.2992913019
51575	498905 12653 676 14153 23.75 120 386 -4.5 2.5 37.15309715271 515.4865318933
51574	511558 12543 655 14153 23.5 120 387 0 14.983232498169 2315.3897279724 28219.619170373
51573	524101 12924 634 14153 23.25 120 388 486.85000610352 818.14376068115 216676.46831512 123830029.97996
51572	537025 12962 634 14153 23.25 120 388 236.41320800781 483.14999389648 179085.21551514 83850999.074596
51583	549987 12122 890 14335 26.25 121.25 381 0.973 11.450879080643 804.88098190521 3117.1998617138
51582	562109 12351 890 14335 26.25 121.25 381 -4.5 2.5 38.680875778198 528.41911455246
51581	574460 12452 867 14335 26 121.25 382 0 15.375 2341.8051207457 29151.838672857
51580	586912 12793 844 14335 25.75 121.25 383 483.14999389648 818.46416473389 214673.55113983 122974258.25672
51579	599705 12822 844 14335 25.75 121.25 383 483.14999389648 733.59648132324 193443.43162537 98919546.816393
51597	612527 10130 1838 14545 36.25 122.75 347 0.973 11.648172402475 722.00201630071 3247.710211447
51596	622657 10535 1838 14545 36.25 122.75 347 -4.0526657104492 2.5 37.662351608276 536.65655058251
51595	633192 10275 1811 14545 36 122.75 348 0 15.64999961853 2224.1085431576 27895.722044226
51594	643467 11690 1784 14545 35.75 122.75 349 235.04479980469 785.82187652588 186387.2440567 103871331.23998
51593	655157 11725 1784 14545 35.75 122.75 349 483.14999389648 483.14999389648 168619.34786987 81468436.894159
vector 51761  IntersectionExampleScenario.node[36].veinsmobility  posx  ETV
vector 51762  IntersectionExampleScenario.node[36].veinsmobility  posy  ETV
vector 51763  IntersectionExampleScenario.node[36].veinsmobility  speed  ETV
51639	667114 8104 4466 14897 57.5 125.25 272 0.973 11.648172402475 667.52373998857 3339.6139484288
51638	675218 7715 4466 14897 57.5 125.25 272 -4.1134185791016 2.5 38.341367721558 429.09861489309
51637	682933 8130 4429 14897 57.25 125.25 273 0 15.64999961853 2203.1485300809 28362.715940332
51636	691063 9249 4392 14897 57 125.25 274 483.14999389648 785.82187652588 154160.00051117 88562881.730867
51635	700312 9260 4392 14897 57 125.25 274 483.14999389648 732.16485595703 140727.03031921 73407628.351891
vector 51764  IntersectionExampleScenario.node[36].veinsmobility  acceleration  ETV
vector 51765  IntersectionExampleScenario.node[36].veinsmobility  co2emission  ETV
51667	709741 6408 6845 14968 74.25 125.75 207 0.973 12.099024792222 608.64015957437 3395.4903665528
51666	716149 6663 6845 14968 74.25 125.75 207 -2.7394142150879 2.5 41.227170944214 351.97034340755
51665	722812 6852 6808 14968 74 125.75 208 1.4718384742737 16.27499961853 2207.1122709513 29387.0398811
51664	729664 7090 6771 14968 73.75 125.75 209 239.10583496094 785.82187652588 111658.3385849 63700254.913877
51663	736754 7129 6771 14968 73.75 125.75 209 483.14999389648 483.14999389648 100978.34872437 48787688.569854
vector 51768  IntersectionExampleScenario.node[37].veinsmobility  posx  ETV
vector 51769  IntersectionExampleScenario.node[37].veinsmobility  posy  ETV
vector 51770  IntersectionExampleScenario.node[37].veinsmobility  speed  ETV
vector 51775  IntersectionExampleScenario.node[38].veinsmobility  posx  ETV
vector 51776  IntersectionExampleScenario.node[38].veinsmobility  posy  ETV
vector 51771  IntersectionExampleScenario.node[37].veinsmobility  acceleration  ETV
vector 51772  IntersectionExampleScenario.node[37].veinsmobility  co2emission  ETV
vector 51777  IntersectionExampleScenario.node[38].veinsmobility  speed  ETV
vector 51778  IntersectionExampleScenario.node[38].veinsmobility  acceleration  ETV
vector 51779  IntersectionExampleScenario.node[38].veinsmobility  co2emission  ETV
vector 51782  IntersectionExampleScenario.node[39].veinsmobility  posx  ETV
vector 51783  IntersectionExampleScenario.node[39].veinsmobility  posy  ETV
vector 51784  IntersectionExampleScenario.node[39].veinsmobility  speed  ETV
vector 51785  IntersectionExampleScenario.node[39].veinsmobility  acceleration  ETV
vector 51786  IntersectionExampleScenario.node[39].veinsmobility  co2emission  ETV
vector 51789  IntersectionExampleScenario.node[40].veinsmobility  posx  ETV
vector 51790  IntersectionExampleScenario.node[40].veinsmobility  posy  ETV
vector 51791  IntersectionExampleScenario.node[40].veinsmobility  speed  ETV
vector 51792  IntersectionExampleScenario.node[40].veinsmobility  acceleration  ETV
vector 51793  IntersectionExampleScenario.node[40].veinsmobility  co2emission  ETV
vector 51796  IntersectionExampleScenario.node[41].veinsmobility  posx  ETV
vector 51797  IntersectionExampleScenario.node[41].veinsmobility  posy  ETV
vector 51798  IntersectionExampleScenario.node[41].veinsmobility  speed  ETV
vector 51803  IntersectionExampleScenario.node[42].veinsmobility  posx  ETV
vector 51804  IntersectionExampleScenario.node[42].veinsmobility  posy  ETV
vector 51799  IntersectionExampleScenario.node[41].veinsmobility  acceleration  ETV
vector 51800  IntersectionExampleScenario.node[41].veinsmobility  co2emission  ETV
vector 51805  IntersectionExampleScenario.node[42].veinsmobility  speed  ETV
51716	746120 5338 10286 16268 95.75 134.75 157 0.973 11.648172402475 491.52726649725 2636.9338880946
51715	751458 4868 10286 16268 95.75 134.75 157 -3.3749542236328 2.5 38.511121749878 234.68505931777
51714	756326 5227 10243 16268 95.5 134.75 158 5.6500000953674 15.64999961853 2208.4045886993 31807.745820974
51713	761553 5536 10200 16268 95.25 134.75 159 483.14999389648 785.82187652588 90917.97403717 53762069.37164
51712	767089 5540 10200 16268 95.25 134.75 159 483.14999389648 733.16246032715 85210.921951294 46620197.356294
vector 51806  IntersectionExampleScenario.node[42].veinsmobility  acceleration  ETV
vector 51807  IntersectionExampleScenario.node[42].veinsmobility  co2emission  ETV
51723	772798 5498 10463 16573 96.75 136.75 161 0.973 11.648172402475 525.35195851155 2995.4669124346
51722	778296 4998 10463 16573 96.75 136.75 161 -4.5 2.5 38.341367721558 288.05861462266
51721	783294 5427 10418 16573 96.5 136.75 162 5.6500000953674 15.64999961853 2305.6799726486 33469.607537998
51720	788721 5673 10372 16573 96.25 136.75 163 237.19757080078 807.99687957764 86796.718910217 50851612.507653
51719	794394 5692 10372 16573 96.25 136.75 163 483.14999389648 483.14999389648 78753.449005127 38049728.406154
vector 51810  IntersectionExampleScenario.node[43].veinsmobility  posx  ETV
vector 51811  IntersectionExampleScenario.node[43].veinsmobility  posy  ETV
vector 51812  IntersectionExampleScenario.node[43].veinsmobility  speed  ETV
vector 51813  IntersectionExampleScenario.node[43].veinsmobility  acceleration  ETV
vector 51814  IntersectionExampleScenario.node[43].veinsmobility  co2emission  ETV
vector 51817  IntersectionExampleScenario.node[44].veinsmobility  posx  ETV
vector 51818  IntersectionExampleScenario.node[44].veinsmobility  posy  ETV
vector 51819  IntersectionExampleScenario.node[44].veinsmobility  speed  ETV
51520	800719 13846 132 17226 10.75 141.25 523 0.97223939240464 11.648172402475 895.87710650811 3295.482840479
51519	814565 11729 132 17226 10.75 141.25 523 -42.849315643311 4 38.680875778198 2166.2325333182
51518	826294 12238 127 17226 10.5 141.25 524 0 15.64999961853 2219.6817913055 32231.607028515
51517	838532 17612 122 17226 10.25 141.25 525 486.85000610352 486.85000610352 255596.25320435 124437037.43257
51516	856144 17606 122 17226 10.25 141.25 525 235.46472167969 785.82187652588 265141.50666046 138111968.55442
vector 51820  IntersectionExampleScenario.node[44].veinsmobility  acceleration  ETV
vector 51821  IntersectionExampleScenario.node[44].veinsmobility  co2emission  ETV
51555	873919 13291 596 17421 22.75 142.5 480 0.973 11.648172402475 835.91182858404 3161.9831230773
51554	887210 12876 596 17421 22.75 142.5 480 -3.7288699150085 2.5 38.341367721558 342.54867009552
51553	900086 12810 579 17421 22.5 142.5 481 0 15.64999961853 2200.913162726 29145.469777593
51552	912896 16247 562 17421 22.25 142.5 482 238.44683837891 486.85000610352 226360.86383057 107536343.8024
51551	929143 16016 562 17421 22.25 142.5 482 483.13436889648 785.82187652588 254690.90792084 136825997.36949
vector 51824  IntersectionExampleScenario.node[45].veinsmobility  posx  ETV
vector 51825  IntersectionExampleScenario.node[45].veinsmobility  posy  ETV
vector 51826  IntersectionExampleScenario.node[45].veinsmobility  speed  ETV
vector 51827  IntersectionExampleScenario.node[45].veinsmobility  acceleration  ETV
vector 51828  IntersectionExampleScenario.node[45].veinsmobility  co2emission  ETV
51590	945560 12653 1584 17827 33.75 145 446 0.97223939240464 11.810082123732 807.28489447349 3254.248123244
51589	958213 12515 1584 17827 33.75 145 446 -3.8333666324615 2.5 38.680875778198 351.49778052595
51588	970728 12433 1559 17827 33.5 145 447 0 15.875 2180.8187063234 28374.051356473
51587	983161 15153 1534 17827 33.25 145 448 486.85000610352 732.03237915039 226179.59339905 115359332.79779
51586	998314 15154 1534 17827 33.25 145 448 486.83676147461 785.82187652588 239698.17966461 130367851.39114
vector 51831  IntersectionExampleScenario.node[46].veinsmobility  posx  ETV
vector 51832  IntersectionExampleScenario.node[46].veinsmobility  posy  ETV
vector 51833  IntersectionExampleScenario.node[46].veinsmobility  speed  ETV
vector 51834  IntersectionExampleScenario.node[46].veinsmobility  acceleration  ETV
vector 51835  IntersectionExampleScenario.node[46].veinsmobility  co2emission  ETV
51632	1013869 11227 3937 18412 53.75 148.5 380 0.973 11.00486315618 715.41397713943 2729.1620075282
51631	1025096 11238 3937 18412 53.75 148.5 380 -3.7123334407806 2.5 34.267293930054 318.91808774085
51630	1036334 11298 3902 18412 53.5 148.5 381 0 14.75 2217.3241609875 27622.205699301
51629	1047632 13015 3867 18412 53.25 148.5 382 234.83221435547 486.85000610352 176866.21740723 83205492.293639
51628	1060647 12998 3867 18412 53.25 148.5 382 483.14999389648 785.82187652588 207312.91853333 114615800.3462
51646	1073645 11070 4729 18658 59.25 150 364 0.973 11.810082123732 750.22015171733 3180.4878481585
51645	1084715 11331 4729 18658 59.25 150 364 -4.5 2.5000019073486 39.529638290405 427.72850545355
51644	1096046 11239 4690 18658 59 150 365 0 15.875 2184.882510554 28496.299771536
51643	1107285 12494 4651 18658 58.75 150 366 486.85000610352 733.30731201172 186230.94282532 95900021.847147
51642	1119779 12408 4651 18658 58.75 150 366 486.85000610352 785.82187652588 200427.03006744 111704290.09087
51702	1132187 8539 8663 19096 86 152.75 268 0.973 11.648172402475 629.4827592897 2973.2857074368
51701	1140726 9025 8663 19096 86 152.75 268 -3.9837675094604 2.5 37.662351608276 345.2217534738
51700	1149751 8994 8620 19096 85.75 152.75 269 0 15.64999961853 2192.4474410545 27865.145175474
51699	1158745 9350 8577 19096 85.5 152.75 270 486.85000610352 734.80085754395 139829.43492126 73537446.928823
51698	1168095 9330 8577 19096 85.5 152.75 270 486.85000610352 785.82187652588 150633.15372467 85895602.446347
vector 51838  IntersectionExampleScenario.node[47].veinsmobility  posx  ETV
vector 51839  IntersectionExampleScenario.node[47].veinsmobility  posy  ETV
vector 51840  IntersectionExampleScenario.node[47].veinsmobility  speed  ETV
51744	1177657 6280 12045 19371 106.25 154.5 194 0.973 11.648172402475 560.97444233758 2892.7789189571
51743	1183937 6378 12045 19371 106.25 154.5 194 -2.4788131713867 2.5 38.850629806519 315.92992499458
51742	1190315 6542 12004 19371 106 154.5 195 3.1092486381531 15.64999961853 2189.9147522449 28194.218492655
51741	1196857 6856 11963 19371 105.75 154.5 196 486.85000610352 734.56475830078 103637.84794617 55807822.957964
51740	1203713 6855 11963 19371 105.75 154.5 196 486.85000610352 785.82187652588 111448.66422272 65141340.422143
vector 51841  IntersectionExampleScenario.node[47].veinsmobility  acceleration  ETV
vector 51842  IntersectionExampleScenario.node[47].veinsmobility  co2emission  ETV
vector 51845  IntersectionExampleScenario.node[48].veinsmobility  posx  ETV
vector 51846  IntersectionExampleScenario.node[48].veinsmobility  posy  ETV
vector 51847  IntersectionExampleScenario.node[48].veinsmobility  speed  ETV
vector 51848  IntersectionExampleScenario.node[48].veinsmobility  acceleration  ETV
vector 51849  IntersectionExampleScenario.node[48].veinsmobility  co2emission  ETV
51765	1211138 4981 14933 20481 125.5 162 147 0.973 12.80944146078 530.33560227044 3376.2584351187
51764	1216119 4657 14933 20481 125.5 162 147 -3.5900192260742 2.5 44.112981796265 289.61286188482
51763	1220776 4852 14897 20481 125.25 162 148 5.6500000953674 17.25 2199.9621534348 34073.835329616
51762	1225628 5204 14860 20481 125 162 149 239.00256347656 486.85000610352 64951.957366943 29177071.28343
51761	1230832 5195 14860 20481 125 162 149 483.14999389648 785.82187652588 85377.777671814 50619368.803152
51772	1236027 5325 15274 21106 128 166.75 156 0.973 11.990504229548 488.07260826724 2638.067592112
51771	1241352 5100 15274 21106 128 166.75 156 -3.089282989502 2.5 39.529638290405 198.6164675268
51770	1246452 5238 15239 21106 127.75 166.75 157 5.6500000953674 16.125 2282.6826286316 33898.125153273
51769	1251690 5531 15204 21106 127.5 166.75 158 486.85000610352 486.85000610352 76922.300964355 37449622.693993
51768	1257221 5512 15204 21106 127.5 166.75 158 236.05126953125 801.41563415527 83620.723060608 48702369.337478
vector 51852  IntersectionExampleScenario.node[49].veinsmobility  posx  ETV
vector 51853  IntersectionExampleScenario.node[49].veinsmobility  posy  ETV
vector 51859  IntersectionExampleScenario.node[50].veinsmobility  posx  ETV
vector 51860  IntersectionExampleScenario.node[50].veinsmobility  posy  ETV
vector 51854  IntersectionExampleScenario.node[49].veinsmobility  speed  ETV
vector 51855  IntersectionExampleScenario.node[49].veinsmobility  acceleration  ETV
vector 51856  IntersectionExampleScenario.node[49].veinsmobility  co2emission  ETV
vector 51861  IntersectionExampleScenario.node[50].veinsmobility  speed  ETV
vector 51862  IntersectionExampleScenario.node[50].veinsmobility  acceleration  ETV
vector 51863  IntersectionExampleScenario.node[50].veinsmobility  co2emission  ETV
vector 51866  IntersectionExampleScenario.node[51].veinsmobility  posx  ETV
vector 51867  IntersectionExampleScenario.node[51].veinsmobility  posy  ETV
vector 51868  IntersectionExampleScenario.node[51].veinsmobility  speed  ETV
vector 51869  IntersectionExampleScenario.node[51].veinsmobility  acceleration  ETV
vector 51870  IntersectionExampleScenario.node[51].veinsmobility  co2emission  ETV
51681	1263936 11408 7025 21815 75.5 172.25 388 0.973 11.54047740176 762.82902868247 2979.7537220098
51680	1275344 10666 7025 21815 75.5 172.25 388 -4.5 2.5 38.850629806519 431.65192394927
51679	1286010 10848 6988 21815 75.25 172.25 389 0 15.5 2250.7493100986 31639.861088401
51678	1296858 13229 6951 21815 75 172.25 390 176.21716308594 734.10032653809 178029.1497345 85639156.373703
51677	1310087 13472 6951 21815 75 172.25 390 486.85000610352 486.85000610352 189871.50238037 92438942.092768
51660	1323559 11404 6507 21815 71.75 172.25 403 0.973 11.00486315618 737.20981502511 2724.3249554494
51659	1334963 10026 6507 21815 71.75 172.25 403 -7.815390586853 4 34.267293930054 450.84469127285
51658	1344989 10453 6473 21815 71.5 172.25 404 0 14.75 2200.1345348358 29347.28972525
51657	1355442 13943 6438 21815 71.25 172.25 405 184.17810058594 486.85000610352 178735.50247192 81243625.567881
51656	1369385 13965 6438 21815 71.25 172.25 405 236.70440673828 486.85000610352 188192.24224854 88748351.84078
51688	1383350 11570 7547 22235 79 175.25 386 0.973 11.200708441096 745.41483012319 2905.3575413204
51687	1394920 11497 7547 22235 79 175.25 386 -3.7469437122345 2.5 37.15309715271 341.46705305814
51686	1406417 11593 7508 22235 78.75 175.25 387 0 15.02499961853 2259.7065197863 29471.397843465
51685	1418010 13396 7469 22235 78.5 175.25 388 170.55389404297 486.85000610352 166502.54302979 73856062.974291
51684	1431406 13412 7469 22235 78.5 175.25 388 237.43963623047 486.85000610352 180366.17538452 85075244.837795
51695	1444818 11464 8331 22375 84 176.25 370 0.973 11.54047740176 746.4270151947 3054.8180579414
51694	1456282 11463 8331 22375 84 176.25 370 -4.5 2.5 39.869146347046 395.25667972768
51693	1467745 11567 8290 22375 83.75 176.25 371 0 15.671595573425 2234.2594584655 30346.998954713
51692	1479312 12882 8249 22375 83.5 176.25 372 178.62884521484 732.11251831055 166474.24478149 78692408.472398
51691	1492194 12911 8249 22375 83.5 176.25 372 486.85000610352 486.85000610352 181108.20227051 88172529.380794
vector 51873  IntersectionExampleScenario.node[52].veinsmobility  posx  ETV
vector 51874  IntersectionExampleScenario.node[52].veinsmobility  posy  ETV
vector 51875  IntersectionExampleScenario.node[52].veinsmobility  speed  ETV
vector 51876  IntersectionExampleScenario.node[52].veinsmobility  acceleration  ETV
vector 51877  IntersectionExampleScenario.node[52].veinsmobility  co2emission  ETV
51730	1505506 10389 10463 22819 96.75 179.5 332 0.973 11.810082123732 722.21534932948 3327.5036040434
51729	1515895 10845 10463 22819 96.75 179.5 332 -3.9114093780518 2.5 39.869146347046 402.60916016723
51728	1526740 10713 10418 22819 96.5 179.5 333 0 15.875 2191.9921774138 28642.793210554
51727	1537453 11625 10372 22819 96.25 179.5 334 184.17810058594 483.16149902344 140447.0567627 60972349.414536
51726	1549078 11674 10372 22819 96.25 179.5 334 486.85000610352 734.83822631836 170715.37973022 88394872.068732
51779	1560752 6847 15348 23170 128.5 182 215 0.973 11.200708441096 568.8523156612 2799.5946692019
51778	1567599 7068 15348 23170 128.5 182 215 -3.9676184654236 2.5 36.134572982788 345.406935458
51777	1574667 7256 15311 23170 128.25 182 216 0 15.02499961853 2207.9404007196 27885.227623876
51776	1581923 7548 15274 23170 128 182 217 184.17810058594 486.85000610352 88089.324157715 37621717.511286
51775	1589471 7575 15274 23170 128 182 217 237.28015136719 486.85003662109 96965.318969727 44425310.698176
51793	1597046 6819 15862 23520 132 184.5 211 0.973 11.36141391502 592.60730907255 3070.8816030391
51792	1603865 6878 15862 23520 132 184.5 211 -4.5 2.5000019073486 37.15309715271 438.43524152153
51791	1610743 7092 15825 23520 131.75 184.5 212 1.5738532543182 15.25 2227.913071394 28662.556489732
51790	1617835 7420 15788 23520 131.5 184.5 213 174.53436279297 483.24450683594 85343.084320068 36151010.699523
51789	1625255 7451 15788 23520 131.5 184.5 213 486.84994506836 734.36903381348 112124.35443115 60075624.608633
vector 51880  IntersectionExampleScenario.node[53].veinsmobility  posx  ETV
vector 51881  IntersectionExampleScenario.node[53].veinsmobility  posy  ETV
vector 51882  IntersectionExampleScenario.node[53].veinsmobility  speed  ETV
vector 51883  IntersectionExampleScenario.node[53].veinsmobility  acceleration  ETV
vector 51884  IntersectionExampleScenario.node[53].veinsmobility  co2emission  ETV
vector 51887  IntersectionExampleScenario.node[54].veinsmobility  posx  ETV
vector 51888  IntersectionExampleScenario.node[54].veinsmobility  posy  ETV
vector 51889  IntersectionExampleScenario.node[54].veinsmobility  speed  ETV
vector 51890  IntersectionExampleScenario.node[54].veinsmobility  acceleration  ETV
vector 51891  IntersectionExampleScenario.node[54].veinsmobility  co2emission  ETV
vector 51894  IntersectionExampleScenario.node[55].veinsmobility  posx  ETV
vector 51895  IntersectionExampleScenario.node[55].veinsmobility  posy  ETV
vector 51896  IntersectionExampleScenario.node[55].veinsmobility  speed  ETV
vector 51897  IntersectionExampleScenario.node[55].veinsmobility  acceleration  ETV
vector 51898  IntersectionExampleScenario.node[55].veinsmobility  co2emission  ETV
51842	1633909 5341 19412 24706 154.75 193.5 156 0.97223939240464 11.648172402475 492.14756265096 2642.1924718167
51841	1639250 4806 19412 24706 154.75 193.5 156 -4.0569152832031 2.5 38.680875778198 242.46457769804
51840	1644056 5212 19371 24706 154.5 193.5 157 5.6500000953674 15.64999961853 2203.1433601379 31848.468064158
51839	1649268 5508 19330 24706 154.25 193.5 158 184.17810058594 487.02737426758 62846.969909668 26764852.304686
51838	1654776 5518 19330 24706 154.25 193.5 158 237.24230957031 486.85000610352 68585.988342285 30718848.548987
vector 51901  IntersectionExampleScenario.node[56].veinsmobility  posx  ETV
vector 51902  IntersectionExampleScenario.node[56].veinsmobility  posy  ETV
vector 51903  IntersectionExampleScenario.node[56].veinsmobility  speed  ETV
vector 51904  IntersectionExampleScenario.node[56].veinsmobility  acceleration  ETV
vector 51905  IntersectionExampleScenario.node[56].veinsmobility  co2emission  ETV
vector 51908  IntersectionExampleScenario.node[57].veinsmobility  posx  ETV
vector 51909  IntersectionExampleScenario.node[57].veinsmobility  posy  ETV
vector 51910  IntersectionExampleScenario.node[57].veinsmobility  speed  ETV
vector 51911  IntersectionExampleScenario.node[57].veinsmobility  acceleration  ETV
vector 51912  IntersectionExampleScenario.node[57].veinsmobility  co2emission  ETV
vector 51915  IntersectionExampleScenario.node[58].veinsmobility  posx  ETV
vector 51916  IntersectionExampleScenario.node[58].veinsmobility  posy  ETV
vector 51917  IntersectionExampleScenario.node[58].veinsmobility  speed  ETV
vector 51922  IntersectionExampleScenario.node[59].veinsmobility  posx  ETV
vector 51923  IntersectionExampleScenario.node[59].veinsmobility  posy  ETV
vector 51918  IntersectionExampleScenario.node[58].veinsmobility  acceleration  ETV
vector 51919  IntersectionExampleScenario.node[58].veinsmobility  co2emission  ETV
vector 51924  IntersectionExampleScenario.node[59].veinsmobility  speed  ETV
51674	1661729 13952 6845 25778 74.25 201 508 0.973 11.810082123732 889.94742466996 3459.264287071
51673	1675681 12229 6845 25778 74.25 201 508 -7.2981567382812 4 39.699392318726 509.00295472581
51672	1687910 12503 6808 25778 74 201 509 0 15.875 2180.5247147083 31175.478089713
51671	1700413 17596 6771 25778 73.75 201 510 236.12365722656 483.14999389648 238343.63601685 112583113.87645
51670	1718009 17635 6771 25778 73.75 201 510 184.17810058594 483.36395263672 228658.45236206 104847940.33724
vector 51925  IntersectionExampleScenario.node[59].veinsmobility  acceleration  ETV
vector 51926  IntersectionExampleScenario.node[59].veinsmobility  co2emission  ETV
vector 51929  IntersectionExampleScenario.node[60].veinsmobility  posx  ETV
vector 51930  IntersectionExampleScenario.node[60].veinsmobility  posy  ETV
vector 51931  IntersectionExampleScenario.node[60].veinsmobility  speed  ETV
vector 51932  IntersectionExampleScenario.node[60].veinsmobility  acceleration  ETV
vector 51933  IntersectionExampleScenario.node[60].veinsmobility  co2emission  ETV
51709	1736214 13151 9863 26372 93.25 204.5 446 0.973 11.200708441096 781.03842652682 2828.4860939291
51708	1749365 13008 9863 26372 93.25 204.5 446 -3.9874148368835 2.5 35.625318527222 311.51176600335
51707	1762373 12946 9820 26372 93 204.5 447 0 15.02499961853 2176.1649099058 27660.374860061
51706	1775319 15641 9777 26372 92.75 204.5 448 238.46301269531 483.14999389648 208012.85577393 97797997.481534
51705	1790960 15617 9777 26372 92.75 204.5 448 184.17810058594 483.22854614258 196530.52185059 88458452.543119
51814	1806577 8470 17076 26587 140.25 205.75 263 0.973 11.90022389248 635.15012469632 3098.5577409157
51813	1815047 8926 17076 26587 140.25 205.75 263 -3.9245302677155 2.5000009536743 39.699392318726 347.43619596801
51812	1823973 8915 17039 26587 140 205.75 264 0 16 2205.8081878908 29513.611612722
51811	1832888 9266 17002 26587 139.75 205.75 265 483.14999389648 732.53112792969 136224.97280884 71134509.122054
51810	1842154 9241 17002 26587 139.75 205.75 265 184.17810058594 486.87634277344 111302.75357056 48714942.370065
51828	1851395 8264 17581 26802 143.5 207 255 0.973 11.990504229548 644.50522967962 3171.1222332288
51827	1859659 8601 17581 26802 143.5 207 255 -4.5 2.5 41.227170944214 400.49284420796
51826	1868260 8735 17540 26802 143.25 207 256 0 16.125 2255.6586813591 30721.265590588
51825	1876995 8993 17499 26802 143 207 257 483.14999389648 483.14999389648 124169.5484314 59992516.566758
51824	1885988 8948 17499 26802 143 207 257 172.9296875 731.49880981445 113516.77313232 54383128.87246
vector 51936  IntersectionExampleScenario.node[61].veinsmobility  posx  ETV
vector 51937  IntersectionExampleScenario.node[61].veinsmobility  posy  ETV
vector 51938  IntersectionExampleScenario.node[61].veinsmobility  speed  ETV
vector 51939  IntersectionExampleScenario.node[61].veinsmobility  acceleration  ETV
vector 51940  IntersectionExampleScenario.node[61].veinsmobility  co2emission  ETV
vector 51943  IntersectionExampleScenario.node[62].veinsmobility  posx  ETV
vector 51944  IntersectionExampleScenario.node[62].veinsmobility  posy  ETV
vector 51945  IntersectionExampleScenario.node[62].veinsmobility  speed  ETV
vector 51946  IntersectionExampleScenario.node[62].veinsmobility  acceleration  ETV
vector 51947  IntersectionExampleScenario.node[62].veinsmobility  co2emission  ETV
vector 51950  IntersectionExampleScenario.node[63].veinsmobility  posx  ETV
vector 51951  IntersectionExampleScenario.node[63].veinsmobility  posy  ETV
vector 51952  IntersectionExampleScenario.node[63].veinsmobility  speed  ETV
vector 51953  IntersectionExampleScenario.node[63].veinsmobility  acceleration  ETV
vector 51954  IntersectionExampleScenario.node[63].veinsmobility  co2emission  ETV
vector 51957  IntersectionExampleScenario.node[64].veinsmobility  posx  ETV
vector 51958  IntersectionExampleScenario.node[64].veinsmobility  posy  ETV
vector 51959  IntersectionExampleScenario.node[64].veinsmobility  speed  ETV
vector 51960  IntersectionExampleScenario.node[64].veinsmobility  acceleration  ETV
vector 51961  IntersectionExampleScenario.node[64].veinsmobility  co2emission  ETV
vector 51964  IntersectionExampleScenario.node[65].veinsmobility  posx  ETV
vector 51965  IntersectionExampleScenario.node[65].veinsmobility  posy  ETV
51737	1896694 14031 11963 30745 105.75 231.25 503 0.973 11.648172402475 869.67648966816 3236.7365583495
51736	1910725 12193 11963 30745 105.75 231.25 503 -6.8117866516113 4 38.850629806519 469.91515502781
51735	1922918 12642 11924 30745 105.5 231.25 504 0 15.64999961853 2207.1536474228 31385.929364603
51734	1935560 17668 11885 30745 105.25 231.25 505 483.14999389648 785.82187652588 263375.59568024 139715268.00255
51733	1953228 17669 11885 30745 105.25 231.25 505 483.14999389648 734.32060241699 252407.7077179 127425674.75391
vector 51966  IntersectionExampleScenario.node[65].veinsmobility  speed  ETV
vector 51967  IntersectionExampleScenario.node[65].veinsmobility  acceleration  ETV
vector 51968  IntersectionExampleScenario.node[65].veinsmobility  co2emission  ETV
51751	1971144 14167 12630 30925 110 232.5 491 0.973 11.810082123732 863.10212030602 3320.8882280429
51750	1985311 13242 12630 30925 110 232.5 491 -4.4427223205566 2.5 39.869146347046 408.56122688298
51749	1998553 13265 12591 30925 109.75 232.5 492 0 15.875 2206.5249306513 30931.819019541
51748	2011818 17229 12552 30925 109.5 232.5 493 486.85000610352 790.18281555176 260167.62041473 139604004.69159
51747	2029047 17247 12552 30925 109.5 232.5 493 235.62628173828 483.14999389648 230120.12808228 108609604.88049
vector 51971  IntersectionExampleScenario.node[66].veinsmobility  posx  ETV
vector 51972  IntersectionExampleScenario.node[66].veinsmobility  posy  ETV
51758	2046448 13934 13305 31065 114.5 233.5 477 0.973 11.990504229548 865.94961866838 3414.3574210374
51757	2060382 13497 13305 31065 114.5 233.5 477 -3.9420404434204 2.5 41.566686630249 372.83311550663
51756	2073879 13612 13266 31065 114.25 233.5 478 0 16.125 2233.2668665461 30750.609269274
51755	2087491 16733 13227 31065 114 233.5 479 237.16290283203 790.44610595703 247757.51449585 132280165.5145
51754	2104224 16764 13227 31065 114 233.5 479 483.14999389648 483.14999389648 231428.84707642 111814846.05244
vector 51973  IntersectionExampleScenario.node[66].veinsmobility  speed  ETV
vector 51974  IntersectionExampleScenario.node[66].veinsmobility  acceleration  ETV
vector 51975  IntersectionExampleScenario.node[66].veinsmobility  co2emission  ETV
vector 51978  IntersectionExampleScenario.node[67].veinsmobility  posx  ETV
vector 51979  IntersectionExampleScenario.node[67].veinsmobility  posy  ETV
vector 51980  IntersectionExampleScenario.node[67].veinsmobility  speed  ETV
vector 51981  IntersectionExampleScenario.node[67].veinsmobility  acceleration  ETV
vector 51982  IntersectionExampleScenario.node[67].veinsmobility  co2emission  ETV
51800	2121636 12231 16229 31562 134.5 236.75 410 0.973 12.099024792222 794.91981376819 3458.5459288025
51799	2133867 12146 16229 31562 134.5 236.75 410 -4.4480094909668 2.5 40.038900375366 399.11355952905
51798	2146013 12161 16192 31562 134.25 236.75 411 0 16.27499961853 2181.5504000708 28841.414728713
51797	2158174 14389 16155 31562 134 236.75 412 486.83660888672 785.82187652588 222677.79975128 122359948.93758
51796	2172563 14417 16155 31562 134 236.75 412 237.92590332031 483.14999389648 191141.37197876 89813150.140973
vector 51985  IntersectionExampleScenario.node[68].veinsmobility  posx  ETV
vector 51986  IntersectionExampleScenario.node[68].veinsmobility  posy  ETV
vector 51987  IntersectionExampleScenario.node[68].veinsmobility  speed  ETV
vector 51988  IntersectionExampleScenario.node[68].veinsmobility  acceleration  ETV
vector 51989  IntersectionExampleScenario.node[68].veinsmobility  co2emission  ETV
vector 51992  IntersectionExampleScenario.node[69].veinsmobility  posx  ETV
vector 51993  IntersectionExampleScenario.node[69].veinsmobility  posy  ETV
vector 51994  IntersectionExampleScenario.node[69].veinsmobility  speed  ETV
vector 51995  IntersectionExampleScenario.node[69].veinsmobility  acceleration  ETV
vector 51996  IntersectionExampleScenario.node[69].veinsmobility  co2emission  ETV
51821	2187782 11934 17265 32010 141.5 239.5 393 0.973 11.200708441096 722.85714212873 2803.9093932213
51820	2199716 12094 17265 32010 141.5 239.5 393 -3.8695743083954 2.5000009536743 35.455564498901 313.8719292431
51819	2211810 12188 17226 32010 141.25 239.5 394 0 15.02499961853 2210.5801387848 27600.028172077
51818	2223998 13781 17187 32010 141 239.5 395 238.26312255859 785.82187652588 207430.94280243 113224419.55366
51817	2237779 13824 17187 32010 141 239.5 395 483.14999389648 483.14999389648 190844.24758911 92206397.057859
51849	2251603 10203 20341 32421 161 242 325 0.97223939240464 11.810082123732 715.76415180944 3368.2634924593
51848	2261806 10633 20341 32421 161 242 325 -3.9159204959869 2.5 38.680875778198 416.29020290221
51847	2272439 10544 20305 32421 160.75 242 326 0 15.875 2192.0855281008 28257.310600515
51846	2282983 11429 20268 32421 160.5 242 327 486.85000610352 785.82187652588 180890.30672455 101945152.18775
51845	2294412 11443 20268 32421 160.5 242 327 235.28393554688 483.14999389648 149754.16955566 69732130.329245
51856	2305855 8932 21438 32708 169.5 243.75 298 0.973 11.200708441096 644.07291088666 2878.8842992969
51855	2314787 9114 21438 32708 169.5 243.75 298 -4.3899345397949 2.5 36.98334312439 349.8548880659
51854	2323901 9287 21405 32708 169.25 243.75 299 0 15.02499961853 2216.3885575868 28193.999045765
51853	2333188 10451 21374 32708 169 243.75 300 236.89385986328 785.82187652588 159405.98325348 88973847.150837
51852	2343639 10500 21374 32708 169 243.75 300 483.14999389648 483.14999389648 144944.99816895 70030174.980652
vector 51999  IntersectionExampleScenario.node[70].veinsmobility  posx  ETV
vector 52000  IntersectionExampleScenario.node[70].veinsmobility  posy  ETV
vector 52001  IntersectionExampleScenario.node[70].veinsmobility  speed  ETV
vector 52002  IntersectionExampleScenario.node[70].veinsmobility  acceleration  ETV
vector 52003  IntersectionExampleScenario.node[70].veinsmobility  co2emission  ETV
51870	2354540 9134 21640 33046 171 245.75 300 0.973 11.200708441096 665.79625189721 2889.6908792834
51869	2363674 8844 21640 33046 171 245.75 300 -4.5 2.5 38.341367721558 392.0532076766
51868	2372518 9123 21605 33046 170.75 245.75 301 0 15.373400688171 2302.2967252061 30422.941206315
51867	2381641 10522 21570 33046 170.5 245.75 302 235.68505859375 806.11563110352 162565.81742859 92176249.145026
51866	2392163 10571 21570 33046 170.5 245.75 302 483.14999389648 483.14999389648 145911.29815674 70497042.813856
vector 52006  IntersectionExampleScenario.node[71].veinsmobility  posx  ETV
vector 52007  IntersectionExampleScenario.node[71].veinsmobility  posy  ETV
51933	2402888 5973 26028 33420 202.5 248 183 0.973 11.648172402475 583.37539702064 3309.4656461389
51932	2408861 5817 26028 33420 202.5 248 183 -4.8969764709473 2.5 38.511121749878 391.59484449278
51931	2414678 6154 25985 33420 202.25 248 184 5.294481754303 15.64999961853 2201.0882239342 28708.616585753
51930	2420832 6462 25942 33420 202 248 185 482.98522949219 785.82187652588 105745.42290497 62228079.694449
51929	2427294 6425 25942 33420 202 248 185 483.14999389648 732.27987670898 97708.604827881 52612644.781102
vector 52008  IntersectionExampleScenario.node[71].veinsmobility  speed  ETV
vector 52009  IntersectionExampleScenario.node[71].veinsmobility  acceleration  ETV
vector 52010  IntersectionExampleScenario.node[71].veinsmobility  co2emission  ETV
51947	2433966 5368 28204 34447 215 254.5 159 0.973 11.810082123732 508.4950549796 2854.087922808
51946	2439334 5031 28204 34447 215 254.5 159 -3.5986614227295 2.5 38.511121749878 289.97112958782
51945	2444365 5278 28157 34447 214.75 254.5 160 5.6500000953674 15.875 2187.4242949486 31251.739662354
51944	2449643 5629 28110 34447 214.5 254.5 161 486.66131591797 785.82187652588 92176.02205658 54512625.251599
51943	2455272 5634 28110 34447 214.5 254.5 161 236.08941650391 483.14999389648 69584.914764404 31005036.492861
vector 52013  IntersectionExampleScenario.node[72].veinsmobility  posx  ETV
vector 52014  IntersectionExampleScenario.node[72].veinsmobility  posy  ETV
vector 52015  IntersectionExampleScenario.node[72].veinsmobility  speed  ETV
vector 52016  IntersectionExampleScenario.node[72].veinsmobility  acceleration  ETV
vector 52017  IntersectionExampleScenario.node[72].veinsmobility  co2emission  ETV
vector 52020  IntersectionExampleScenario.node[73].veinsmobility  posx  ETV
vector 52021  IntersectionExampleScenario.node[73].veinsmobility  posy  ETV
vector 52022  IntersectionExampleScenario.node[73].veinsmobility  speed  ETV
vector 52023  IntersectionExampleScenario.node[73].veinsmobility  acceleration  ETV
vector 52024  IntersectionExampleScenario.node[73].veinsmobility  co2emission  ETV
vector 52027  IntersectionExampleScenario.node[74].veinsmobility  posx  ETV
vector 52028  IntersectionExampleScenario.node[74].veinsmobility  posy  ETV
vector 52029  IntersectionExampleScenario.node[74].veinsmobility  speed  ETV
vector 52030  IntersectionExampleScenario.node[74].veinsmobility  acceleration  ETV
vector 52031  IntersectionExampleScenario.node[74].veinsmobility  co2emission  ETV
51786	2462109 14859 15493 35550 129.5 262 531 0.973 11.90022389248 928.0526691719 3503.0036098546
51785	2476968 12786 15493 35550 129.5 262 531 -43.984359741211 4 39.699392318726 2290.0592930035
51784	2489754 13254 15456 35550 129.25 262 532 0 16 2331.3286037445 34087.469036769
51783	2503008 18653 15419 35550 129 262 533 486.85000610352 486.85000610352 259491.05325317 126333220.86012
51782	2521661 18635 15419 35550 129 262 533 235.46020507812 813.91251373291 271593.11548615 143288228.06069
51807	2540296 15037 16307 35935 135 264.75 520 0.973 11.200708441096 879.02935693451 3095.8226196507
51806	2555333 14305 16307 35935 135 264.75 520 -3.7244522571564 2.5 37.15309715271 363.80928916721
51805	2569638 14413 16268 35935 134.75 264.75 521 0 15.439431190491 2254.1591297006 30412.865448541
51804	2584051 18271 16229 35935 134.5 264.75 522 486.85000610352 486.85000610352 254135.70318604 123725968.64724
51803	2602322 18249 16229 35935 134.5 264.75 522 235.57647705078 794.50106048584 267025.28971863 141066035.27897
vector 52034  IntersectionExampleScenario.node[75].veinsmobility  posx  ETV
vector 52035  IntersectionExampleScenario.node[75].veinsmobility  posy  ETV
vector 52036  IntersectionExampleScenario.node[75].veinsmobility  speed  ETV
51835	2620803 14038 18036 36135 146.25 266.25 481 0.973 11.648172402475 848.02376502904 3198.4367171019
51834	2634841 13759 18036 36135 146.25 266.25 481 -3.9107708930969 2.5 39.699392318726 336.02437165962
51833	2648600 13805 17993 36135 146 266.25 482 0 15.64999961853 2219.656834106 29833.809285183
51832	2662405 16905 17950 36135 145.75 266.25 483 486.85000610352 486.85000610352 235148.552948 114482074.43797
51831	2679310 16872 17950 36135 145.75 266.25 483 235.99273681641 785.82187652588 249270.2530899 132774929.05686
vector 52037  IntersectionExampleScenario.node[75].veinsmobility  acceleration  ETV
vector 52038  IntersectionExampleScenario.node[75].veinsmobility  co2emission  ETV
vector 52041  IntersectionExampleScenario.node[76].veinsmobility  posx  ETV
vector 52042  IntersectionExampleScenario.node[76].veinsmobility  posy  ETV
vector 52043  IntersectionExampleScenario.node[76].veinsmobility  speed  ETV
vector 52044  IntersectionExampleScenario.node[76].veinsmobility  acceleration  ETV
vector 52045  IntersectionExampleScenario.node[76].veinsmobility  co2emission  ETV
51877	2696752 10936 22784 36440 179.25 268.5 358 0.96333723109819 12.099024792222 738.90447930423 3372.4270797217
51876	2707688 11074 22784 36440 179.25 268.5 358 -3.8034899234772 2.5 40.208654403687 366.55477780197
51875	2718762 11081 22749 36440 179 268.5 359 0 16.27499961853 2204.0532155996 29473.077325379
51874	2729843 12589 22714 36440 178.75 268.5 360 238.46771240234 486.85000610352 167195.62741089 78804021.237799
51873	2742432 12568 22714 36440 178.75 268.5 360 483.14999389648 785.82187652588 195523.23433685 108193237.66352
vector 52048  IntersectionExampleScenario.node[77].veinsmobility  posx  ETV
vector 52049  IntersectionExampleScenario.node[77].veinsmobility  posy  ETV
vector 52050  IntersectionExampleScenario.node[77].veinsmobility  speed  ETV
vector 52051  IntersectionExampleScenario.node[77].veinsmobility  acceleration  ETV
vector 52052  IntersectionExampleScenario.node[77].veinsmobility  co2emission  ETV
51884	2755401 10593 24075 37050 188.75 273 338 0.973 11.200708441096 692.10852056132 2890.8617557423
51883	2765994 10880 24075 37050 188.75 273 338 -3.7826235294342 2.5 35.455564498901 357.37732059124
51882	2776874 10961 24042 37050 188.5 273 339 0 15.02499961853 2194.041568812 27099.541189502
51881	2787835 11894 24009 37050 188.25 273 340 486.85000610352 735.48985290527 174266.09127808 90539948.363659
51880	2799729 11858 24009 37050 188.25 273 340 486.85000610352 785.82187652588 186911.42317963 104727947.61063
51891	2811587 11079 24211 37155 189.75 273.75 337 0.973 11.093806525473 711.08112913712 2942.9787581419
51890	2822666 11472 24211 37155 189.75 273.75 337 -4.5134773254395 2.5 35.964826583862 432.2110607634
51889	2834138 11458 24176 37155 189.5 273.75 338 0 14.929388999939 2304.4235400278 29474.734335694
51888	2845596 11867 24141 37155 189.25 273.75 339 486.85000610352 486.85000610352 165042.15206909 80350772.742175
51887	2857463 11835 24141 37155 189.25 273.75 339 237.28179931641 807.99687957764 180879.56138611 101303779.75215
vector 52055  IntersectionExampleScenario.node[78].veinsmobility  posx  ETV
vector 52056  IntersectionExampleScenario.node[78].veinsmobility  posy  ETV
vector 52057  IntersectionExampleScenario.node[78].veinsmobility  speed  ETV
vector 52058  IntersectionExampleScenario.node[78].veinsmobility  acceleration  ETV
vector 52059  IntersectionExampleScenario.node[78].veinsmobility  co2emission  ETV
51898	2869699 10328 24574 37412 192.5 275.5 333 0.973 11.200708441096 713.88944549174 2930.129387559
51897	2880027 10242 24574 37412 192.5 275.5 333 -4.5 2.5000019073486 38.341367721558 519.65126722575
51896	2890269 10226 24541 37412 192.25 275.5 334 0 15.302702903748 2315.7243610322 30400.773246395
51895	2900495 11724 24508 37412 192 275.5 335 486.85000610352 486.85000610352 163094.75204468 79402681.028403
51894	2912219 11704 24508 37412 192 275.5 335 237.24676513672 811.13282012939 180368.12142181 101858014.75754
51905	2923923 10045 24842 37791 194.5 278.25 336 0.973 11.648172402475 763.87992564997 3452.8569360147
51904	2933968 9815 24842 37791 194.5 278.25 336 -4.5 4 41.227170944214 599.01910208877
51903	2943783 9925 24807 37791 194.25 278.25 337 0 15.986743927002 2305.8414673805 30767.170088949
51902	2953708 11821 24772 37791 194 278.25 338 486.85000610352 732.88558959961 172438.81219482 89071063.737656
51901	2965529 11636 24772 37791 194 278.25 338 486.70791625977 816.57735443115 191305.6043396 110601495.88397
vector 52062  IntersectionExampleScenario.node[79].veinsmobility  posx  ETV
vector 52063  IntersectionExampleScenario.node[79].veinsmobility  posy  ETV
vector 52064  IntersectionExampleScenario.node[79].veinsmobility  speed  ETV
vector 52065  IntersectionExampleScenario.node[79].veinsmobility  acceleration  ETV
vector 52066  IntersectionExampleScenario.node[79].veinsmobility  co2emission  ETV
51926	2977566 10543 25819 38281 201.25 282 324 0.973 10.916047529558 666.281084937 2752.3565479467
51925	2988109 11414 25819 38281 201.25 282 324 -3.511919260025 2.5 34.77654838562 318.01473607067
51924	2999523 11239 25778 38281 201 282 325 0 14.741916656494 2179.877298981 25624.377887653
51923	3010762 11399 25737 38281 200.75 282 326 486.85000610352 732.81988525391 167357.58894348 87101667.731901
51922	3022161 11378 25737 38281 200.75 282 326 486.84606933594 785.82187652588 184096.35601044 105830056.94013
vector 52069  IntersectionExampleScenario.node[80].veinsmobility  posx  ETV
vector 52070  IntersectionExampleScenario.node[80].veinsmobility  posy  ETV
vector 52071  IntersectionExampleScenario.node[80].veinsmobility  speed  ETV
vector 52072  IntersectionExampleScenario.node[80].veinsmobility  acceleration  ETV
vector 52073  IntersectionExampleScenario.node[80].veinsmobility  co2emission  ETV
51982	3033940 6304 31328 38478 235.25 283.5 194 0.973 11.200708441096 560.07289325235 2755.4545859311
51981	3040244 6152 31328 38478 235.25 283.5 194 -3.2739009857178 2.5 36.98334312439 323.13521769423
51980	3046396 6618 31289 38478 235 283.5 195 4.9863266944885 15.02499961853 2178.1175642014 26913.245995277
51979	3053014 6850 31250 38478 234.75 283.5 196 486.85000610352 731.9031829834 103706.32582092 55871752.942871
51978	3059864 6854 31250 38478 234.75 283.5 196 486.85000610352 785.82187652588 112169.44158173 65985111.697749
vector 52076  IntersectionExampleScenario.node[81].veinsmobility  posx  ETV
vector 52077  IntersectionExampleScenario.node[81].veinsmobility  posy  ETV
vector 52078  IntersectionExampleScenario.node[81].veinsmobility  speed  ETV
vector 52083  IntersectionExampleScenario.node[82].veinsmobility  posx  ETV
vector 52084  IntersectionExampleScenario.node[82].veinsmobility  posy  ETV
vector 52079  IntersectionExampleScenario.node[81].veinsmobility  acceleration  ETV
vector 52080  IntersectionExampleScenario.node[81].veinsmobility  co2emission  ETV
vector 52085  IntersectionExampleScenario.node[82].veinsmobility  speed  ETV
vector 52086  IntersectionExampleScenario.node[82].veinsmobility  acceleration  ETV
vector 52087  IntersectionExampleScenario.node[82].veinsmobility  co2emission  ETV
51996	3067520 6137 31846 38654 238.5 284.75 186 0.973 11.200708441096 548.78170712852 2839.7077533788
51995	3073657 5988 31846 38654 238.5 284.75 186 -4.2043647766113 2.5000019073486 35.964826583862 328.59339196862
51994	3079645 6320 31805 38654 238.25 284.75 187 5.6500000953674 15.02499961853 2254.5671987534 28715.709204925
51993	3085965 6580 31764 38654 238 284.75 188 486.85000610352 486.85000610352 91527.801147461 44560310.547283
51992	3092545 6563 31764 38654 238 284.75 188 237.98901367188 797.07032012939 100291.9440918 58088189.537668
vector 52090  IntersectionExampleScenario.node[83].veinsmobility  posx  ETV
vector 52091  IntersectionExampleScenario.node[83].veinsmobility  posy  ETV
vector 52092  IntersectionExampleScenario.node[83].veinsmobility  speed  ETV
vector 52093  IntersectionExampleScenario.node[83].veinsmobility  acceleration  ETV
vector 52094  IntersectionExampleScenario.node[83].veinsmobility  co2emission  ETV
vector 52097  IntersectionExampleScenario.node[84].veinsmobility  posx  ETV
vector 52098  IntersectionExampleScenario.node[84].veinsmobility  posy  ETV
vector 52099  IntersectionExampleScenario.node[84].veinsmobility  speed  ETV
vector 52100  IntersectionExampleScenario.node[84].veinsmobility  acceleration  ETV
vector 52101  IntersectionExampleScenario.node[84].veinsmobility  co2emission  ETV
vector 52104  IntersectionExampleScenario.node[85].veinsmobility  posx  ETV
vector 52105  IntersectionExampleScenario.node[85].veinsmobility  posy  ETV
vector 52106  IntersectionExampleScenario.node[85].veinsmobility  speed  ETV
vector 52107  IntersectionExampleScenario.node[85].veinsmobility  acceleration  ETV
vector 52108  IntersectionExampleScenario.node[85].veinsmobility  co2emission  ETV
vector 52111  IntersectionExampleScenario.node[86].veinsmobility  posx  ETV
vector 52112  IntersectionExampleScenario.node[86].veinsmobility  posy  ETV
51863	3100465 13801 21471 39858 169.75 292.75 493 0.973 11.36141391502 837.06867797725 3027.6928930991
51862	3114266 12198 21471 39858 169.75 292.75 493 -7.5492124557495 4 35.964826583862 470.20912911166
51861	3126464 12461 21438 39858 169.5 292.75 494 0 15.25 2176.5375266075 29657.885748113
51860	3138925 17297 21405 39858 169.25 292.75 495 184.17810058594 483.36395263672 221159.53778076 101188547.16351
51859	3156222 17259 21405 39858 169.25 292.75 495 486.85000610352 733.14964294434 249481.41894531 126985859.30082
vector 52113  IntersectionExampleScenario.node[86].veinsmobility  speed  ETV
vector 52114  IntersectionExampleScenario.node[86].veinsmobility  acceleration  ETV
vector 52115  IntersectionExampleScenario.node[86].veinsmobility  co2emission  ETV
51919	3173728 11181 25737 39936 200.75 293.25 371 0.97223939240464 11.648172402475 733.90833410115 3083.8983053603
51918	3184909 11177 25737 39936 200.75 293.25 371 -3.8634693622589 2.5 38.680875778198 346.26792707155
51917	3196086 11154 25698 39936 200.5 293.25 372 0 15.64999961853 2216.9944785479 29737.171565388
51916	3207240 13015 25659 39936 200.25 293.25 373 184.17810058594 733.55033874512 170258.12019348 81883853.122252
51915	3220255 13056 25659 39936 200.25 293.25 373 486.85000610352 486.85000610352 181595.05227661 88409552.309237
vector 52118  IntersectionExampleScenario.node[87].veinsmobility  posx  ETV
vector 52119  IntersectionExampleScenario.node[87].veinsmobility  posy  ETV
vector 52125  IntersectionExampleScenario.node[88].veinsmobility  posx  ETV
vector 52126  IntersectionExampleScenario.node[88].veinsmobility  posy  ETV
vector 52120  IntersectionExampleScenario.node[87].veinsmobility  speed  ETV
vector 52121  IntersectionExampleScenario.node[87].veinsmobility  acceleration  ETV
vector 52122  IntersectionExampleScenario.node[87].veinsmobility  co2emission  ETV
vector 52127  IntersectionExampleScenario.node[88].veinsmobility  speed  ETV
51940	3233944 10277 27795 40254 212.75 295.25 331 0.973 11.648172402475 701.54943406765 3073.5199603925
51939	3244221 10491 27795 40254 212.75 295.25 331 -3.9663150310516 2.5 39.699392318726 340.56977926924
51938	3254712 10617 27750 40254 212.5 295.25 332 0 15.64999961853 2215.8784070732 29772.370802601
51937	3265329 11608 27705 40254 212.25 295.25 333 184.17810058594 732.9451751709 150311.66534424 71951724.456447
51936	3276937 11656 27705 40254 212.25 295.25 333 486.85000610352 486.85000610352 162121.05203247 78928635.171517
vector 52128  IntersectionExampleScenario.node[88].veinsmobility  acceleration  ETV
vector 52129  IntersectionExampleScenario.node[88].veinsmobility  co2emission  ETV
vector 52132  IntersectionExampleScenario.node[89].veinsmobility  posx  ETV
vector 52133  IntersectionExampleScenario.node[89].veinsmobility  posy  ETV
vector 52134  IntersectionExampleScenario.node[89].veinsmobility  speed  ETV
vector 52135  IntersectionExampleScenario.node[89].veinsmobility  acceleration  ETV
vector 52136  IntersectionExampleScenario.node[89].veinsmobility  co2emission  ETV
51961	3289163 9308 30200 41005 227.5 299.5 289 0.973 11.200708441096 639.58874674248 2784.3704293257
51960	3298471 9656 30200 41005 227.5 299.5 289 -3.8712651729584 2.5 35.795072555542 339.49930669886
51959	3308127 9769 30161 41005 227.25 299.5 290 0 15.02499961853 2194.2139694141 27573.172082302
51958	3317896 10154 30122 41005 227 299.5 291 184.17810058594 483.14999389648 121925.98422241 53059161.195889
51957	3328050 10152 30122 41005 227 299.5 291 486.85000610352 735.44831848145 150352.01055908 78859919.206554
51968	3338202 9162 30819 41276 231.75 301 278 0.973 11.200708441096 658.09343365506 2884.8562922644
51967	3347364 9337 30819 41276 231.75 301 278 -4.5 2.5 39.869146347046 419.22249864986
51966	3356701 9437 30782 41276 231.5 301 279 0 15.65761089325 2204.1946208961 29160.803376704
51965	3366138 9769 30745 41276 231.25 301 280 179.81719970703 483.14999389648 116256.64727783 50223469.193869
51964	3375907 9794 30745 41276 231.25 301 280 486.85000610352 733.44403076172 144371.93127441 75523555.731234
vector 52139  IntersectionExampleScenario.node[90].veinsmobility  posx  ETV
vector 52140  IntersectionExampleScenario.node[90].veinsmobility  posy  ETV
vector 52141  IntersectionExampleScenario.node[90].veinsmobility  speed  ETV
vector 52142  IntersectionExampleScenario.node[90].veinsmobility  acceleration  ETV
vector 52143  IntersectionExampleScenario.node[90].veinsmobility  co2emission  ETV
51975	3386102 9079 31139 41556 234 302.5 275 0.973 11.54047740176 641.05860274994 2929.7264107224
51974	3395181 9279 31139 41556 234 302.5 275 -4.5 2.5 37.15309715271 405.73510634157
51973	3404460 9386 31102 41556 233.75 302.5 276 0 15.5 2298.1808060054 30524.340275321
51972	3413846 9658 31065 41556 233.5 302.5 277 165.11169433594 733.79695129395 121351.7375946 57833777.872672
51971	3423504 9695 31065 41556 233.5 302.5 277 486.85000610352 486.85000610352 134857.45169067 65655351.178709
vector 52146  IntersectionExampleScenario.node[91].veinsmobility  posx  ETV
vector 52147  IntersectionExampleScenario.node[91].veinsmobility  posy  ETV
vector 52148  IntersectionExampleScenario.node[91].veinsmobility  speed  ETV
vector 52149  IntersectionExampleScenario.node[91].veinsmobility  acceleration  ETV
vector 52150  IntersectionExampleScenario.node[91].veinsmobility  co2emission  ETV
52003	3433600 7578 32917 42078 245 305.25 242 0.97223939240464 11.810082123732 634.01434496991 3334.7110331488
52002	3441178 7964 32917 42078 245 305.25 242 -3.5502381324768 2.5 38.680875778198 450.69494743634
52001	3449142 7937 32874 42078 244.75 305.25 243 0 15.875 2190.5012697577 28005.19340143
52000	3457079 8510 32831 42078 244.5 305.25 244 184.17810058594 483.34146118164 99163.202972412 42099270.071972
51999	3465589 8527 32831 42078 244.5 305.25 244 486.84994506836 734.41009521484 127005.82667542 67184521.645727
vector 52153  IntersectionExampleScenario.node[92].veinsmobility  posx  ETV
vector 52154  IntersectionExampleScenario.node[92].veinsmobility  posy  ETV
vector 52155  IntersectionExampleScenario.node[92].veinsmobility  speed  ETV
vector 52156  IntersectionExampleScenario.node[92].veinsmobility  acceleration  ETV
vector 52157  IntersectionExampleScenario.node[92].veinsmobility  co2emission  ETV
vector 52160  IntersectionExampleScenario.node[93].veinsmobility  posx  ETV
vector 52161  IntersectionExampleScenario.node[93].veinsmobility  posy  ETV
vector 52162  IntersectionExampleScenario.node[93].veinsmobility  speed  ETV
vector 52163  IntersectionExampleScenario.node[93].veinsmobility  acceleration  ETV
vector 52164  IntersectionExampleScenario.node[93].veinsmobility  co2emission  ETV
vector 52167  IntersectionExampleScenario.node[94].veinsmobility  posx  ETV
vector 52168  IntersectionExampleScenario.node[94].veinsmobility  posy  ETV
vector 52169  IntersectionExampleScenario.node[94].veinsmobility  speed  ETV
vector 52170  IntersectionExampleScenario.node[94].veinsmobility  acceleration  ETV
vector 52171  IntersectionExampleScenario.node[94].veinsmobility  co2emission  ETV
vector 52174  IntersectionExampleScenario.node[95].veinsmobility  posx  ETV
vector 52175  IntersectionExampleScenario.node[95].veinsmobility  posy  ETV
vector 52176  IntersectionExampleScenario.node[95].veinsmobility  speed  ETV
vector 52177  IntersectionExampleScenario.node[95].veinsmobility  acceleration  ETV
vector 52178  IntersectionExampleScenario.node[95].veinsmobility  co2emission  ETV
vector 52181  IntersectionExampleScenario.node[96].veinsmobility  posx  ETV
vector 52182  IntersectionExampleScenario.node[96].veinsmobility  posy  ETV
vector 52183  IntersectionExampleScenario.node[96].veinsmobility  speed  ETV
vector 52184  IntersectionExampleScenario.node[96].veinsmobility  acceleration  ETV
vector 52185  IntersectionExampleScenario.node[96].veinsmobility  co2emission  ETV
vector 52188  IntersectionExampleScenario.node[97].veinsmobility  posx  ETV
vector 52189  IntersectionExampleScenario.node[97].veinsmobility  posy  ETV
vector 52190  IntersectionExampleScenario.node[97].veinsmobility  speed  ETV
vector 52195  IntersectionExampleScenario.node[98].veinsmobility  posx  ETV
vector 52196  IntersectionExampleScenario.node[98].veinsmobility  posy  ETV
vector 52191  IntersectionExampleScenario.node[97].veinsmobility  acceleration  ETV
vector 52192  IntersectionExampleScenario.node[97].veinsmobility  co2emission  ETV
vector 52202  IntersectionExampleScenario.node[99].veinsmobility  posx  ETV
vector 52203  IntersectionExampleScenario.node[99].veinsmobility  posy  ETV
vector 52197  IntersectionExampleScenario.node[98].veinsmobility  speed  ETV
vector 52198  IntersectionExampleScenario.node[98].veinsmobility  acceleration  ETV
vector 52199  IntersectionExampleScenario.node[98].veinsmobility  co2emission  ETV
vector 52204  IntersectionExampleScenario.node[99].veinsmobility  speed  ETV
vector 52205  IntersectionExampleScenario.node[99].veinsmobility  acceleration  ETV
vector 52206  IntersectionExampleScenario.node[99].veinsmobility  co2emission  ETV
52066	3477324 5341 38116 44950 280.75 319.5 156 0.973 11.54047740176 464.21906764276 2334.0371168052
52065	3482665 4795 38116 44950 280.75 319.5 156 -3.3398857116699 2.5 37.15309715271 186.6448788828
52064	3487460 5259 38083 44950 280.5 319.5 157 5.6500000953674 15.5 2213.6558437347 31783.54138806
52063	3492719 5495 38050 44950 280.25 319.5 158 184.17810058594 732.48867797852 70860.174697876 35963111.468696
52062	3498214 5531 38050 44950 280.25 319.5 158 486.85000610352 486.85000610352 76922.300964355 37449622.693993
vector 52209  IntersectionExampleScenario.node[100].veinsmobility  posx  ETV
vector 52210  IntersectionExampleScenario.node[100].veinsmobility  posy  ETV
vector 52211  IntersectionExampleScenario.node[100].veinsmobility  speed  ETV
vector 52212  IntersectionExampleScenario.node[100].veinsmobility  acceleration  ETV
vector 52213  IntersectionExampleScenario.node[100].veinsmobility  co2emission  ETV
vector 52216  IntersectionExampleScenario.node[101].veinsmobility  posx  ETV
vector 52217  IntersectionExampleScenario.node[101].veinsmobility  posy  ETV
vector 52223  IntersectionExampleScenario.node[102].veinsmobility  posx  ETV
vector 52224  IntersectionExampleScenario.node[102].veinsmobility  posy  ETV
vector 52218  IntersectionExampleScenario.node[101].veinsmobility  speed  ETV
vector 52219  IntersectionExampleScenario.node[101].veinsmobility  acceleration  ETV
vector 52220  IntersectionExampleScenario.node[101].veinsmobility  co2emission  ETV
vector 52225  IntersectionExampleScenario.node[102].veinsmobility  speed  ETV
vector 52226  IntersectionExampleScenario.node[102].veinsmobility  acceleration  ETV
vector 52227  IntersectionExampleScenario.node[102].veinsmobility  co2emission  ETV
52017	3504963 8635 34740 45831 256.5 323.5 269 0.973 11.54047740176 622.68731476967 2844.1495359765
52016	3513598 9138 34740 45831 256.5 323.5 269 -3.8910021781921 2.5 36.98334312439 337.56901785209
52015	3522736 9045 34703 45831 256.25 323.5 270 0 15.5 2209.1757965013 29019.38926195
52014	3531781 9484 34666 45831 256 323.5 271 483.14999389648 483.14999389648 130933.64834595 63260591.399189
52013	3541265 9438 34666 45831 256 323.5 271 184.17810058594 731.81005859375 122740.00012207 59794335.871812
51912	3550703 14009 25511 45831 199.25 323.5 498 0.973 10.756497587458 819.56043661455 2679.7815984122
51911	3564712 12139 25511 45831 199.25 323.5 498 -8.9238510131836 4 33.248777389526 448.2948161547
51910	3576851 12687 25474 45831 199 323.5 499 0 14.39999961853 2178.8042833805 28428.562000341
51909	3589538 17437 25437 45831 198.75 323.5 500 236.44110107422 483.14999389648 232654.0151062 109562440.81688
[...]
53014	10918120 8315 109505 121433 734.5 792 231 486.85000610352 486.85003662109 112462.35144043 54752296.500046
53074	10926435 6056 111302 121653 747 793 185 0.973 12.099024792222 588.16368237508 3424.6363753495
53073	10932491 6170 111302 121653 747 793 185 -3.5434494018555 2.5 41.057416915894 363.21614260687
53072	10938661 6403 111255 121653 746.75 793 186 4.354679107666 16.27499961853 2201.4391736984 29005.290645289
53071	10945064 6704 111208 121653 746.5 793 187 184.17810058594 487.04345703125 74431.256500244 31388550.206019
53070	10951768 6723 111208 121653 746.5 793 187 237.89080810547 486.85000610352 83031.429840088 37850597.468343
vector 53203  IntersectionExampleScenario.node[242].veinsmobility  posx  ETV
vector 53204  IntersectionExampleScenario.node[242].veinsmobility  posy  ETV
vector 53205  IntersectionExampleScenario.node[242].veinsmobility  speed  ETV
vector 53206  IntersectionExampleScenario.node[242].veinsmobility  acceleration  ETV
vector 53207  IntersectionExampleScenario.node[242].veinsmobility  co2emission  ETV
53102	10958897 5918 112231 122145 751.5 795.25 176 0.973 11.200708441096 513.37302654977 2690.1141839742
53101	10964815 5662 112231 122145 751.5 795.25 176 -3.2312889099121 2.5 37.15309715271 242.29947630142
53100	10970477 6150 112178 122145 751.25 795.25 177 5.6500000953674 15.02499961853 2212.4688267708 29007.944971993
53099	10976627 6379 112125 122145 751 795.25 178 184.17810058594 732.27288818359 78954.60786438 39256854.622446
53098	10983006 6407 112125 122145 751 795.25 178 486.85000610352 486.85000610352 86659.301086426 42190081.262853
vector 53210  IntersectionExampleScenario.node[243].veinsmobility  posx  ETV
vector 53211  IntersectionExampleScenario.node[243].veinsmobility  posy  ETV
vector 53212  IntersectionExampleScenario.node[243].veinsmobility  speed  ETV
53109	10989648 5921 112553 122472 753 796.75 176 0.973 10.756497587458 497.85610067803 2322.5450761584
53108	10995569 5973 112553 122472 753 796.75 176 -2.5961494445801 2.5 38.680875778198 172.74726501978
53107	11001542 6171 112498 122472 752.75 796.75 177 5.6500000953674 15.358901023865 2298.7153987885 30831.889445669
53106	11007713 6368 112443 122472 752.5 796.75 178 163.88433837891 733.57125854492 77217.102249146 38177976.05337
53105	11014081 6409 112443 122472 752.5 796.75 178 486.85000610352 486.85000610352 86659.301086426 42190081.262853
vector 53213  IntersectionExampleScenario.node[243].veinsmobility  acceleration  ETV
vector 53214  IntersectionExampleScenario.node[243].veinsmobility  co2emission  ETV
vector 53217  IntersectionExampleScenario.node[244].veinsmobility  posx  ETV
vector 53218  IntersectionExampleScenario.node[244].veinsmobility  posy  ETV
vector 53219  IntersectionExampleScenario.node[244].veinsmobility  speed  ETV
vector 53220  IntersectionExampleScenario.node[244].veinsmobility  acceleration  ETV
vector 53221  IntersectionExampleScenario.node[244].veinsmobility  co2emission  ETV
51505	11021067 273 0 118783 0 780 14 0 35 317 7947
51506	11021340 275 0 118783 0 780 14 0 128 872 76968
52944	11021615 14878 104639 123412 697.75 801 414 184.17810058594 656.99114990234 187175.66624451 87622790.516827
52945	11036493 14903 104639 123412 697.75 801 414 483.14999389648 483.14999389648 200024.09747314 96641641.4733
52946	11051396 10838 104676 123412 698 801 413 0 16 1906.2336013317 27292.675916902
52947	11062234 10890 104713 123412 698.25 801 412 -9.2552280426025 4 39.869199752808 527.18516597791
52948	11073124 11942 104713 123412 698.25 801 412 0.96067903568414 11.90022389248 768.10356685674 3312.6709918626
52951	11085066 14429 104856 123412 699.25 801 408 163.88433837891 486.86560058594 177147.0418396 79473192.908028
52952	11099495 14680 104856 123412 699.25 801 408 483.14999389648 637.2445526123 200269.77339172 98599279.069532
52953	11114175 11201 104893 123412 699.5 801 407 0 16.004699707031 1906.2509491462 27147.475513375
52954	11125376 11134 104930 123412 699.75 801 406 -4.5 2.5 41.227239608765 480.09885988711
52955	11136510 12103 104930 123412 699.75 801 406 0.973 11.90022389248 772.66003037212 3253.1027511879
52958	11148613 14040 105320 123412 702.5 801 395 162.78277587891 597.11212158203 169559.40631104 75625265.060654
52959	11162653 14219 105320 123412 702.5 801 395 483.14999389648 483.14999389648 190844.24758911 92206397.057859
52960	11176872 11873 105357 123412 702.75 801 394 0 15.02499961853 1755.6616925392 21859.659011815
52961	11188745 12029 105394 123412 703 801 393 -3.9482445716858 2.5 35.627584457397 327.91234337313
52962	11200774 11926 105394 123412 703 801 393 0.973 11.200708441096 696.83797083929 2715.405287517
52979	11212700 12706 106767 123412 713 801 353 483.14999389648 483.14999389648 170551.94784546 82402172.560567
52980	11225406 12693 106767 123412 713 801 353 498.39999389648 785.82187652588 188846.4593277 103186629.97553
52981	11238099 8968 106800 123412 713.25 801 352 0 15.64999961853 1147.1681025028 15928.628335452
52982	11247067 8843 106833 123412 713.5 801 351 -7.1126251220703 2.5 -22.60000038147 309.44108706801
52983	11255910 9787 106833 123412 713.5 801 351 0.973 11.648172402475 516.67355598333 1680.1081938771
52986	11265697 12384 107063 123412 715.25 801 344 483.14999389648 483.14999389648 166203.59790039 80301267.311148
52987	11278081 12361 107063 123412 715.25 801 344 504.79888916016 802.70781707764 187604.13328552 104673040.6277
52988	11290442 9645 107096 123412 715.5 801 343 0 15.02499961853 1190.0444737105 16201.497077799
52989	11300087 9467 107129 123412 715.75 801 342 -4.5 2.5 -22.60000038147 275.1054813392
52990	11309554 10068 107129 123412 715.75 801 342 0.973 11.200708441096 511.47807852051 1574.3170811078
52993	11319622 11879 107512 123412 718.75 801 330 483.14999389648 483.14999389648 159439.49798584 77033192.478717
52994	11331501 11847 107512 123412 718.75 801 330 511.19760131836 803.90860748291 182403.46662903 103005245.1064
52995	11343348 9791 107545 123412 719 801 329 0 15.665438652039 1168.6368742967 15119.501111926
52996	11353139 10030 107578 123412 719.25 801 328 -3.7423048019409 2.5 -22.60000038147 212.76979748947
52997	11363169 9752 107578 123412 719.25 801 328 0.973 11.200708441096 500.63372506597 1593.1177085554
53021	11372921 9035 110002 123412 738.5 801 251 483.14999389648 483.14999389648 121270.64846802 58591913.067145
53022	11381956 9010 110002 123412 738.5 801 251 517.59753417969 785.82187652588 141628.70915985 81507936.451886
53023	11390966 7946 110035 123412 738.75 801 250 0 16.27499961853 1071.8692855407 13589.962651955
53024	11398912 8052 110068 123412 739 801 249 -3.7832970619202 2.5 -22.60000038147 206.30123308456
53025	11406964 7551 110068 123412 739 801 249 0.973 12.099024792222 417.61407821969 1688.3796815211
53028	11414515 8741 110233 123412 740.25 801 244 184.17810058594 565.87945556641 100497.68533325 43295897.041699
53029	11423256 8784 110233 123412 740.25 801 244 483.14999389648 483.14999389648 117888.59851074 56957875.65093
53030	11432040 8315 110268 123412 740.5 801 243 0 15.64999961853 1548.5571015244 19348.310223684
53031	11440355 8327 110303 123412 740.75 801 242 -3.8538551330566 2.5 39.715726852417 335.43740444571
53032	11448682 7852 110303 123412 740.75 801 242 0.973 11.648172402475 563.19175781179 2743.1826671714
53035	11456534 8711 110303 123412 740.75 801 242 483.14999389648 483.14999389648 116922.29852295 56491007.817726
53036	11465245 8694 110303 123412 740.75 801 242 523.99508666992 802.70781707764 139507.42526245 82156636.888784
53037	11473939 8108 110340 123412 741 801 241 0 15.64999961853 1113.6467582136 14177.41409687
53038	11482047 8265 110377 123412 741.25 801 240 -4.5 2.5 -22.60000038147 271.1933223038
53039	11490312 7702 110377 123412 741.25 801 240 0.973 11.648172402475 414.6128686586 1580.6484215958
53042	11498014 8348 110673 123412 743.25 801 232 498.39999389648 785.82187652588 128454.77022552 73032763.421718
53043	11506362 8352 110673 123412 743.25 801 232 486.85000610352 486.85000610352 112949.20141602 54989319.398774
53044	11514714 6299 110712 123412 743.5 801 231 0 15.64999961853 1147.0747878551 16108.17564317
53045	11521013 6118 110751 123412 743.75 801 230 -7.03919506073 2.5 -22.60000038147 321.83645047111
53046	11527131 6664 110751 123412 743.75 801 230 0.973 11.648172402475 401.49841764437 1574.5843488582
53049	11533795 8089 110946 123412 745 801 225 504.79760742188 805.05782318115 127746.90248108 74634107.761565
53050	11541884 8098 110946 123412 745 801 225 486.85000610352 486.85000610352 109541.25137329 53330158.899673
53051	11549982 7007 110987 123412 745.25 801 224 0 15.02499961853 1199.4437773908 16353.716070146
53052	11556989 6843 111030 123412 745.5 801 223 -4.5 2.5 -22.60000038147 281.00724929466
53053	11563832 6965 111030 123412 745.5 801 223 0.973 11.200708441096 396.38531837638 1463.480521939
53056	11570797 8064 110987 123412 745.25 801 224 483.14999389648 483.14999389648 108225.59863281 52289197.318887
53057	11578861 8035 110987 123412 745.25 801 224 530.39215087891 796.70860290527 130448.27283478 77498964.985917
53058	11586896 7509 111030 123412 745.5 801 223 0 15.64999961853 1064.9727421831 13481.877316429
53059	11594405 7722 111073 123412 745.75 801 222 -3.5959930419922 2.5 -22.60000038147 201.43920577272
53060	11602127 6989 111073 123412 745.75 801 222 0.973 11.648172402475 374.83602481121 1497.0168337721
53063	11609116 7955 111073 123412 745.75 801 222 184.17810058594 486.83578491211 85601.579559326 34695644.215123
53064	11617071 7991 111073 123412 745.75 801 222 483.14999389648 495.39263916016 107305.92483521 51867762.939215
53065	11625062 6869 111118 123412 746 801 221 -0.33782958984375 15.90478515625 1249.3845975772 13828.369071861
53066	11631931 6586 111163 123412 746.25 801 220 -4.5 2.5 13.39999961853 531.51197400777
53067	11638517 6693 111163 123412 746.25 801 220 0.973 11.410217939503 487.07786065464 2301.8487410685
53077	11645210 7713 111396 123412 747.5 801 215 164.94219970703 470.16500854492 80262.526092529 31682293.381363
53078	11652923 7739 111396 123412 747.5 801 215 483.14999389648 483.14999389648 103877.24868774 50188292.069467
53079	11660662 6620 111445 123412 747.75 801 214 0 15.334454536438 1229.8414519988 13908.3593885
53080	11667282 6517 111494 123412 748 801 213 -4.2179613113403 2.5000019073486 5.3999996185303 407.7742920065
53081	11673799 6407 111494 123412 748 801 213 0.973 11.421845289467 445.81205397887 1950.0810596326
53084	11680206 7635 111494 123412 748 801 213 217.29217529297 483.14999389648 86715.460754395 36404218.754071
53085	11687841 7665 111494 123412 748 801 213 452.28955078125 483.14999389648 102688.56536865 49510915.154008
53086	11695506 7343 111545 123412 748.25 801 212 0 15.64999961853 1184.9360382874 13060.764582779
53087	11702849 7352 111596 123412 748.5 801 211 -3.8128683567047 2.5 28.39999961853 384.22675245537
53088	11710201 6809 111596 123412 748.5 801 211 0.973 11.648172402475 477.09102190555 2368.6369373014
53091	11717010 6858 111596 123412 748.5 801 211 152.38513183594 447.45782470703 75885.644958496 29050276.040002
53092	11723868 7595 111596 123412 748.5 801 211 483.14999389648 483.14999389648 101944.64871216 49254556.403058
53093	11731463 6473 111649 123412 748.75 801 210 0 14.881494522095 1188.2398460507 12993.585333272
53094	11737936 6400 111702 123412 749 801 209 -6.2027368545532 4 13.904844284058 357.04240163565
53095	11744336 6319 111702 123412 749 801 209 0.973 7.9897578145502 410.09027979824 1439.9048382374
53112	11750655 6676 112938 123412 754.75 801 186 511.20068359375 785.82187652588 107678.41188812 63836907.418781
53113	11757331 6695 112938 123412 754.75 801 186 486.85000610352 486.85000610352 90554.101135254 44086264.690397
53114	11764026 6577 112995 123412 755 801 185 0 15.02499961853 1097.39559229 13424.275849994
53115	11770603 6753 113052 123412 755.25 801 184 -3.7739145755768 2.5 -22.60000038147 181.78282482786
53116	11777356 5910 113052 123412 755.25 801 184 0.973 11.200708441096 340.14960279147 1367.9104145823
53119	11783266 6624 113052 123412 755.25 801 184 483.14999389648 483.14999389648 88899.598876953 42951840.6548
53120	11789890 6603 113052 123412 755.25 801 184 538.35678100586 785.82187652588 109299.18097687 66083376.296027
53121	11796493 5647 113111 123412 755.5 801 183 0 16.27499961853 989.26376369596 12164.569489333
53122	11802140 5710 113170 123412 755.75 801 182 -3.5602419376373 2.5 -22.60000038147 216.78222449157
53123	11807850 5190 113170 123412 755.75 801 182 0.973 12.099024792222 329.94923359473 1581.2006839937
53126	11813040 6308 113524 123412 757.25 801 176 518.08374023438 801.41563415527 104628.38180542 63719398.592473
53127	11819348 6336 113524 123412 757.25 801 176 486.85000610352 486.85000610352 85685.601074219 41716035.405967
53128	11825684 6273 113587 123412 757.5 801 175 0 15.382881164551 1132.2311833911 13930.80196095
53129	11831957 6342 113650 123412 757.75 801 174 -4.5 2.5 -21.82840180397 253.42085453182
53130	11838299 5626 113650 123412 757.75 801 174 0.973 11.200708441096 342.27678421787 1407.5881676689
53133	11843925 6336 113524 123412 757.25 801 176 483.14999389648 483.14999389648 85034.398925781 41084369.321982
53134	11850261 6328 113524 123412 757.25 801 176 545.96557617188 803.92188262939 106963.46858978 66285091.275933
53135	11856589 5322 113587 123412 757.5 801 175 0 15.64999961853 1031.5379499793 13228.531940322
53136	11861911 5233 113650 123412 757.75 801 174 -4.5 2.5 -22.60000038147 293.07114467318
53137	11867144 5125 113650 123412 757.75 801 174 0.973 11.648172402475 325.85315954626 1450.2792588564
53140	11872269 5181 115410 123412 765 801 145 184.17810058594 428.06768798828 51151.41394043 18923406.900868
53141	11877450 5218 115410 123412 765 801 145 483.14999389648 483.14999389648 70056.74911499 33847917.907315
53142	11882668 5175 115469 123412 765.25 801 144 0.081009462475777 15.64999961853 982.33646588773 11176.450892312
53143	11887843 5145 115528 123412 765.5 801 143 -1.912899017334 2.5000009536743 2.4758281707764 209.27956806924
53144	11892988 4302 115528 123412 765.5 801 143 0.973 11.648172402475 308.35292615745 1494.9791210411
53147	11897290 4967 115822 123412 766.75 801 138 486.85000610352 486.85000610352 67185.300842285 32709164.125133
53148	11902257 4934 115822 123412 766.75 801 138 184.17810058594 471.60000610352 51888.302947998 20931331.645918
53149	11907191 4244 115881 123412 767 801 137 0 15.02499961853 1146.8754477501 15641.255591193
53150	11911435 3949 115940 123412 767.25 801 136 -7.8182010650635 2.5 -22.60000038147 366.26316101841
53151	11915384 4268 115940 123412 767.25 801 136 0.973 11.200708441096 302.39786940026 1355.8059417604
53154	11919652 4715 116235 123412 768.5 801 131 483.14999389648 483.14999389648 63292.649200439 30579843.074885
53155	11924367 4697 116235 123412 768.5 801 131 551.97250366211 785.82187652588 81693.848091125 51770253.437556
53156	11929064 4710 116296 123412 768.75 801 130 0.0056317066773772 15.64999961853 933.91473563528 11173.142564173
53157	11933774 4621 116356 123412 769 801 129 -1.9463882446289 2.5 -22.57747355476 175.97400187543
53158	11938395 3895 116356 123412 769 801 129 0.973 11.648172402475 275.94397206412 1415.1264611879
53161	11942290 3267 118466 123412 778.5 801 91 536.58926391602 785.82187652588 58916.855079651 38782827.251262
53162	11945557 3275 118466 123412 778.5 801 91 486.85000610352 486.85000610352 44303.35055542 21569086.488312
53163	11948832 3219 118519 123412 778.75 801 90 3.1466226577759 15.64999961853 1000.7303621769 12858.531077853
53164	11952051 3138 118572 123412 779 801 89 -2.0843086242676 2.5 -10.013509750366 172.15651092841
53165	11955189 2795 118572 123412 779 801 89 0.973 11.648172402475 244.98560472914 1383.2569214582
53168	11957984 3168 118624 123412 779.25 801 88 486.85000610352 486.85000610352 42842.800537109 20858017.702983
53169	11961152 3146 118624 123412 779.25 801 88 184.17810058594 443.52059936523 28089.970367432 9603658.578888
53170	11964298 3111 118677 123412 779.5 801 87 4.716534614563 15.02499961853 1043.410402298 13547.636310835
53171	11967409 3096 118730 123412 779.75 801 86 -2.0949859619141 2.5 -3.7338619232178 156.90015117073
53172	11970505 2806 118730 123412 779.75 801 86 0.973 11.200708441096 237.75003835584 1260.5089924794
53175	11973311 2780 119148 123412 781.75 801 78 184.17810058594 406.52178955078 23398.573394775 7417551.2047106
53176	11976091 2807 119148 123412 781.75 801 78 483.14999389648 483.14999389648 37685.699523926 18207845.494969
53177	11978898 2752 119201 123412 782 801 77 5.6500000953674 16.27499961853 900.66702079773 11389.42630018
53178	11981650 2523 119254 123412 782.25 801 76 -3.2894515991211 2.5 13.101026535034 222.640976306
53179	11984173 2411 119254 123412 782.25 801 76 0.973 12.099024792222 268.43672441566 1818.2776735737
53182	11986584 2736 119254 123412 782.25 801 76 483.14999389648 483.14999389648 36719.399536133 17740977.661765
53183	11989320 2734 119254 123412 782.25 801 76 577.95016479492 785.82187652588 51235.089027405 34904745.716038
53184	11992054 2679 119309 123412 782.5 801 75 4.297625541687 15.64999961853 836.45253181458 10442.310447249
53185	11994733 2573 119364 123412 782.75 801 74 -1.4341201782227 2.5 -5.4094982147217 154.47164017104
53186	11997306 2269 119364 123412 782.75 801 74 0.973 11.648172402475 213.73256356726 1316.5965640502
53189	11999575 1880 120519 123412 788 801 53 184.17810058594 350.70391845703 13753.534484863 3713313.2677893
53190	12001455 1906 120519 123412 788 801 53 483.14999389648 483.14999389648 25606.949676514 12371997.579915
53191	12003361 1856 120576 123412 788.25 801 52 5.6500000953674 15.392725944519 685.94275856018 9409.0286995199
53192	12005217 1667 120633 123412 788.5 801 51 -2.5407485961914 2.5 37.705373764038 144.90169927487
53193	12006884 1760 120633 123412 788.5 801 51 0.973 11.463576672134 231.16006749775 1653.306107788
53196	12008644 1691 120861 123412 789.5 801 47 486.85000610352 486.85000610352 22881.950286865 11140077.636821
53197	12010335 1673 120861 123412 789.5 801 47 184.17810058594 338.42028808594 11824.738952637 3086387.1897261
53198	12012008 1639 120920 123412 789.75 801 46 5.6500000953674 16.27499961853 637.25771141052 9265.3273070106
53199	12013647 1493 120979 123412 790 801 45 -2.0003662109375 2.5 38.039632797241 111.05087074198
53200	12015140 1571 120979 123412 790 801 45 0.973 12.099024792222 199.43184175402 1441.5596592899
53203	12016711 1008 121925 123412 794.25 801 28 486.85000610352 486.85000610352 13631.800170898 6636641.9964038
53204	12017719 989 121925 123412 794.25 801 28 184.17810058594 262.82598876953 6058.0093383789 1328020.9288809
53205	12018708 959 121980 123412 794.5 801 27 5.6500000953674 15.64999961853 335.18580055237 4463.3942488833
53206	12019667 780 122035 123412 794.75 801 26 -0.32978057861328 2.5 38.755151748657 100.24778785585
53207	12020447 931 122035 123412 794.75 801 26 0.97223939240464 11.648172402475 151.52814931207 1219.9536074145
53210	12021378 683 122417 123412 796.5 801 19 483.14999389648 483.14999389648 9179.8498840332 4435244.4154413
53211	12022061 683 122417 123412 796.5 801 19 741.88751220703 785.82187652588 14598.956413269 11220964.28663
53212	12022744 637 122472 123412 796.75 801 18 5.6500000953674 15.64999961853 196.61754989624 2329.9061392963
53213	12023381 432 122527 123412 797 801 17 -0.32978057861328 2.5 39.670217514038 100.10874569329
53214	12023813 608 122527 123412 797 801 17 0.97223939240464 11.648172402475 135.22277646825 1189.798854812
53217	12024421 454 122747 123412 798 801 13 184.17810058594 207.45001220703 2516.7592773438 487981.01338524
53218	12024875 466 122747 123412 798 801 13 483.14999389648 483.14999389648 6280.9499206543 3034640.9158282
53219	12025341 427 122804 123412 798.25 801 12 5.6500000953674 12.52499961853 109.04999732971 1046.8511919308
53220	12025768 275 122861 123412 798.5 801 11 2.4999980926514 2.5 27.499998092651 68.74999046326
53221	12026043 392 122861 123412 798.5 801 11 5.2162187258585 9.442030466751 80.452460202964 608.047069496
