version 2
run nodebug-28-20200606-02:15:09-22484
attr configname nodebug
attr datetime 20200606-02:15:09
attr experiment nodebug
attr inifile omnetpp.ini
attr iterationvars ""
attr iterationvars2 $repetition=28
attr measurement ""
attr network "\"org.car2x.veins.modules.application.ExtTraCIScenarioManagerLaunchd.IntersectionExampleScenario\""
attr processid 22484
attr repetition 28
attr replication #28
attr resultdir results
attr runnumber 28
attr seedset 28
param **.coreDebug false
param **.debug false
param *.**.nic.mac1609_4.bitrate 18Mbps
param *.**.nic.mac1609_4.txPower 20mW
param *.**.nic.mac1609_4.useServiceChannel false
param *.**.nic.phy80211p.analogueModels "xmldoc(\"config.xml\")"
param *.**.nic.phy80211p.decider "xmldoc(\"config.xml\")"
param *.**.nic.phy80211p.sensitivity -89dBm
param *.**.nic.phy80211p.thermalNoise -110dBm
param *.**.nic.phy80211p.usePropagationDelay true
param *.**.nic.phy80211p.useThermalNoise true
param *.annotations.draw false
param *.connectionManager.alpha 2.0
param *.connectionManager.carrierFrequency "5.890e9 Hz"
param *.connectionManager.pMax 20mW
param *.connectionManager.sat -89dBm
param *.connectionManager.sendDirect true
param *.manager.autoShutdown true
param *.manager.host "\"localhost\""
param *.manager.launchConfig "xmldoc(\"paramics.launchd.xml\")"
param *.manager.margin 25
param *.manager.moduleDisplayString "\"\""
param *.manager.moduleName "\"node\""
param *.manager.moduleType "\"org.car2x.veins.nodes.Car\""
param *.manager.port 9999
param *.manager.updateInterval 250ms
param *.node[*0].veinsmobility.accidentCount 0
param *.node[*0].veinsmobility.accidentDuration 30s
param *.node[*0].veinsmobility.accidentStart 75s
param *.node[*].appl.LiderSelectZoneRadio 55.0
param *.node[*].appl.ShareDataZoneRadio 110.0
param *.node[*].appl.TiempoSemaforo 30.0
param *.node[*].appl.beaconInterval 1s
param *.node[*].appl.beaconPriority 3
param *.node[*].appl.dataOnSch false
param *.node[*].appl.dataPriority 2
param *.node[*].appl.debug false
param *.node[*].appl.headerLength "256 bit"
param *.node[*].appl.maxOffset 0.005s
param *.node[*].appl.sendBeacons false
param *.node[*].appl.sendData true
param *.node[*].applType "\"Dummy\""
param *.node[*].mobilityType "\"TraCIMobility\""
param *.node[*].mobilityType.debug true
param *.node[*].veinsmobility.x 0
param *.node[*].veinsmobility.y 0
param *.node[*].veinsmobility.z 1.895
param *.node[*].veinsmobilityType "\"org.car2x.veins.modules.mobility.traci.TraCIMobility\""
param *.node[*].veinsmobilityType.debug true
param *.playgroundSizeX 8500m
param *.playgroundSizeY 8500m
param *.playgroundSizeZ 50m
param *.world.use2D false
param *.world.useTorus false

scalar IntersectionExampleScenario.node[0].appl 	VehicleRemoved 	0
scalar IntersectionExampleScenario.node[0].appl 	ArrivedAtDest 	1
scalar IntersectionExampleScenario.node[0].appl 	IntersectionEnterTime 	11.5
scalar IntersectionExampleScenario.node[0].appl 	IntersectionExitTime 	35.299699045805
scalar IntersectionExampleScenario.node[0].appl 	NumberOfCollisions 	0
scalar IntersectionExampleScenario.node[0].nic.phy80211p 	busyTime 	0
scalar IntersectionExampleScenario.node[0].nic.mac1609_4 	ReceivedUnicastPackets 	0
scalar IntersectionExampleScenario.node[0].nic.mac1609_4 	ReceivedBroadcasts 	0
scalar IntersectionExampleScenario.node[0].nic.mac1609_4 	SentPackets 	0
scalar IntersectionExampleScenario.node[0].nic.mac1609_4 	SNIRLostPackets 	0
scalar IntersectionExampleScenario.node[0].nic.mac1609_4 	RXTXLostPackets 	0
scalar IntersectionExampleScenario.node[0].nic.mac1609_4 	TotalLostPackets 	0
scalar IntersectionExampleScenario.node[0].nic.mac1609_4 	DroppedPacketsInMac 	0
scalar IntersectionExampleScenario.node[0].nic.mac1609_4 	TooLittleTime 	0
scalar IntersectionExampleScenario.node[0].nic.mac1609_4 	TimesIntoBackoff 	0
scalar IntersectionExampleScenario.node[0].nic.mac1609_4 	SlotsBackoff 	0
scalar IntersectionExampleScenario.node[0].nic.mac1609_4 	NumInternalContention 	0
scalar IntersectionExampleScenario.node[0].nic.mac1609_4 	totalBusyTime 	0
scalar IntersectionExampleScenario.node[0].veinsmobility 	startTime 	11.5
scalar IntersectionExampleScenario.node[0].veinsmobility 	totalTime 	40.75
scalar IntersectionExampleScenario.node[0].veinsmobility 	stopTime 	52.5
scalar IntersectionExampleScenario.node[0].veinsmobility 	minSpeed 	5.6500000953674
scalar IntersectionExampleScenario.node[0].veinsmobility 	maxSpeed 	15.25
scalar IntersectionExampleScenario.node[0].veinsmobility 	totalDistance 	544.64393426561
scalar IntersectionExampleScenario.node[0].veinsmobility 	totalCO2Emission 	125.28152886857
scalar IntersectionExampleScenario.node[3].appl 	VehicleRemoved 	0
scalar IntersectionExampleScenario.node[3].appl 	ArrivedAtDest 	1
scalar IntersectionExampleScenario.node[3].appl 	IntersectionEnterTime 	22.75
scalar IntersectionExampleScenario.node[3].appl 	IntersectionExitTime 	46.615215606056
scalar IntersectionExampleScenario.node[3].appl 	NumberOfCollisions 	0
scalar IntersectionExampleScenario.node[3].nic.phy80211p 	busyTime 	0
scalar IntersectionExampleScenario.node[3].nic.mac1609_4 	ReceivedUnicastPackets 	0
scalar IntersectionExampleScenario.node[3].nic.mac1609_4 	ReceivedBroadcasts 	0
scalar IntersectionExampleScenario.node[3].nic.mac1609_4 	SentPackets 	0
scalar IntersectionExampleScenario.node[3].nic.mac1609_4 	SNIRLostPackets 	0
scalar IntersectionExampleScenario.node[3].nic.mac1609_4 	RXTXLostPackets 	0
scalar IntersectionExampleScenario.node[3].nic.mac1609_4 	TotalLostPackets 	0
scalar IntersectionExampleScenario.node[3].nic.mac1609_4 	DroppedPacketsInMac 	0
scalar IntersectionExampleScenario.node[3].nic.mac1609_4 	TooLittleTime 	0
scalar IntersectionExampleScenario.node[3].nic.mac1609_4 	TimesIntoBackoff 	0
scalar IntersectionExampleScenario.node[3].nic.mac1609_4 	SlotsBackoff 	0
scalar IntersectionExampleScenario.node[3].nic.mac1609_4 	NumInternalContention 	0
scalar IntersectionExampleScenario.node[3].nic.mac1609_4 	totalBusyTime 	0
scalar IntersectionExampleScenario.node[3].veinsmobility 	startTime 	22.75
scalar IntersectionExampleScenario.node[3].veinsmobility 	totalTime 	40.75
scalar IntersectionExampleScenario.node[3].veinsmobility 	stopTime 	63.75
scalar IntersectionExampleScenario.node[3].veinsmobility 	minSpeed 	5.6500000953674
scalar IntersectionExampleScenario.node[3].veinsmobility 	maxSpeed 	15.25
scalar IntersectionExampleScenario.node[3].veinsmobility 	totalDistance 	544.57392777741
scalar IntersectionExampleScenario.node[3].veinsmobility 	totalCO2Emission 	124.39965242606
scalar IntersectionExampleScenario.node[6].appl 	VehicleRemoved 	0
scalar IntersectionExampleScenario.node[6].appl 	ArrivedAtDest 	1
scalar IntersectionExampleScenario.node[6].appl 	IntersectionEnterTime 	36.25
scalar IntersectionExampleScenario.node[6].appl 	IntersectionExitTime 	64.261376015638
scalar IntersectionExampleScenario.node[6].appl 	NumberOfCollisions 	0
scalar IntersectionExampleScenario.node[6].nic.phy80211p 	busyTime 	0
scalar IntersectionExampleScenario.node[6].nic.mac1609_4 	ReceivedUnicastPackets 	0
scalar IntersectionExampleScenario.node[6].nic.mac1609_4 	ReceivedBroadcasts 	0
scalar IntersectionExampleScenario.node[6].nic.mac1609_4 	SentPackets 	0
scalar IntersectionExampleScenario.node[6].nic.mac1609_4 	SNIRLostPackets 	0
scalar IntersectionExampleScenario.node[6].nic.mac1609_4 	RXTXLostPackets 	0
scalar IntersectionExampleScenario.node[6].nic.mac1609_4 	TotalLostPackets 	0
scalar IntersectionExampleScenario.node[6].nic.mac1609_4 	DroppedPacketsInMac 	0
scalar IntersectionExampleScenario.node[6].nic.mac1609_4 	TooLittleTime 	0
scalar IntersectionExampleScenario.node[6].nic.mac1609_4 	TimesIntoBackoff 	0
scalar IntersectionExampleScenario.node[6].nic.mac1609_4 	SlotsBackoff 	0
scalar IntersectionExampleScenario.node[6].nic.mac1609_4 	NumInternalContention 	0
scalar IntersectionExampleScenario.node[6].nic.mac1609_4 	totalBusyTime 	0
scalar IntersectionExampleScenario.node[6].veinsmobility 	startTime 	36.25
scalar IntersectionExampleScenario.node[6].veinsmobility 	totalTime 	44.75
scalar IntersectionExampleScenario.node[6].veinsmobility 	stopTime 	81.25
scalar IntersectionExampleScenario.node[6].veinsmobility 	minSpeed 	0
scalar IntersectionExampleScenario.node[6].veinsmobility 	maxSpeed 	15.02499961853
scalar IntersectionExampleScenario.node[6].veinsmobility 	totalDistance 	554.82191467285
scalar IntersectionExampleScenario.node[6].veinsmobility 	totalCO2Emission 	132.78106928349
scalar IntersectionExampleScenario.node[8].appl 	VehicleRemoved 	0
scalar IntersectionExampleScenario.node[8].appl 	ArrivedAtDest 	1
scalar IntersectionExampleScenario.node[8].appl 	IntersectionEnterTime 	40.75
scalar IntersectionExampleScenario.node[8].appl 	IntersectionExitTime 	65.268192458811
scalar IntersectionExampleScenario.node[8].appl 	NumberOfCollisions 	0
scalar IntersectionExampleScenario.node[8].nic.phy80211p 	busyTime 	0
scalar IntersectionExampleScenario.node[8].nic.mac1609_4 	ReceivedUnicastPackets 	0
scalar IntersectionExampleScenario.node[8].nic.mac1609_4 	ReceivedBroadcasts 	0
scalar IntersectionExampleScenario.node[8].nic.mac1609_4 	SentPackets 	0
scalar IntersectionExampleScenario.node[8].nic.mac1609_4 	SNIRLostPackets 	0
scalar IntersectionExampleScenario.node[8].nic.mac1609_4 	RXTXLostPackets 	0
scalar IntersectionExampleScenario.node[8].nic.mac1609_4 	TotalLostPackets 	0
scalar IntersectionExampleScenario.node[8].nic.mac1609_4 	DroppedPacketsInMac 	0
scalar IntersectionExampleScenario.node[8].nic.mac1609_4 	TooLittleTime 	0
scalar IntersectionExampleScenario.node[8].nic.mac1609_4 	TimesIntoBackoff 	0
scalar IntersectionExampleScenario.node[8].nic.mac1609_4 	SlotsBackoff 	0
scalar IntersectionExampleScenario.node[8].nic.mac1609_4 	NumInternalContention 	0
scalar IntersectionExampleScenario.node[8].nic.mac1609_4 	totalBusyTime 	0
scalar IntersectionExampleScenario.node[8].veinsmobility 	startTime 	40.75
scalar IntersectionExampleScenario.node[8].veinsmobility 	totalTime 	41.25
scalar IntersectionExampleScenario.node[8].veinsmobility 	stopTime 	82.25
scalar IntersectionExampleScenario.node[8].veinsmobility 	minSpeed 	5.6500000953674
scalar IntersectionExampleScenario.node[8].veinsmobility 	maxSpeed 	15.25
scalar IntersectionExampleScenario.node[8].veinsmobility 	totalDistance 	545.74000274853
scalar IntersectionExampleScenario.node[8].veinsmobility 	totalCO2Emission 	131.13289623738
scalar IntersectionExampleScenario.node[9].appl 	VehicleRemoved 	0
scalar IntersectionExampleScenario.node[9].appl 	ArrivedAtDest 	1
scalar IntersectionExampleScenario.node[9].appl 	IntersectionEnterTime 	42.25
scalar IntersectionExampleScenario.node[9].appl 	IntersectionExitTime 	68.51646277323
scalar IntersectionExampleScenario.node[9].appl 	NumberOfCollisions 	0
scalar IntersectionExampleScenario.node[9].nic.phy80211p 	busyTime 	0
scalar IntersectionExampleScenario.node[9].nic.mac1609_4 	ReceivedUnicastPackets 	0
scalar IntersectionExampleScenario.node[9].nic.mac1609_4 	ReceivedBroadcasts 	0
scalar IntersectionExampleScenario.node[9].nic.mac1609_4 	SentPackets 	0
scalar IntersectionExampleScenario.node[9].nic.mac1609_4 	SNIRLostPackets 	0
scalar IntersectionExampleScenario.node[9].nic.mac1609_4 	RXTXLostPackets 	0
scalar IntersectionExampleScenario.node[9].nic.mac1609_4 	TotalLostPackets 	0
scalar IntersectionExampleScenario.node[9].nic.mac1609_4 	DroppedPacketsInMac 	0
scalar IntersectionExampleScenario.node[9].nic.mac1609_4 	TooLittleTime 	0
scalar IntersectionExampleScenario.node[9].nic.mac1609_4 	TimesIntoBackoff 	0
scalar IntersectionExampleScenario.node[9].nic.mac1609_4 	SlotsBackoff 	0
scalar IntersectionExampleScenario.node[9].nic.mac1609_4 	NumInternalContention 	0
scalar IntersectionExampleScenario.node[9].nic.mac1609_4 	totalBusyTime 	0
scalar IntersectionExampleScenario.node[9].veinsmobility 	startTime 	42.25
scalar IntersectionExampleScenario.node[9].veinsmobility 	totalTime 	42.5
scalar IntersectionExampleScenario.node[9].veinsmobility 	stopTime 	85
scalar IntersectionExampleScenario.node[9].veinsmobility 	minSpeed 	5.6500000953674
scalar IntersectionExampleScenario.node[9].veinsmobility 	maxSpeed 	15.926463127136
scalar IntersectionExampleScenario.node[9].veinsmobility 	totalDistance 	565.2263181236
scalar IntersectionExampleScenario.node[9].veinsmobility 	totalCO2Emission 	143.88729158961
scalar IntersectionExampleScenario.node[11].appl 	VehicleRemoved 	0
scalar IntersectionExampleScenario.node[11].appl 	ArrivedAtDest 	1
scalar IntersectionExampleScenario.node[11].appl 	IntersectionEnterTime 	47.25
scalar IntersectionExampleScenario.node[11].appl 	IntersectionExitTime 	71.335498152184
scalar IntersectionExampleScenario.node[11].appl 	NumberOfCollisions 	0
scalar IntersectionExampleScenario.node[11].nic.phy80211p 	busyTime 	0
scalar IntersectionExampleScenario.node[11].nic.mac1609_4 	ReceivedUnicastPackets 	0
scalar IntersectionExampleScenario.node[11].nic.mac1609_4 	ReceivedBroadcasts 	0
scalar IntersectionExampleScenario.node[11].nic.mac1609_4 	SentPackets 	0
scalar IntersectionExampleScenario.node[11].nic.mac1609_4 	SNIRLostPackets 	0
scalar IntersectionExampleScenario.node[11].nic.mac1609_4 	RXTXLostPackets 	0
scalar IntersectionExampleScenario.node[11].nic.mac1609_4 	TotalLostPackets 	0
scalar IntersectionExampleScenario.node[11].nic.mac1609_4 	DroppedPacketsInMac 	0
scalar IntersectionExampleScenario.node[11].nic.mac1609_4 	TooLittleTime 	0
scalar IntersectionExampleScenario.node[11].nic.mac1609_4 	TimesIntoBackoff 	0
scalar IntersectionExampleScenario.node[11].nic.mac1609_4 	SlotsBackoff 	0
scalar IntersectionExampleScenario.node[11].nic.mac1609_4 	NumInternalContention 	0
scalar IntersectionExampleScenario.node[11].nic.mac1609_4 	totalBusyTime 	0
scalar IntersectionExampleScenario.node[11].veinsmobility 	startTime 	47.25
scalar IntersectionExampleScenario.node[11].veinsmobility 	totalTime 	40
scalar IntersectionExampleScenario.node[11].veinsmobility 	stopTime 	87.5
scalar IntersectionExampleScenario.node[11].veinsmobility 	minSpeed 	5.6500000953674
scalar IntersectionExampleScenario.node[11].veinsmobility 	maxSpeed 	16.293064117432
scalar IntersectionExampleScenario.node[11].veinsmobility 	totalDistance 	552.84589455177
scalar IntersectionExampleScenario.node[11].veinsmobility 	totalCO2Emission 	131.58831102204
scalar IntersectionExampleScenario.node[16].appl 	VehicleRemoved 	0
scalar IntersectionExampleScenario.node[16].appl 	ArrivedAtDest 	1
scalar IntersectionExampleScenario.node[16].appl 	IntersectionEnterTime 	64.25
scalar IntersectionExampleScenario.node[16].appl 	IntersectionExitTime 	86.814993395732
scalar IntersectionExampleScenario.node[16].appl 	NumberOfCollisions 	0
scalar IntersectionExampleScenario.node[16].nic.phy80211p 	busyTime 	0
scalar IntersectionExampleScenario.node[16].nic.mac1609_4 	ReceivedUnicastPackets 	0
scalar IntersectionExampleScenario.node[16].nic.mac1609_4 	ReceivedBroadcasts 	0
scalar IntersectionExampleScenario.node[16].nic.mac1609_4 	SentPackets 	0
scalar IntersectionExampleScenario.node[16].nic.mac1609_4 	SNIRLostPackets 	0
scalar IntersectionExampleScenario.node[16].nic.mac1609_4 	RXTXLostPackets 	0
scalar IntersectionExampleScenario.node[16].nic.mac1609_4 	TotalLostPackets 	0
scalar IntersectionExampleScenario.node[16].nic.mac1609_4 	DroppedPacketsInMac 	0
scalar IntersectionExampleScenario.node[16].nic.mac1609_4 	TooLittleTime 	0
scalar IntersectionExampleScenario.node[16].nic.mac1609_4 	TimesIntoBackoff 	0
scalar IntersectionExampleScenario.node[16].nic.mac1609_4 	SlotsBackoff 	0
scalar IntersectionExampleScenario.node[16].nic.mac1609_4 	NumInternalContention 	0
scalar IntersectionExampleScenario.node[16].nic.mac1609_4 	totalBusyTime 	0
scalar IntersectionExampleScenario.node[16].veinsmobility 	startTime 	64.25
scalar IntersectionExampleScenario.node[16].veinsmobility 	totalTime 	38.25
scalar IntersectionExampleScenario.node[16].veinsmobility 	stopTime 	102.75
scalar IntersectionExampleScenario.node[16].veinsmobility 	minSpeed 	5.6500000953674
scalar IntersectionExampleScenario.node[16].veinsmobility 	maxSpeed 	16.27499961853
scalar IntersectionExampleScenario.node[16].veinsmobility 	totalDistance 	549.73346964116
scalar IntersectionExampleScenario.node[16].veinsmobility 	totalCO2Emission 	126.98915093908
scalar IntersectionExampleScenario.node[1].appl 	VehicleRemoved 	0
scalar IntersectionExampleScenario.node[1].appl 	ArrivedAtDest 	1
scalar IntersectionExampleScenario.node[1].appl 	IntersectionEnterTime 	15.25
scalar IntersectionExampleScenario.node[1].appl 	IntersectionExitTime 	93.606689108681
scalar IntersectionExampleScenario.node[1].appl 	NumberOfCollisions 	0
scalar IntersectionExampleScenario.node[1].nic.phy80211p 	busyTime 	0
scalar IntersectionExampleScenario.node[1].nic.mac1609_4 	ReceivedUnicastPackets 	0
scalar IntersectionExampleScenario.node[1].nic.mac1609_4 	ReceivedBroadcasts 	0
scalar IntersectionExampleScenario.node[1].nic.mac1609_4 	SentPackets 	0
scalar IntersectionExampleScenario.node[1].nic.mac1609_4 	SNIRLostPackets 	0
scalar IntersectionExampleScenario.node[1].nic.mac1609_4 	RXTXLostPackets 	0
scalar IntersectionExampleScenario.node[1].nic.mac1609_4 	TotalLostPackets 	0
scalar IntersectionExampleScenario.node[1].nic.mac1609_4 	DroppedPacketsInMac 	0
scalar IntersectionExampleScenario.node[1].nic.mac1609_4 	TooLittleTime 	0
scalar IntersectionExampleScenario.node[1].nic.mac1609_4 	TimesIntoBackoff 	0
scalar IntersectionExampleScenario.node[1].nic.mac1609_4 	SlotsBackoff 	0
scalar IntersectionExampleScenario.node[1].nic.mac1609_4 	NumInternalContention 	0
scalar IntersectionExampleScenario.node[1].nic.mac1609_4 	totalBusyTime 	0
scalar IntersectionExampleScenario.node[1].veinsmobility 	startTime 	15.25
scalar IntersectionExampleScenario.node[1].veinsmobility 	totalTime 	95.75
scalar IntersectionExampleScenario.node[1].veinsmobility 	stopTime 	111.25
scalar IntersectionExampleScenario.node[1].veinsmobility 	minSpeed 	0
scalar IntersectionExampleScenario.node[1].veinsmobility 	maxSpeed 	15.02499961853
scalar IntersectionExampleScenario.node[1].veinsmobility 	totalDistance 	546.21670438201
scalar IntersectionExampleScenario.node[1].veinsmobility 	totalCO2Emission 	181.34530538394
scalar IntersectionExampleScenario.node[15].appl 	VehicleRemoved 	0
scalar IntersectionExampleScenario.node[15].appl 	ArrivedAtDest 	1
scalar IntersectionExampleScenario.node[15].appl 	IntersectionEnterTime 	57
scalar IntersectionExampleScenario.node[15].appl 	IntersectionExitTime 	96.810891052068
scalar IntersectionExampleScenario.node[15].appl 	NumberOfCollisions 	0
scalar IntersectionExampleScenario.node[15].nic.phy80211p 	busyTime 	0
scalar IntersectionExampleScenario.node[15].nic.mac1609_4 	ReceivedUnicastPackets 	0
scalar IntersectionExampleScenario.node[15].nic.mac1609_4 	ReceivedBroadcasts 	0
scalar IntersectionExampleScenario.node[15].nic.mac1609_4 	SentPackets 	0
scalar IntersectionExampleScenario.node[15].nic.mac1609_4 	SNIRLostPackets 	0
scalar IntersectionExampleScenario.node[15].nic.mac1609_4 	RXTXLostPackets 	0
scalar IntersectionExampleScenario.node[15].nic.mac1609_4 	TotalLostPackets 	0
scalar IntersectionExampleScenario.node[15].nic.mac1609_4 	DroppedPacketsInMac 	0
scalar IntersectionExampleScenario.node[15].nic.mac1609_4 	TooLittleTime 	0
scalar IntersectionExampleScenario.node[15].nic.mac1609_4 	TimesIntoBackoff 	0
scalar IntersectionExampleScenario.node[15].nic.mac1609_4 	SlotsBackoff 	0
scalar IntersectionExampleScenario.node[15].nic.mac1609_4 	NumInternalContention 	0
scalar IntersectionExampleScenario.node[15].nic.mac1609_4 	totalBusyTime 	0
scalar IntersectionExampleScenario.node[15].veinsmobility 	startTime 	57
scalar IntersectionExampleScenario.node[15].veinsmobility 	totalTime 	56.25
scalar IntersectionExampleScenario.node[15].veinsmobility 	stopTime 	113.5
scalar IntersectionExampleScenario.node[15].veinsmobility 	minSpeed 	0
scalar IntersectionExampleScenario.node[15].veinsmobility 	maxSpeed 	15.64999961853
scalar IntersectionExampleScenario.node[15].veinsmobility 	totalDistance 	543.70389860313
scalar IntersectionExampleScenario.node[15].veinsmobility 	totalCO2Emission 	146.57940041424
scalar IntersectionExampleScenario.node[20].appl 	VehicleRemoved 	0
scalar IntersectionExampleScenario.node[20].appl 	ArrivedAtDest 	1
scalar IntersectionExampleScenario.node[20].appl 	IntersectionEnterTime 	73.75
scalar IntersectionExampleScenario.node[20].appl 	IntersectionExitTime 	99.532712421758
scalar IntersectionExampleScenario.node[20].appl 	NumberOfCollisions 	0
scalar IntersectionExampleScenario.node[20].nic.phy80211p 	busyTime 	0
scalar IntersectionExampleScenario.node[20].nic.mac1609_4 	ReceivedUnicastPackets 	0
scalar IntersectionExampleScenario.node[20].nic.mac1609_4 	ReceivedBroadcasts 	0
scalar IntersectionExampleScenario.node[20].nic.mac1609_4 	SentPackets 	0
scalar IntersectionExampleScenario.node[20].nic.mac1609_4 	SNIRLostPackets 	0
scalar IntersectionExampleScenario.node[20].nic.mac1609_4 	RXTXLostPackets 	0
scalar IntersectionExampleScenario.node[20].nic.mac1609_4 	TotalLostPackets 	0
scalar IntersectionExampleScenario.node[20].nic.mac1609_4 	DroppedPacketsInMac 	0
scalar IntersectionExampleScenario.node[20].nic.mac1609_4 	TooLittleTime 	0
scalar IntersectionExampleScenario.node[20].nic.mac1609_4 	TimesIntoBackoff 	0
scalar IntersectionExampleScenario.node[20].nic.mac1609_4 	SlotsBackoff 	0
scalar IntersectionExampleScenario.node[20].nic.mac1609_4 	NumInternalContention 	0
scalar IntersectionExampleScenario.node[20].nic.mac1609_4 	totalBusyTime 	0
scalar IntersectionExampleScenario.node[20].veinsmobility 	startTime 	73.75
scalar IntersectionExampleScenario.node[20].veinsmobility 	totalTime 	42.25
scalar IntersectionExampleScenario.node[20].veinsmobility 	stopTime 	116.25
scalar IntersectionExampleScenario.node[20].veinsmobility 	minSpeed 	5.6500000953674
scalar IntersectionExampleScenario.node[20].veinsmobility 	maxSpeed 	15.713072776794
scalar IntersectionExampleScenario.node[20].veinsmobility 	totalDistance 	545.78622205676
scalar IntersectionExampleScenario.node[20].veinsmobility 	totalCO2Emission 	138.28776723845
scalar IntersectionExampleScenario.node[23].appl 	VehicleRemoved 	0
scalar IntersectionExampleScenario.node[23].appl 	ArrivedAtDest 	1
scalar IntersectionExampleScenario.node[23].appl 	IntersectionEnterTime 	77
scalar IntersectionExampleScenario.node[23].appl 	IntersectionExitTime 	101.30193824408
scalar IntersectionExampleScenario.node[23].appl 	NumberOfCollisions 	0
scalar IntersectionExampleScenario.node[23].nic.phy80211p 	busyTime 	0
scalar IntersectionExampleScenario.node[23].nic.mac1609_4 	ReceivedUnicastPackets 	0
scalar IntersectionExampleScenario.node[23].nic.mac1609_4 	ReceivedBroadcasts 	0
scalar IntersectionExampleScenario.node[23].nic.mac1609_4 	SentPackets 	0
scalar IntersectionExampleScenario.node[23].nic.mac1609_4 	SNIRLostPackets 	0
scalar IntersectionExampleScenario.node[23].nic.mac1609_4 	RXTXLostPackets 	0
scalar IntersectionExampleScenario.node[23].nic.mac1609_4 	TotalLostPackets 	0
scalar IntersectionExampleScenario.node[23].nic.mac1609_4 	DroppedPacketsInMac 	0
scalar IntersectionExampleScenario.node[23].nic.mac1609_4 	TooLittleTime 	0
scalar IntersectionExampleScenario.node[23].nic.mac1609_4 	TimesIntoBackoff 	0
scalar IntersectionExampleScenario.node[23].nic.mac1609_4 	SlotsBackoff 	0
scalar IntersectionExampleScenario.node[23].nic.mac1609_4 	NumInternalContention 	0
scalar IntersectionExampleScenario.node[23].nic.mac1609_4 	totalBusyTime 	0
scalar IntersectionExampleScenario.node[23].veinsmobility 	startTime 	77
scalar IntersectionExampleScenario.node[23].veinsmobility 	totalTime 	40.5
scalar IntersectionExampleScenario.node[23].veinsmobility 	stopTime 	117.75
scalar IntersectionExampleScenario.node[23].veinsmobility 	minSpeed 	5.6500000953674
scalar IntersectionExampleScenario.node[23].veinsmobility 	maxSpeed 	15.5
scalar IntersectionExampleScenario.node[23].veinsmobility 	totalDistance 	563.73773956299
scalar IntersectionExampleScenario.node[23].veinsmobility 	totalCO2Emission 	122.05169934686
scalar IntersectionExampleScenario.node[2].appl 	VehicleRemoved 	0
scalar IntersectionExampleScenario.node[2].appl 	ArrivedAtDest 	1
scalar IntersectionExampleScenario.node[2].appl 	IntersectionEnterTime 	19.25
scalar IntersectionExampleScenario.node[2].appl 	IntersectionExitTime 	124.62134938707
scalar IntersectionExampleScenario.node[2].appl 	NumberOfCollisions 	0
scalar IntersectionExampleScenario.node[2].nic.phy80211p 	busyTime 	0
scalar IntersectionExampleScenario.node[2].nic.mac1609_4 	ReceivedUnicastPackets 	0
scalar IntersectionExampleScenario.node[2].nic.mac1609_4 	ReceivedBroadcasts 	0
scalar IntersectionExampleScenario.node[2].nic.mac1609_4 	SentPackets 	0
scalar IntersectionExampleScenario.node[2].nic.mac1609_4 	SNIRLostPackets 	0
scalar IntersectionExampleScenario.node[2].nic.mac1609_4 	RXTXLostPackets 	0
scalar IntersectionExampleScenario.node[2].nic.mac1609_4 	TotalLostPackets 	0
scalar IntersectionExampleScenario.node[2].nic.mac1609_4 	DroppedPacketsInMac 	0
scalar IntersectionExampleScenario.node[2].nic.mac1609_4 	TooLittleTime 	0
scalar IntersectionExampleScenario.node[2].nic.mac1609_4 	TimesIntoBackoff 	0
scalar IntersectionExampleScenario.node[2].nic.mac1609_4 	SlotsBackoff 	0
scalar IntersectionExampleScenario.node[2].nic.mac1609_4 	NumInternalContention 	0
scalar IntersectionExampleScenario.node[2].nic.mac1609_4 	totalBusyTime 	0
scalar IntersectionExampleScenario.node[2].veinsmobility 	startTime 	19.25
scalar IntersectionExampleScenario.node[2].veinsmobility 	totalTime 	122.25
scalar IntersectionExampleScenario.node[2].veinsmobility 	stopTime 	141.75
scalar IntersectionExampleScenario.node[2].veinsmobility 	minSpeed 	0
scalar IntersectionExampleScenario.node[2].veinsmobility 	maxSpeed 	15.25
scalar IntersectionExampleScenario.node[2].veinsmobility 	totalDistance 	545.00266934783
scalar IntersectionExampleScenario.node[2].veinsmobility 	totalCO2Emission 	210.18519151024
scalar IntersectionExampleScenario.node[4].appl 	VehicleRemoved 	0
scalar IntersectionExampleScenario.node[4].appl 	ArrivedAtDest 	1
scalar IntersectionExampleScenario.node[4].appl 	IntersectionEnterTime 	30.25
scalar IntersectionExampleScenario.node[4].appl 	IntersectionExitTime 	126.3138337167
scalar IntersectionExampleScenario.node[4].appl 	NumberOfCollisions 	0
scalar IntersectionExampleScenario.node[4].nic.phy80211p 	busyTime 	0
scalar IntersectionExampleScenario.node[4].nic.mac1609_4 	ReceivedUnicastPackets 	0
scalar IntersectionExampleScenario.node[4].nic.mac1609_4 	ReceivedBroadcasts 	0
scalar IntersectionExampleScenario.node[4].nic.mac1609_4 	SentPackets 	0
scalar IntersectionExampleScenario.node[4].nic.mac1609_4 	SNIRLostPackets 	0
scalar IntersectionExampleScenario.node[4].nic.mac1609_4 	RXTXLostPackets 	0
scalar IntersectionExampleScenario.node[4].nic.mac1609_4 	TotalLostPackets 	0
scalar IntersectionExampleScenario.node[4].nic.mac1609_4 	DroppedPacketsInMac 	0
scalar IntersectionExampleScenario.node[4].nic.mac1609_4 	TooLittleTime 	0
scalar IntersectionExampleScenario.node[4].nic.mac1609_4 	TimesIntoBackoff 	0
scalar IntersectionExampleScenario.node[4].nic.mac1609_4 	SlotsBackoff 	0
scalar IntersectionExampleScenario.node[4].nic.mac1609_4 	NumInternalContention 	0
scalar IntersectionExampleScenario.node[4].nic.mac1609_4 	totalBusyTime 	0
scalar IntersectionExampleScenario.node[4].veinsmobility 	startTime 	30.25
scalar IntersectionExampleScenario.node[4].veinsmobility 	totalTime 	111.5
scalar IntersectionExampleScenario.node[4].veinsmobility 	stopTime 	142
scalar IntersectionExampleScenario.node[4].veinsmobility 	minSpeed 	0
scalar IntersectionExampleScenario.node[4].veinsmobility 	maxSpeed 	16.625
scalar IntersectionExampleScenario.node[4].veinsmobility 	totalDistance 	548.70843312537
scalar IntersectionExampleScenario.node[4].veinsmobility 	totalCO2Emission 	207.56944032097
scalar IntersectionExampleScenario.node[5].appl 	VehicleRemoved 	0
scalar IntersectionExampleScenario.node[5].appl 	ArrivedAtDest 	1
scalar IntersectionExampleScenario.node[5].appl 	IntersectionEnterTime 	33
scalar IntersectionExampleScenario.node[5].appl 	IntersectionExitTime 	128.82029919609
scalar IntersectionExampleScenario.node[5].appl 	NumberOfCollisions 	0
scalar IntersectionExampleScenario.node[5].nic.phy80211p 	busyTime 	0
scalar IntersectionExampleScenario.node[5].nic.mac1609_4 	ReceivedUnicastPackets 	0
scalar IntersectionExampleScenario.node[5].nic.mac1609_4 	ReceivedBroadcasts 	0
scalar IntersectionExampleScenario.node[5].nic.mac1609_4 	SentPackets 	0
scalar IntersectionExampleScenario.node[5].nic.mac1609_4 	SNIRLostPackets 	0
scalar IntersectionExampleScenario.node[5].nic.mac1609_4 	RXTXLostPackets 	0
scalar IntersectionExampleScenario.node[5].nic.mac1609_4 	TotalLostPackets 	0
scalar IntersectionExampleScenario.node[5].nic.mac1609_4 	DroppedPacketsInMac 	0
scalar IntersectionExampleScenario.node[5].nic.mac1609_4 	TooLittleTime 	0
scalar IntersectionExampleScenario.node[5].nic.mac1609_4 	TimesIntoBackoff 	0
scalar IntersectionExampleScenario.node[5].nic.mac1609_4 	SlotsBackoff 	0
scalar IntersectionExampleScenario.node[5].nic.mac1609_4 	NumInternalContention 	0
scalar IntersectionExampleScenario.node[5].nic.mac1609_4 	totalBusyTime 	0
scalar IntersectionExampleScenario.node[5].veinsmobility 	startTime 	33
scalar IntersectionExampleScenario.node[5].veinsmobility 	totalTime 	111.75
scalar IntersectionExampleScenario.node[5].veinsmobility 	stopTime 	145
scalar IntersectionExampleScenario.node[5].veinsmobility 	minSpeed 	0
scalar IntersectionExampleScenario.node[5].veinsmobility 	maxSpeed 	15.64999961853
scalar IntersectionExampleScenario.node[5].veinsmobility 	totalDistance 	568.22506713867
scalar IntersectionExampleScenario.node[5].veinsmobility 	totalCO2Emission 	203.74756437815
scalar IntersectionExampleScenario.node[7].appl 	VehicleRemoved 	0
scalar IntersectionExampleScenario.node[7].appl 	ArrivedAtDest 	1
scalar IntersectionExampleScenario.node[7].appl 	IntersectionEnterTime 	38.75
scalar IntersectionExampleScenario.node[7].appl 	IntersectionExitTime 	131.11939330448
scalar IntersectionExampleScenario.node[7].appl 	NumberOfCollisions 	0
scalar IntersectionExampleScenario.node[7].nic.phy80211p 	busyTime 	0
scalar IntersectionExampleScenario.node[7].nic.mac1609_4 	ReceivedUnicastPackets 	0
scalar IntersectionExampleScenario.node[7].nic.mac1609_4 	ReceivedBroadcasts 	0
scalar IntersectionExampleScenario.node[7].nic.mac1609_4 	SentPackets 	0
scalar IntersectionExampleScenario.node[7].nic.mac1609_4 	SNIRLostPackets 	0
scalar IntersectionExampleScenario.node[7].nic.mac1609_4 	RXTXLostPackets 	0
scalar IntersectionExampleScenario.node[7].nic.mac1609_4 	TotalLostPackets 	0
scalar IntersectionExampleScenario.node[7].nic.mac1609_4 	DroppedPacketsInMac 	0
scalar IntersectionExampleScenario.node[7].nic.mac1609_4 	TooLittleTime 	0
scalar IntersectionExampleScenario.node[7].nic.mac1609_4 	TimesIntoBackoff 	0
scalar IntersectionExampleScenario.node[7].nic.mac1609_4 	SlotsBackoff 	0
scalar IntersectionExampleScenario.node[7].nic.mac1609_4 	NumInternalContention 	0
scalar IntersectionExampleScenario.node[7].nic.mac1609_4 	totalBusyTime 	0
scalar IntersectionExampleScenario.node[7].veinsmobility 	startTime 	38.75
scalar IntersectionExampleScenario.node[7].veinsmobility 	totalTime 	108.75
scalar IntersectionExampleScenario.node[7].veinsmobility 	stopTime 	147.75
scalar IntersectionExampleScenario.node[7].veinsmobility 	minSpeed 	0
scalar IntersectionExampleScenario.node[7].veinsmobility 	maxSpeed 	15.64999961853
scalar IntersectionExampleScenario.node[7].veinsmobility 	totalDistance 	543.65700598977
scalar IntersectionExampleScenario.node[7].veinsmobility 	totalCO2Emission 	200.16641180158
scalar IntersectionExampleScenario.node[10].appl 	VehicleRemoved 	0
scalar IntersectionExampleScenario.node[10].appl 	ArrivedAtDest 	1
scalar IntersectionExampleScenario.node[10].appl 	IntersectionEnterTime 	44.5
scalar IntersectionExampleScenario.node[10].appl 	IntersectionExitTime 	133.34427579702
scalar IntersectionExampleScenario.node[10].appl 	NumberOfCollisions 	0
scalar IntersectionExampleScenario.node[10].nic.phy80211p 	busyTime 	0
scalar IntersectionExampleScenario.node[10].nic.mac1609_4 	ReceivedUnicastPackets 	0
scalar IntersectionExampleScenario.node[10].nic.mac1609_4 	ReceivedBroadcasts 	0
scalar IntersectionExampleScenario.node[10].nic.mac1609_4 	SentPackets 	0
scalar IntersectionExampleScenario.node[10].nic.mac1609_4 	SNIRLostPackets 	0
scalar IntersectionExampleScenario.node[10].nic.mac1609_4 	RXTXLostPackets 	0
scalar IntersectionExampleScenario.node[10].nic.mac1609_4 	TotalLostPackets 	0
scalar IntersectionExampleScenario.node[10].nic.mac1609_4 	DroppedPacketsInMac 	0
scalar IntersectionExampleScenario.node[10].nic.mac1609_4 	TooLittleTime 	0
scalar IntersectionExampleScenario.node[10].nic.mac1609_4 	TimesIntoBackoff 	0
scalar IntersectionExampleScenario.node[10].nic.mac1609_4 	SlotsBackoff 	0
scalar IntersectionExampleScenario.node[10].nic.mac1609_4 	NumInternalContention 	0
scalar IntersectionExampleScenario.node[10].nic.mac1609_4 	totalBusyTime 	0
scalar IntersectionExampleScenario.node[10].veinsmobility 	startTime 	44.5
scalar IntersectionExampleScenario.node[10].veinsmobility 	totalTime 	105.5
scalar IntersectionExampleScenario.node[10].veinsmobility 	stopTime 	150.25
scalar IntersectionExampleScenario.node[10].veinsmobility 	minSpeed 	0
scalar IntersectionExampleScenario.node[10].veinsmobility 	maxSpeed 	15.872246742249
scalar IntersectionExampleScenario.node[10].veinsmobility 	totalDistance 	545.7203813493
scalar IntersectionExampleScenario.node[10].veinsmobility 	totalCO2Emission 	194.11878567886
scalar IntersectionExampleScenario.node[13].appl 	VehicleRemoved 	0
scalar IntersectionExampleScenario.node[13].appl 	ArrivedAtDest 	1
scalar IntersectionExampleScenario.node[13].appl 	IntersectionEnterTime 	52.75
scalar IntersectionExampleScenario.node[13].appl 	IntersectionExitTime 	135.57932644498
scalar IntersectionExampleScenario.node[13].appl 	NumberOfCollisions 	0
scalar IntersectionExampleScenario.node[13].nic.phy80211p 	busyTime 	0
scalar IntersectionExampleScenario.node[13].nic.mac1609_4 	ReceivedUnicastPackets 	0
scalar IntersectionExampleScenario.node[13].nic.mac1609_4 	ReceivedBroadcasts 	0
scalar IntersectionExampleScenario.node[13].nic.mac1609_4 	SentPackets 	0
scalar IntersectionExampleScenario.node[13].nic.mac1609_4 	SNIRLostPackets 	0
scalar IntersectionExampleScenario.node[13].nic.mac1609_4 	RXTXLostPackets 	0
scalar IntersectionExampleScenario.node[13].nic.mac1609_4 	TotalLostPackets 	0
scalar IntersectionExampleScenario.node[13].nic.mac1609_4 	DroppedPacketsInMac 	0
scalar IntersectionExampleScenario.node[13].nic.mac1609_4 	TooLittleTime 	0
scalar IntersectionExampleScenario.node[13].nic.mac1609_4 	TimesIntoBackoff 	0
scalar IntersectionExampleScenario.node[13].nic.mac1609_4 	SlotsBackoff 	0
scalar IntersectionExampleScenario.node[13].nic.mac1609_4 	NumInternalContention 	0
scalar IntersectionExampleScenario.node[13].nic.mac1609_4 	totalBusyTime 	0
scalar IntersectionExampleScenario.node[13].veinsmobility 	startTime 	52.75
scalar IntersectionExampleScenario.node[13].veinsmobility 	totalTime 	99.25
scalar IntersectionExampleScenario.node[13].veinsmobility 	stopTime 	152.25
scalar IntersectionExampleScenario.node[13].veinsmobility 	minSpeed 	0
scalar IntersectionExampleScenario.node[13].veinsmobility 	maxSpeed 	15.64999961853
scalar IntersectionExampleScenario.node[13].veinsmobility 	totalDistance 	552.1344749906
scalar IntersectionExampleScenario.node[13].veinsmobility 	totalCO2Emission 	194.09165316678
scalar IntersectionExampleScenario.node[14].appl 	VehicleRemoved 	0
scalar IntersectionExampleScenario.node[14].appl 	ArrivedAtDest 	1
scalar IntersectionExampleScenario.node[14].appl 	IntersectionEnterTime 	55
scalar IntersectionExampleScenario.node[14].appl 	IntersectionExitTime 	137.50520614974
scalar IntersectionExampleScenario.node[14].appl 	NumberOfCollisions 	0
scalar IntersectionExampleScenario.node[14].nic.phy80211p 	busyTime 	0
scalar IntersectionExampleScenario.node[14].nic.mac1609_4 	ReceivedUnicastPackets 	0
scalar IntersectionExampleScenario.node[14].nic.mac1609_4 	ReceivedBroadcasts 	0
scalar IntersectionExampleScenario.node[14].nic.mac1609_4 	SentPackets 	0
scalar IntersectionExampleScenario.node[14].nic.mac1609_4 	SNIRLostPackets 	0
scalar IntersectionExampleScenario.node[14].nic.mac1609_4 	RXTXLostPackets 	0
scalar IntersectionExampleScenario.node[14].nic.mac1609_4 	TotalLostPackets 	0
scalar IntersectionExampleScenario.node[14].nic.mac1609_4 	DroppedPacketsInMac 	0
scalar IntersectionExampleScenario.node[14].nic.mac1609_4 	TooLittleTime 	0
scalar IntersectionExampleScenario.node[14].nic.mac1609_4 	TimesIntoBackoff 	0
scalar IntersectionExampleScenario.node[14].nic.mac1609_4 	SlotsBackoff 	0
scalar IntersectionExampleScenario.node[14].nic.mac1609_4 	NumInternalContention 	0
scalar IntersectionExampleScenario.node[14].nic.mac1609_4 	totalBusyTime 	0
scalar IntersectionExampleScenario.node[14].veinsmobility 	startTime 	55
scalar IntersectionExampleScenario.node[14].veinsmobility 	totalTime 	98.5
scalar IntersectionExampleScenario.node[14].veinsmobility 	stopTime 	153.75
scalar IntersectionExampleScenario.node[14].veinsmobility 	minSpeed 	0
scalar IntersectionExampleScenario.node[14].veinsmobility 	maxSpeed 	15.64999961853
scalar IntersectionExampleScenario.node[14].veinsmobility 	totalDistance 	569.41954803467
scalar IntersectionExampleScenario.node[14].veinsmobility 	totalCO2Emission 	195.7878771116
scalar IntersectionExampleScenario.node[17].appl 	VehicleRemoved 	0
scalar IntersectionExampleScenario.node[17].appl 	ArrivedAtDest 	1
scalar IntersectionExampleScenario.node[17].appl 	IntersectionEnterTime 	68.25
scalar IntersectionExampleScenario.node[17].appl 	IntersectionExitTime 	139.50258702206
scalar IntersectionExampleScenario.node[17].appl 	NumberOfCollisions 	0
scalar IntersectionExampleScenario.node[17].nic.phy80211p 	busyTime 	0
scalar IntersectionExampleScenario.node[17].nic.mac1609_4 	ReceivedUnicastPackets 	0
scalar IntersectionExampleScenario.node[17].nic.mac1609_4 	ReceivedBroadcasts 	0
scalar IntersectionExampleScenario.node[17].nic.mac1609_4 	SentPackets 	0
scalar IntersectionExampleScenario.node[17].nic.mac1609_4 	SNIRLostPackets 	0
scalar IntersectionExampleScenario.node[17].nic.mac1609_4 	RXTXLostPackets 	0
scalar IntersectionExampleScenario.node[17].nic.mac1609_4 	TotalLostPackets 	0
scalar IntersectionExampleScenario.node[17].nic.mac1609_4 	DroppedPacketsInMac 	0
scalar IntersectionExampleScenario.node[17].nic.mac1609_4 	TooLittleTime 	0
scalar IntersectionExampleScenario.node[17].nic.mac1609_4 	TimesIntoBackoff 	0
scalar IntersectionExampleScenario.node[17].nic.mac1609_4 	SlotsBackoff 	0
scalar IntersectionExampleScenario.node[17].nic.mac1609_4 	NumInternalContention 	0
scalar IntersectionExampleScenario.node[17].nic.mac1609_4 	totalBusyTime 	0
scalar IntersectionExampleScenario.node[17].veinsmobility 	startTime 	68.25
scalar IntersectionExampleScenario.node[17].veinsmobility 	totalTime 	87
scalar IntersectionExampleScenario.node[17].veinsmobility 	stopTime 	155.5
scalar IntersectionExampleScenario.node[17].veinsmobility 	minSpeed 	0
scalar IntersectionExampleScenario.node[17].veinsmobility 	maxSpeed 	15.66365146637
scalar IntersectionExampleScenario.node[17].veinsmobility 	totalDistance 	553.92301177979
scalar IntersectionExampleScenario.node[17].veinsmobility 	totalCO2Emission 	180.77166763467
scalar IntersectionExampleScenario.node[21].appl 	VehicleRemoved 	0
scalar IntersectionExampleScenario.node[21].appl 	ArrivedAtDest 	1
scalar IntersectionExampleScenario.node[21].appl 	IntersectionEnterTime 	74
scalar IntersectionExampleScenario.node[21].appl 	IntersectionExitTime 	141.59693482038
scalar IntersectionExampleScenario.node[21].appl 	NumberOfCollisions 	0
scalar IntersectionExampleScenario.node[21].nic.phy80211p 	busyTime 	0
scalar IntersectionExampleScenario.node[21].nic.mac1609_4 	ReceivedUnicastPackets 	0
scalar IntersectionExampleScenario.node[21].nic.mac1609_4 	ReceivedBroadcasts 	0
scalar IntersectionExampleScenario.node[21].nic.mac1609_4 	SentPackets 	0
scalar IntersectionExampleScenario.node[21].nic.mac1609_4 	SNIRLostPackets 	0
scalar IntersectionExampleScenario.node[21].nic.mac1609_4 	RXTXLostPackets 	0
scalar IntersectionExampleScenario.node[21].nic.mac1609_4 	TotalLostPackets 	0
scalar IntersectionExampleScenario.node[21].nic.mac1609_4 	DroppedPacketsInMac 	0
scalar IntersectionExampleScenario.node[21].nic.mac1609_4 	TooLittleTime 	0
scalar IntersectionExampleScenario.node[21].nic.mac1609_4 	TimesIntoBackoff 	0
scalar IntersectionExampleScenario.node[21].nic.mac1609_4 	SlotsBackoff 	0
scalar IntersectionExampleScenario.node[21].nic.mac1609_4 	NumInternalContention 	0
scalar IntersectionExampleScenario.node[21].nic.mac1609_4 	totalBusyTime 	0
scalar IntersectionExampleScenario.node[21].veinsmobility 	startTime 	74
scalar IntersectionExampleScenario.node[21].veinsmobility 	totalTime 	83
scalar IntersectionExampleScenario.node[21].veinsmobility 	stopTime 	157.25
scalar IntersectionExampleScenario.node[21].veinsmobility 	minSpeed 	0
scalar IntersectionExampleScenario.node[21].veinsmobility 	maxSpeed 	15.925133705139
scalar IntersectionExampleScenario.node[21].veinsmobility 	totalDistance 	551.700050354
scalar IntersectionExampleScenario.node[21].veinsmobility 	totalCO2Emission 	178.76350025083
scalar IntersectionExampleScenario.node[22].appl 	VehicleRemoved 	0
scalar IntersectionExampleScenario.node[22].appl 	ArrivedAtDest 	1
scalar IntersectionExampleScenario.node[22].appl 	IntersectionEnterTime 	76.5
scalar IntersectionExampleScenario.node[22].appl 	IntersectionExitTime 	143.60251566587
scalar IntersectionExampleScenario.node[22].appl 	NumberOfCollisions 	0
scalar IntersectionExampleScenario.node[22].nic.phy80211p 	busyTime 	0
scalar IntersectionExampleScenario.node[22].nic.mac1609_4 	ReceivedUnicastPackets 	0
scalar IntersectionExampleScenario.node[22].nic.mac1609_4 	ReceivedBroadcasts 	0
scalar IntersectionExampleScenario.node[22].nic.mac1609_4 	SentPackets 	0
scalar IntersectionExampleScenario.node[22].nic.mac1609_4 	SNIRLostPackets 	0
scalar IntersectionExampleScenario.node[22].nic.mac1609_4 	RXTXLostPackets 	0
scalar IntersectionExampleScenario.node[22].nic.mac1609_4 	TotalLostPackets 	0
scalar IntersectionExampleScenario.node[22].nic.mac1609_4 	DroppedPacketsInMac 	0
scalar IntersectionExampleScenario.node[22].nic.mac1609_4 	TooLittleTime 	0
scalar IntersectionExampleScenario.node[22].nic.mac1609_4 	TimesIntoBackoff 	0
scalar IntersectionExampleScenario.node[22].nic.mac1609_4 	SlotsBackoff 	0
scalar IntersectionExampleScenario.node[22].nic.mac1609_4 	NumInternalContention 	0
scalar IntersectionExampleScenario.node[22].nic.mac1609_4 	totalBusyTime 	0
scalar IntersectionExampleScenario.node[22].veinsmobility 	startTime 	76.5
scalar IntersectionExampleScenario.node[22].veinsmobility 	totalTime 	83
scalar IntersectionExampleScenario.node[22].veinsmobility 	stopTime 	159.75
scalar IntersectionExampleScenario.node[22].veinsmobility 	minSpeed 	0
scalar IntersectionExampleScenario.node[22].veinsmobility 	maxSpeed 	16
scalar IntersectionExampleScenario.node[22].veinsmobility 	totalDistance 	566.80466297705
scalar IntersectionExampleScenario.node[22].veinsmobility 	totalCO2Emission 	183.59555270046
scalar IntersectionExampleScenario.node[12].appl 	VehicleRemoved 	0
scalar IntersectionExampleScenario.node[12].appl 	ArrivedAtDest 	1
scalar IntersectionExampleScenario.node[12].appl 	IntersectionEnterTime 	48
scalar IntersectionExampleScenario.node[12].appl 	IntersectionExitTime 	155.33333823361
scalar IntersectionExampleScenario.node[12].appl 	NumberOfCollisions 	0
scalar IntersectionExampleScenario.node[12].nic.phy80211p 	busyTime 	0
scalar IntersectionExampleScenario.node[12].nic.mac1609_4 	ReceivedUnicastPackets 	0
scalar IntersectionExampleScenario.node[12].nic.mac1609_4 	ReceivedBroadcasts 	0
scalar IntersectionExampleScenario.node[12].nic.mac1609_4 	SentPackets 	0
scalar IntersectionExampleScenario.node[12].nic.mac1609_4 	SNIRLostPackets 	0
scalar IntersectionExampleScenario.node[12].nic.mac1609_4 	RXTXLostPackets 	0
scalar IntersectionExampleScenario.node[12].nic.mac1609_4 	TotalLostPackets 	0
scalar IntersectionExampleScenario.node[12].nic.mac1609_4 	DroppedPacketsInMac 	0
scalar IntersectionExampleScenario.node[12].nic.mac1609_4 	TooLittleTime 	0
scalar IntersectionExampleScenario.node[12].nic.mac1609_4 	TimesIntoBackoff 	0
scalar IntersectionExampleScenario.node[12].nic.mac1609_4 	SlotsBackoff 	0
scalar IntersectionExampleScenario.node[12].nic.mac1609_4 	NumInternalContention 	0
scalar IntersectionExampleScenario.node[12].nic.mac1609_4 	totalBusyTime 	0
scalar IntersectionExampleScenario.node[12].veinsmobility 	startTime 	48
scalar IntersectionExampleScenario.node[12].veinsmobility 	totalTime 	122.75
scalar IntersectionExampleScenario.node[12].veinsmobility 	stopTime 	171
scalar IntersectionExampleScenario.node[12].veinsmobility 	minSpeed 	0
scalar IntersectionExampleScenario.node[12].veinsmobility 	maxSpeed 	16.27499961853
scalar IntersectionExampleScenario.node[12].veinsmobility 	totalDistance 	551.43734741211
scalar IntersectionExampleScenario.node[12].veinsmobility 	totalCO2Emission 	217.33464344961
scalar IntersectionExampleScenario.node[18].appl 	VehicleRemoved 	0
scalar IntersectionExampleScenario.node[18].appl 	ArrivedAtDest 	1
scalar IntersectionExampleScenario.node[18].appl 	IntersectionEnterTime 	70.5
scalar IntersectionExampleScenario.node[18].appl 	IntersectionExitTime 	156.31554712495
scalar IntersectionExampleScenario.node[18].appl 	NumberOfCollisions 	0
scalar IntersectionExampleScenario.node[18].nic.phy80211p 	busyTime 	0
scalar IntersectionExampleScenario.node[18].nic.mac1609_4 	ReceivedUnicastPackets 	0
scalar IntersectionExampleScenario.node[18].nic.mac1609_4 	ReceivedBroadcasts 	0
scalar IntersectionExampleScenario.node[18].nic.mac1609_4 	SentPackets 	0
scalar IntersectionExampleScenario.node[18].nic.mac1609_4 	SNIRLostPackets 	0
scalar IntersectionExampleScenario.node[18].nic.mac1609_4 	RXTXLostPackets 	0
scalar IntersectionExampleScenario.node[18].nic.mac1609_4 	TotalLostPackets 	0
scalar IntersectionExampleScenario.node[18].nic.mac1609_4 	DroppedPacketsInMac 	0
scalar IntersectionExampleScenario.node[18].nic.mac1609_4 	TooLittleTime 	0
scalar IntersectionExampleScenario.node[18].nic.mac1609_4 	TimesIntoBackoff 	0
scalar IntersectionExampleScenario.node[18].nic.mac1609_4 	SlotsBackoff 	0
scalar IntersectionExampleScenario.node[18].nic.mac1609_4 	NumInternalContention 	0
scalar IntersectionExampleScenario.node[18].nic.mac1609_4 	totalBusyTime 	0
scalar IntersectionExampleScenario.node[18].veinsmobility 	startTime 	70.5
scalar IntersectionExampleScenario.node[18].veinsmobility 	totalTime 	102.25
scalar IntersectionExampleScenario.node[18].veinsmobility 	stopTime 	173
scalar IntersectionExampleScenario.node[18].veinsmobility 	minSpeed 	0
scalar IntersectionExampleScenario.node[18].veinsmobility 	maxSpeed 	15.64999961853
scalar IntersectionExampleScenario.node[18].veinsmobility 	totalDistance 	551.65221796064
scalar IntersectionExampleScenario.node[18].veinsmobility 	totalCO2Emission 	191.35280005604
scalar IntersectionExampleScenario.node[24].appl 	VehicleRemoved 	0
scalar IntersectionExampleScenario.node[24].appl 	ArrivedAtDest 	1
scalar IntersectionExampleScenario.node[24].appl 	IntersectionEnterTime 	99.25
scalar IntersectionExampleScenario.node[24].appl 	IntersectionExitTime 	158.79795401273
scalar IntersectionExampleScenario.node[24].appl 	NumberOfCollisions 	0
scalar IntersectionExampleScenario.node[24].nic.phy80211p 	busyTime 	0
scalar IntersectionExampleScenario.node[24].nic.mac1609_4 	ReceivedUnicastPackets 	0
scalar IntersectionExampleScenario.node[24].nic.mac1609_4 	ReceivedBroadcasts 	0
scalar IntersectionExampleScenario.node[24].nic.mac1609_4 	SentPackets 	0
scalar IntersectionExampleScenario.node[24].nic.mac1609_4 	SNIRLostPackets 	0
scalar IntersectionExampleScenario.node[24].nic.mac1609_4 	RXTXLostPackets 	0
scalar IntersectionExampleScenario.node[24].nic.mac1609_4 	TotalLostPackets 	0
scalar IntersectionExampleScenario.node[24].nic.mac1609_4 	DroppedPacketsInMac 	0
scalar IntersectionExampleScenario.node[24].nic.mac1609_4 	TooLittleTime 	0
scalar IntersectionExampleScenario.node[24].nic.mac1609_4 	TimesIntoBackoff 	0
scalar IntersectionExampleScenario.node[24].nic.mac1609_4 	SlotsBackoff 	0
scalar IntersectionExampleScenario.node[24].nic.mac1609_4 	NumInternalContention 	0
scalar IntersectionExampleScenario.node[24].nic.mac1609_4 	totalBusyTime 	0
scalar IntersectionExampleScenario.node[24].veinsmobility 	startTime 	99.25
scalar IntersectionExampleScenario.node[24].veinsmobility 	totalTime 	75.5
scalar IntersectionExampleScenario.node[24].veinsmobility 	stopTime 	175
scalar IntersectionExampleScenario.node[24].veinsmobility 	minSpeed 	0
scalar IntersectionExampleScenario.node[24].veinsmobility 	maxSpeed 	15.64999961853
scalar IntersectionExampleScenario.node[24].veinsmobility 	totalDistance 	554.00271606445
scalar IntersectionExampleScenario.node[24].veinsmobility 	totalCO2Emission 	166.13374655746
scalar IntersectionExampleScenario.node[27].appl 	VehicleRemoved 	0
scalar IntersectionExampleScenario.node[27].appl 	ArrivedAtDest 	1
scalar IntersectionExampleScenario.node[27].appl 	IntersectionEnterTime 	118.75
scalar IntersectionExampleScenario.node[27].appl 	IntersectionExitTime 	161.8132989461
scalar IntersectionExampleScenario.node[27].appl 	NumberOfCollisions 	0
scalar IntersectionExampleScenario.node[27].nic.phy80211p 	busyTime 	0
scalar IntersectionExampleScenario.node[27].nic.mac1609_4 	ReceivedUnicastPackets 	0
scalar IntersectionExampleScenario.node[27].nic.mac1609_4 	ReceivedBroadcasts 	0
scalar IntersectionExampleScenario.node[27].nic.mac1609_4 	SentPackets 	0
scalar IntersectionExampleScenario.node[27].nic.mac1609_4 	SNIRLostPackets 	0
scalar IntersectionExampleScenario.node[27].nic.mac1609_4 	RXTXLostPackets 	0
scalar IntersectionExampleScenario.node[27].nic.mac1609_4 	TotalLostPackets 	0
scalar IntersectionExampleScenario.node[27].nic.mac1609_4 	DroppedPacketsInMac 	0
scalar IntersectionExampleScenario.node[27].nic.mac1609_4 	TooLittleTime 	0
scalar IntersectionExampleScenario.node[27].nic.mac1609_4 	TimesIntoBackoff 	0
scalar IntersectionExampleScenario.node[27].nic.mac1609_4 	SlotsBackoff 	0
scalar IntersectionExampleScenario.node[27].nic.mac1609_4 	NumInternalContention 	0
scalar IntersectionExampleScenario.node[27].nic.mac1609_4 	totalBusyTime 	0
scalar IntersectionExampleScenario.node[27].veinsmobility 	startTime 	118.75
scalar IntersectionExampleScenario.node[27].veinsmobility 	totalTime 	60
scalar IntersectionExampleScenario.node[27].veinsmobility 	stopTime 	179
scalar IntersectionExampleScenario.node[27].veinsmobility 	minSpeed 	0
scalar IntersectionExampleScenario.node[27].veinsmobility 	maxSpeed 	15.02499961853
scalar IntersectionExampleScenario.node[27].veinsmobility 	totalDistance 	549.83261121732
scalar IntersectionExampleScenario.node[27].veinsmobility 	totalCO2Emission 	144.65910269745
scalar IntersectionExampleScenario.node[32].appl 	VehicleRemoved 	0
scalar IntersectionExampleScenario.node[32].appl 	ArrivedAtDest 	1
scalar IntersectionExampleScenario.node[32].appl 	IntersectionEnterTime 	126.5
scalar IntersectionExampleScenario.node[32].appl 	IntersectionExitTime 	163.83877056406
scalar IntersectionExampleScenario.node[32].appl 	NumberOfCollisions 	0
scalar IntersectionExampleScenario.node[32].nic.phy80211p 	busyTime 	0
scalar IntersectionExampleScenario.node[32].nic.mac1609_4 	ReceivedUnicastPackets 	0
scalar IntersectionExampleScenario.node[32].nic.mac1609_4 	ReceivedBroadcasts 	0
scalar IntersectionExampleScenario.node[32].nic.mac1609_4 	SentPackets 	0
scalar IntersectionExampleScenario.node[32].nic.mac1609_4 	SNIRLostPackets 	0
scalar IntersectionExampleScenario.node[32].nic.mac1609_4 	RXTXLostPackets 	0
scalar IntersectionExampleScenario.node[32].nic.mac1609_4 	TotalLostPackets 	0
scalar IntersectionExampleScenario.node[32].nic.mac1609_4 	DroppedPacketsInMac 	0
scalar IntersectionExampleScenario.node[32].nic.mac1609_4 	TooLittleTime 	0
scalar IntersectionExampleScenario.node[32].nic.mac1609_4 	TimesIntoBackoff 	0
scalar IntersectionExampleScenario.node[32].nic.mac1609_4 	SlotsBackoff 	0
scalar IntersectionExampleScenario.node[32].nic.mac1609_4 	NumInternalContention 	0
scalar IntersectionExampleScenario.node[32].nic.mac1609_4 	totalBusyTime 	0
scalar IntersectionExampleScenario.node[32].veinsmobility 	startTime 	126.5
scalar IntersectionExampleScenario.node[32].veinsmobility 	totalTime 	53.5
scalar IntersectionExampleScenario.node[32].veinsmobility 	stopTime 	180.25
scalar IntersectionExampleScenario.node[32].veinsmobility 	minSpeed 	0.80386418104172
scalar IntersectionExampleScenario.node[32].veinsmobility 	maxSpeed 	15.5
scalar IntersectionExampleScenario.node[32].veinsmobility 	totalDistance 	554.12391662725
scalar IntersectionExampleScenario.node[32].veinsmobility 	totalCO2Emission 	138.37278862841
scalar IntersectionExampleScenario.node[37].appl 	VehicleRemoved 	0
scalar IntersectionExampleScenario.node[37].appl 	ArrivedAtDest 	1
scalar IntersectionExampleScenario.node[37].appl 	IntersectionEnterTime 	150
scalar IntersectionExampleScenario.node[37].appl 	IntersectionExitTime 	173.3407487197
scalar IntersectionExampleScenario.node[37].appl 	NumberOfCollisions 	0
scalar IntersectionExampleScenario.node[37].nic.phy80211p 	busyTime 	0
scalar IntersectionExampleScenario.node[37].nic.mac1609_4 	ReceivedUnicastPackets 	0
scalar IntersectionExampleScenario.node[37].nic.mac1609_4 	ReceivedBroadcasts 	0
scalar IntersectionExampleScenario.node[37].nic.mac1609_4 	SentPackets 	0
scalar IntersectionExampleScenario.node[37].nic.mac1609_4 	SNIRLostPackets 	0
scalar IntersectionExampleScenario.node[37].nic.mac1609_4 	RXTXLostPackets 	0
scalar IntersectionExampleScenario.node[37].nic.mac1609_4 	TotalLostPackets 	0
scalar IntersectionExampleScenario.node[37].nic.mac1609_4 	DroppedPacketsInMac 	0
scalar IntersectionExampleScenario.node[37].nic.mac1609_4 	TooLittleTime 	0
scalar IntersectionExampleScenario.node[37].nic.mac1609_4 	TimesIntoBackoff 	0
scalar IntersectionExampleScenario.node[37].nic.mac1609_4 	SlotsBackoff 	0
scalar IntersectionExampleScenario.node[37].nic.mac1609_4 	NumInternalContention 	0
scalar IntersectionExampleScenario.node[37].nic.mac1609_4 	totalBusyTime 	0
scalar IntersectionExampleScenario.node[37].veinsmobility 	startTime 	150
scalar IntersectionExampleScenario.node[37].veinsmobility 	totalTime 	40
scalar IntersectionExampleScenario.node[37].veinsmobility 	stopTime 	190.25
scalar IntersectionExampleScenario.node[37].veinsmobility 	minSpeed 	5.6500000953674
scalar IntersectionExampleScenario.node[37].veinsmobility 	maxSpeed 	15.875
scalar IntersectionExampleScenario.node[37].veinsmobility 	totalDistance 	546.82687946552
scalar IntersectionExampleScenario.node[37].veinsmobility 	totalCO2Emission 	127.54478611268
scalar IntersectionExampleScenario.node[19].appl 	VehicleRemoved 	0
scalar IntersectionExampleScenario.node[19].appl 	ArrivedAtDest 	1
scalar IntersectionExampleScenario.node[19].appl 	IntersectionEnterTime 	71.75
scalar IntersectionExampleScenario.node[19].appl 	IntersectionExitTime 	184.85549348206
scalar IntersectionExampleScenario.node[19].appl 	NumberOfCollisions 	0
scalar IntersectionExampleScenario.node[19].nic.phy80211p 	busyTime 	0
scalar IntersectionExampleScenario.node[19].nic.mac1609_4 	ReceivedUnicastPackets 	0
scalar IntersectionExampleScenario.node[19].nic.mac1609_4 	ReceivedBroadcasts 	0
scalar IntersectionExampleScenario.node[19].nic.mac1609_4 	SentPackets 	0
scalar IntersectionExampleScenario.node[19].nic.mac1609_4 	SNIRLostPackets 	0
scalar IntersectionExampleScenario.node[19].nic.mac1609_4 	RXTXLostPackets 	0
scalar IntersectionExampleScenario.node[19].nic.mac1609_4 	TotalLostPackets 	0
scalar IntersectionExampleScenario.node[19].nic.mac1609_4 	DroppedPacketsInMac 	0
scalar IntersectionExampleScenario.node[19].nic.mac1609_4 	TooLittleTime 	0
scalar IntersectionExampleScenario.node[19].nic.mac1609_4 	TimesIntoBackoff 	0
scalar IntersectionExampleScenario.node[19].nic.mac1609_4 	SlotsBackoff 	0
scalar IntersectionExampleScenario.node[19].nic.mac1609_4 	NumInternalContention 	0
scalar IntersectionExampleScenario.node[19].nic.mac1609_4 	totalBusyTime 	0
scalar IntersectionExampleScenario.node[19].veinsmobility 	startTime 	71.75
scalar IntersectionExampleScenario.node[19].veinsmobility 	totalTime 	128.25
scalar IntersectionExampleScenario.node[19].veinsmobility 	stopTime 	200.25
scalar IntersectionExampleScenario.node[19].veinsmobility 	minSpeed 	0
scalar IntersectionExampleScenario.node[19].veinsmobility 	maxSpeed 	16.625
scalar IntersectionExampleScenario.node[19].veinsmobility 	totalDistance 	551.39519625139
scalar IntersectionExampleScenario.node[19].veinsmobility 	totalCO2Emission 	230.28482248229
scalar IntersectionExampleScenario.node[25].appl 	VehicleRemoved 	0
scalar IntersectionExampleScenario.node[25].appl 	ArrivedAtDest 	1
scalar IntersectionExampleScenario.node[25].appl 	IntersectionEnterTime 	104.5
scalar IntersectionExampleScenario.node[25].appl 	IntersectionExitTime 	187.55541897568
scalar IntersectionExampleScenario.node[25].appl 	NumberOfCollisions 	0
scalar IntersectionExampleScenario.node[25].nic.phy80211p 	busyTime 	0
scalar IntersectionExampleScenario.node[25].nic.mac1609_4 	ReceivedUnicastPackets 	0
scalar IntersectionExampleScenario.node[25].nic.mac1609_4 	ReceivedBroadcasts 	0
scalar IntersectionExampleScenario.node[25].nic.mac1609_4 	SentPackets 	0
scalar IntersectionExampleScenario.node[25].nic.mac1609_4 	SNIRLostPackets 	0
scalar IntersectionExampleScenario.node[25].nic.mac1609_4 	RXTXLostPackets 	0
scalar IntersectionExampleScenario.node[25].nic.mac1609_4 	TotalLostPackets 	0
scalar IntersectionExampleScenario.node[25].nic.mac1609_4 	DroppedPacketsInMac 	0
scalar IntersectionExampleScenario.node[25].nic.mac1609_4 	TooLittleTime 	0
scalar IntersectionExampleScenario.node[25].nic.mac1609_4 	TimesIntoBackoff 	0
scalar IntersectionExampleScenario.node[25].nic.mac1609_4 	SlotsBackoff 	0
scalar IntersectionExampleScenario.node[25].nic.mac1609_4 	NumInternalContention 	0
scalar IntersectionExampleScenario.node[25].nic.mac1609_4 	totalBusyTime 	0
scalar IntersectionExampleScenario.node[25].veinsmobility 	startTime 	104.5
scalar IntersectionExampleScenario.node[25].veinsmobility 	totalTime 	99.25
scalar IntersectionExampleScenario.node[25].veinsmobility 	stopTime 	204
scalar IntersectionExampleScenario.node[25].veinsmobility 	minSpeed 	0
scalar IntersectionExampleScenario.node[25].veinsmobility 	maxSpeed 	15.64999961853
scalar IntersectionExampleScenario.node[25].veinsmobility 	totalDistance 	549.51884409811
scalar IntersectionExampleScenario.node[25].veinsmobility 	totalCO2Emission 	188.61037495719
scalar IntersectionExampleScenario.node[30].appl 	VehicleRemoved 	0
scalar IntersectionExampleScenario.node[30].appl 	ArrivedAtDest 	1
scalar IntersectionExampleScenario.node[30].appl 	IntersectionEnterTime 	121.75
scalar IntersectionExampleScenario.node[30].appl 	IntersectionExitTime 	190.076548988
scalar IntersectionExampleScenario.node[30].appl 	NumberOfCollisions 	0
scalar IntersectionExampleScenario.node[30].nic.phy80211p 	busyTime 	0
scalar IntersectionExampleScenario.node[30].nic.mac1609_4 	ReceivedUnicastPackets 	0
scalar IntersectionExampleScenario.node[30].nic.mac1609_4 	ReceivedBroadcasts 	0
scalar IntersectionExampleScenario.node[30].nic.mac1609_4 	SentPackets 	0
scalar IntersectionExampleScenario.node[30].nic.mac1609_4 	SNIRLostPackets 	0
scalar IntersectionExampleScenario.node[30].nic.mac1609_4 	RXTXLostPackets 	0
scalar IntersectionExampleScenario.node[30].nic.mac1609_4 	TotalLostPackets 	0
scalar IntersectionExampleScenario.node[30].nic.mac1609_4 	DroppedPacketsInMac 	0
scalar IntersectionExampleScenario.node[30].nic.mac1609_4 	TooLittleTime 	0
scalar IntersectionExampleScenario.node[30].nic.mac1609_4 	TimesIntoBackoff 	0
scalar IntersectionExampleScenario.node[30].nic.mac1609_4 	SlotsBackoff 	0
scalar IntersectionExampleScenario.node[30].nic.mac1609_4 	NumInternalContention 	0
scalar IntersectionExampleScenario.node[30].nic.mac1609_4 	totalBusyTime 	0
scalar IntersectionExampleScenario.node[30].veinsmobility 	startTime 	121.75
scalar IntersectionExampleScenario.node[30].veinsmobility 	totalTime 	86
scalar IntersectionExampleScenario.node[30].veinsmobility 	stopTime 	208
scalar IntersectionExampleScenario.node[30].veinsmobility 	minSpeed 	0
scalar IntersectionExampleScenario.node[30].veinsmobility 	maxSpeed 	14.625
scalar IntersectionExampleScenario.node[30].veinsmobility 	totalDistance 	545.26631191641
scalar IntersectionExampleScenario.node[30].veinsmobility 	totalCO2Emission 	168.41450506785
scalar IntersectionExampleScenario.node[33].appl 	VehicleRemoved 	0
scalar IntersectionExampleScenario.node[33].appl 	ArrivedAtDest 	1
scalar IntersectionExampleScenario.node[33].appl 	IntersectionEnterTime 	127
scalar IntersectionExampleScenario.node[33].appl 	IntersectionExitTime 	192.25640824065
scalar IntersectionExampleScenario.node[33].appl 	NumberOfCollisions 	0
scalar IntersectionExampleScenario.node[33].nic.phy80211p 	busyTime 	0
scalar IntersectionExampleScenario.node[33].nic.mac1609_4 	ReceivedUnicastPackets 	0
scalar IntersectionExampleScenario.node[33].nic.mac1609_4 	ReceivedBroadcasts 	0
scalar IntersectionExampleScenario.node[33].nic.mac1609_4 	SentPackets 	0
scalar IntersectionExampleScenario.node[33].nic.mac1609_4 	SNIRLostPackets 	0
scalar IntersectionExampleScenario.node[33].nic.mac1609_4 	RXTXLostPackets 	0
scalar IntersectionExampleScenario.node[33].nic.mac1609_4 	TotalLostPackets 	0
scalar IntersectionExampleScenario.node[33].nic.mac1609_4 	DroppedPacketsInMac 	0
scalar IntersectionExampleScenario.node[33].nic.mac1609_4 	TooLittleTime 	0
scalar IntersectionExampleScenario.node[33].nic.mac1609_4 	TimesIntoBackoff 	0
scalar IntersectionExampleScenario.node[33].nic.mac1609_4 	SlotsBackoff 	0
scalar IntersectionExampleScenario.node[33].nic.mac1609_4 	NumInternalContention 	0
scalar IntersectionExampleScenario.node[33].nic.mac1609_4 	totalBusyTime 	0
scalar IntersectionExampleScenario.node[33].veinsmobility 	startTime 	127
scalar IntersectionExampleScenario.node[33].veinsmobility 	totalTime 	81.5
scalar IntersectionExampleScenario.node[33].veinsmobility 	stopTime 	208.75
scalar IntersectionExampleScenario.node[33].veinsmobility 	minSpeed 	0
scalar IntersectionExampleScenario.node[33].veinsmobility 	maxSpeed 	15.5
scalar IntersectionExampleScenario.node[33].veinsmobility 	totalDistance 	553.30575561523
scalar IntersectionExampleScenario.node[33].veinsmobility 	totalCO2Emission 	169.92397337844
scalar IntersectionExampleScenario.node[35].appl 	VehicleRemoved 	0
scalar IntersectionExampleScenario.node[35].appl 	ArrivedAtDest 	1
scalar IntersectionExampleScenario.node[35].appl 	IntersectionEnterTime 	137.25
scalar IntersectionExampleScenario.node[35].appl 	IntersectionExitTime 	194.83156095177
scalar IntersectionExampleScenario.node[35].appl 	NumberOfCollisions 	0
scalar IntersectionExampleScenario.node[35].nic.phy80211p 	busyTime 	0
scalar IntersectionExampleScenario.node[35].nic.mac1609_4 	ReceivedUnicastPackets 	0
scalar IntersectionExampleScenario.node[35].nic.mac1609_4 	ReceivedBroadcasts 	0
scalar IntersectionExampleScenario.node[35].nic.mac1609_4 	SentPackets 	0
scalar IntersectionExampleScenario.node[35].nic.mac1609_4 	SNIRLostPackets 	0
scalar IntersectionExampleScenario.node[35].nic.mac1609_4 	RXTXLostPackets 	0
scalar IntersectionExampleScenario.node[35].nic.mac1609_4 	TotalLostPackets 	0
scalar IntersectionExampleScenario.node[35].nic.mac1609_4 	DroppedPacketsInMac 	0
scalar IntersectionExampleScenario.node[35].nic.mac1609_4 	TooLittleTime 	0
scalar IntersectionExampleScenario.node[35].nic.mac1609_4 	TimesIntoBackoff 	0
scalar IntersectionExampleScenario.node[35].nic.mac1609_4 	SlotsBackoff 	0
scalar IntersectionExampleScenario.node[35].nic.mac1609_4 	NumInternalContention 	0
scalar IntersectionExampleScenario.node[35].nic.mac1609_4 	totalBusyTime 	0
scalar IntersectionExampleScenario.node[35].veinsmobility 	startTime 	137.25
scalar IntersectionExampleScenario.node[35].veinsmobility 	totalTime 	74.25
scalar IntersectionExampleScenario.node[35].veinsmobility 	stopTime 	211.75
scalar IntersectionExampleScenario.node[35].veinsmobility 	minSpeed 	0
scalar IntersectionExampleScenario.node[35].veinsmobility 	maxSpeed 	15.64999961853
scalar IntersectionExampleScenario.node[35].veinsmobility 	totalDistance 	545.35073973019
scalar IntersectionExampleScenario.node[35].veinsmobility 	totalCO2Emission 	166.12401102947
scalar IntersectionExampleScenario.node[38].appl 	VehicleRemoved 	0
scalar IntersectionExampleScenario.node[38].appl 	ArrivedAtDest 	1
scalar IntersectionExampleScenario.node[38].appl 	IntersectionEnterTime 	150.25
scalar IntersectionExampleScenario.node[38].appl 	IntersectionExitTime 	196.87239504253
scalar IntersectionExampleScenario.node[38].appl 	NumberOfCollisions 	0
scalar IntersectionExampleScenario.node[38].nic.phy80211p 	busyTime 	0
scalar IntersectionExampleScenario.node[38].nic.mac1609_4 	ReceivedUnicastPackets 	0
scalar IntersectionExampleScenario.node[38].nic.mac1609_4 	ReceivedBroadcasts 	0
scalar IntersectionExampleScenario.node[38].nic.mac1609_4 	SentPackets 	0
scalar IntersectionExampleScenario.node[38].nic.mac1609_4 	SNIRLostPackets 	0
scalar IntersectionExampleScenario.node[38].nic.mac1609_4 	RXTXLostPackets 	0
scalar IntersectionExampleScenario.node[38].nic.mac1609_4 	TotalLostPackets 	0
scalar IntersectionExampleScenario.node[38].nic.mac1609_4 	DroppedPacketsInMac 	0
scalar IntersectionExampleScenario.node[38].nic.mac1609_4 	TooLittleTime 	0
scalar IntersectionExampleScenario.node[38].nic.mac1609_4 	TimesIntoBackoff 	0
scalar IntersectionExampleScenario.node[38].nic.mac1609_4 	SlotsBackoff 	0
scalar IntersectionExampleScenario.node[38].nic.mac1609_4 	NumInternalContention 	0
scalar IntersectionExampleScenario.node[38].nic.mac1609_4 	totalBusyTime 	0
scalar IntersectionExampleScenario.node[38].veinsmobility 	startTime 	150.25
scalar IntersectionExampleScenario.node[38].veinsmobility 	totalTime 	63
scalar IntersectionExampleScenario.node[38].veinsmobility 	stopTime 	213.5
scalar IntersectionExampleScenario.node[38].veinsmobility 	minSpeed 	0
scalar IntersectionExampleScenario.node[38].veinsmobility 	maxSpeed 	15.375
scalar IntersectionExampleScenario.node[38].veinsmobility 	totalDistance 	549.60925550601
scalar IntersectionExampleScenario.node[38].veinsmobility 	totalCO2Emission 	154.36892512371
scalar IntersectionExampleScenario.node[39].appl 	VehicleRemoved 	0
scalar IntersectionExampleScenario.node[39].appl 	ArrivedAtDest 	1
scalar IntersectionExampleScenario.node[39].appl 	IntersectionEnterTime 	159.25
scalar IntersectionExampleScenario.node[39].appl 	IntersectionExitTime 	198.76463083472
scalar IntersectionExampleScenario.node[39].appl 	NumberOfCollisions 	0
scalar IntersectionExampleScenario.node[39].nic.phy80211p 	busyTime 	0
scalar IntersectionExampleScenario.node[39].nic.mac1609_4 	ReceivedUnicastPackets 	0
scalar IntersectionExampleScenario.node[39].nic.mac1609_4 	ReceivedBroadcasts 	0
scalar IntersectionExampleScenario.node[39].nic.mac1609_4 	SentPackets 	0
scalar IntersectionExampleScenario.node[39].nic.mac1609_4 	SNIRLostPackets 	0
scalar IntersectionExampleScenario.node[39].nic.mac1609_4 	RXTXLostPackets 	0
scalar IntersectionExampleScenario.node[39].nic.mac1609_4 	TotalLostPackets 	0
scalar IntersectionExampleScenario.node[39].nic.mac1609_4 	DroppedPacketsInMac 	0
scalar IntersectionExampleScenario.node[39].nic.mac1609_4 	TooLittleTime 	0
scalar IntersectionExampleScenario.node[39].nic.mac1609_4 	TimesIntoBackoff 	0
scalar IntersectionExampleScenario.node[39].nic.mac1609_4 	SlotsBackoff 	0
scalar IntersectionExampleScenario.node[39].nic.mac1609_4 	NumInternalContention 	0
scalar IntersectionExampleScenario.node[39].nic.mac1609_4 	totalBusyTime 	0
scalar IntersectionExampleScenario.node[39].veinsmobility 	startTime 	159.25
scalar IntersectionExampleScenario.node[39].veinsmobility 	totalTime 	55.25
scalar IntersectionExampleScenario.node[39].veinsmobility 	stopTime 	214.75
scalar IntersectionExampleScenario.node[39].veinsmobility 	minSpeed 	0
scalar IntersectionExampleScenario.node[39].veinsmobility 	maxSpeed 	16.27499961853
scalar IntersectionExampleScenario.node[39].veinsmobility 	totalDistance 	550.08641747569
scalar IntersectionExampleScenario.node[39].veinsmobility 	totalCO2Emission 	146.98479725392
scalar IntersectionExampleScenario.node[41].appl 	VehicleRemoved 	0
scalar IntersectionExampleScenario.node[41].appl 	ArrivedAtDest 	1
scalar IntersectionExampleScenario.node[41].appl 	IntersectionEnterTime 	162
scalar IntersectionExampleScenario.node[41].appl 	IntersectionExitTime 	200.77957208786
scalar IntersectionExampleScenario.node[41].appl 	NumberOfCollisions 	0
scalar IntersectionExampleScenario.node[41].nic.phy80211p 	busyTime 	0
scalar IntersectionExampleScenario.node[41].nic.mac1609_4 	ReceivedUnicastPackets 	0
scalar IntersectionExampleScenario.node[41].nic.mac1609_4 	ReceivedBroadcasts 	0
scalar IntersectionExampleScenario.node[41].nic.mac1609_4 	SentPackets 	0
scalar IntersectionExampleScenario.node[41].nic.mac1609_4 	SNIRLostPackets 	0
scalar IntersectionExampleScenario.node[41].nic.mac1609_4 	RXTXLostPackets 	0
scalar IntersectionExampleScenario.node[41].nic.mac1609_4 	TotalLostPackets 	0
scalar IntersectionExampleScenario.node[41].nic.mac1609_4 	DroppedPacketsInMac 	0
scalar IntersectionExampleScenario.node[41].nic.mac1609_4 	TooLittleTime 	0
scalar IntersectionExampleScenario.node[41].nic.mac1609_4 	TimesIntoBackoff 	0
scalar IntersectionExampleScenario.node[41].nic.mac1609_4 	SlotsBackoff 	0
scalar IntersectionExampleScenario.node[41].nic.mac1609_4 	NumInternalContention 	0
scalar IntersectionExampleScenario.node[41].nic.mac1609_4 	totalBusyTime 	0
scalar IntersectionExampleScenario.node[41].veinsmobility 	startTime 	162
scalar IntersectionExampleScenario.node[41].veinsmobility 	totalTime 	54.75
scalar IntersectionExampleScenario.node[41].veinsmobility 	stopTime 	217
scalar IntersectionExampleScenario.node[41].veinsmobility 	minSpeed 	0
scalar IntersectionExampleScenario.node[41].veinsmobility 	maxSpeed 	15.64999961853
scalar IntersectionExampleScenario.node[41].veinsmobility 	totalDistance 	567.08193969727
scalar IntersectionExampleScenario.node[41].veinsmobility 	totalCO2Emission 	151.64375551404
scalar IntersectionExampleScenario.node[44].appl 	VehicleRemoved 	0
scalar IntersectionExampleScenario.node[44].appl 	ArrivedAtDest 	1
scalar IntersectionExampleScenario.node[44].appl 	IntersectionEnterTime 	165.25
scalar IntersectionExampleScenario.node[44].appl 	IntersectionExitTime 	202.82645674012
scalar IntersectionExampleScenario.node[44].appl 	NumberOfCollisions 	0
scalar IntersectionExampleScenario.node[44].nic.phy80211p 	busyTime 	0
scalar IntersectionExampleScenario.node[44].nic.mac1609_4 	ReceivedUnicastPackets 	0
scalar IntersectionExampleScenario.node[44].nic.mac1609_4 	ReceivedBroadcasts 	0
scalar IntersectionExampleScenario.node[44].nic.mac1609_4 	SentPackets 	0
scalar IntersectionExampleScenario.node[44].nic.mac1609_4 	SNIRLostPackets 	0
scalar IntersectionExampleScenario.node[44].nic.mac1609_4 	RXTXLostPackets 	0
scalar IntersectionExampleScenario.node[44].nic.mac1609_4 	TotalLostPackets 	0
scalar IntersectionExampleScenario.node[44].nic.mac1609_4 	DroppedPacketsInMac 	0
scalar IntersectionExampleScenario.node[44].nic.mac1609_4 	TooLittleTime 	0
scalar IntersectionExampleScenario.node[44].nic.mac1609_4 	TimesIntoBackoff 	0
scalar IntersectionExampleScenario.node[44].nic.mac1609_4 	SlotsBackoff 	0
scalar IntersectionExampleScenario.node[44].nic.mac1609_4 	NumInternalContention 	0
scalar IntersectionExampleScenario.node[44].nic.mac1609_4 	totalBusyTime 	0
scalar IntersectionExampleScenario.node[44].veinsmobility 	startTime 	165.25
scalar IntersectionExampleScenario.node[44].veinsmobility 	totalTime 	53.5
scalar IntersectionExampleScenario.node[44].veinsmobility 	stopTime 	219
scalar IntersectionExampleScenario.node[44].veinsmobility 	minSpeed 	0
scalar IntersectionExampleScenario.node[44].veinsmobility 	maxSpeed 	15.64999961853
scalar IntersectionExampleScenario.node[44].veinsmobility 	totalDistance 	572.1750793457
scalar IntersectionExampleScenario.node[44].veinsmobility 	totalCO2Emission 	149.25846930187
scalar IntersectionExampleScenario.node[47].appl 	VehicleRemoved 	0
scalar IntersectionExampleScenario.node[47].appl 	ArrivedAtDest 	1
scalar IntersectionExampleScenario.node[47].appl 	IntersectionEnterTime 	168.75
scalar IntersectionExampleScenario.node[47].appl 	IntersectionExitTime 	205.31026498793
scalar IntersectionExampleScenario.node[47].appl 	NumberOfCollisions 	0
scalar IntersectionExampleScenario.node[47].nic.phy80211p 	busyTime 	0
scalar IntersectionExampleScenario.node[47].nic.mac1609_4 	ReceivedUnicastPackets 	0
scalar IntersectionExampleScenario.node[47].nic.mac1609_4 	ReceivedBroadcasts 	0
scalar IntersectionExampleScenario.node[47].nic.mac1609_4 	SentPackets 	0
scalar IntersectionExampleScenario.node[47].nic.mac1609_4 	SNIRLostPackets 	0
scalar IntersectionExampleScenario.node[47].nic.mac1609_4 	RXTXLostPackets 	0
scalar IntersectionExampleScenario.node[47].nic.mac1609_4 	TotalLostPackets 	0
scalar IntersectionExampleScenario.node[47].nic.mac1609_4 	DroppedPacketsInMac 	0
scalar IntersectionExampleScenario.node[47].nic.mac1609_4 	TooLittleTime 	0
scalar IntersectionExampleScenario.node[47].nic.mac1609_4 	TimesIntoBackoff 	0
scalar IntersectionExampleScenario.node[47].nic.mac1609_4 	SlotsBackoff 	0
scalar IntersectionExampleScenario.node[47].nic.mac1609_4 	NumInternalContention 	0
scalar IntersectionExampleScenario.node[47].nic.mac1609_4 	totalBusyTime 	0
scalar IntersectionExampleScenario.node[47].veinsmobility 	startTime 	168.75
scalar IntersectionExampleScenario.node[47].veinsmobility 	totalTime 	53.5
scalar IntersectionExampleScenario.node[47].veinsmobility 	stopTime 	222.5
scalar IntersectionExampleScenario.node[47].veinsmobility 	minSpeed 	2.4836165904999
scalar IntersectionExampleScenario.node[47].veinsmobility 	maxSpeed 	15.383012771606
scalar IntersectionExampleScenario.node[47].veinsmobility 	totalDistance 	565.32552748359
scalar IntersectionExampleScenario.node[47].veinsmobility 	totalCO2Emission 	152.79906206806
scalar IntersectionExampleScenario.node[49].appl 	VehicleRemoved 	0
scalar IntersectionExampleScenario.node[49].appl 	ArrivedAtDest 	1
scalar IntersectionExampleScenario.node[49].appl 	IntersectionEnterTime 	176.5
scalar IntersectionExampleScenario.node[49].appl 	IntersectionExitTime 	207.54802749466
scalar IntersectionExampleScenario.node[49].appl 	NumberOfCollisions 	0
scalar IntersectionExampleScenario.node[49].nic.phy80211p 	busyTime 	0
scalar IntersectionExampleScenario.node[49].nic.mac1609_4 	ReceivedUnicastPackets 	0
scalar IntersectionExampleScenario.node[49].nic.mac1609_4 	ReceivedBroadcasts 	0
scalar IntersectionExampleScenario.node[49].nic.mac1609_4 	SentPackets 	0
scalar IntersectionExampleScenario.node[49].nic.mac1609_4 	SNIRLostPackets 	0
scalar IntersectionExampleScenario.node[49].nic.mac1609_4 	RXTXLostPackets 	0
scalar IntersectionExampleScenario.node[49].nic.mac1609_4 	TotalLostPackets 	0
scalar IntersectionExampleScenario.node[49].nic.mac1609_4 	DroppedPacketsInMac 	0
scalar IntersectionExampleScenario.node[49].nic.mac1609_4 	TooLittleTime 	0
scalar IntersectionExampleScenario.node[49].nic.mac1609_4 	TimesIntoBackoff 	0
scalar IntersectionExampleScenario.node[49].nic.mac1609_4 	SlotsBackoff 	0
scalar IntersectionExampleScenario.node[49].nic.mac1609_4 	NumInternalContention 	0
scalar IntersectionExampleScenario.node[49].nic.mac1609_4 	totalBusyTime 	0
scalar IntersectionExampleScenario.node[49].veinsmobility 	startTime 	176.5
scalar IntersectionExampleScenario.node[49].veinsmobility 	totalTime 	48
scalar IntersectionExampleScenario.node[49].veinsmobility 	stopTime 	224.75
scalar IntersectionExampleScenario.node[49].veinsmobility 	minSpeed 	5.6500000953674
scalar IntersectionExampleScenario.node[49].veinsmobility 	maxSpeed 	15.292566299438
scalar IntersectionExampleScenario.node[49].veinsmobility 	totalDistance 	544.50424054253
scalar IntersectionExampleScenario.node[49].veinsmobility 	totalCO2Emission 	136.97657304995
scalar IntersectionExampleScenario.node[52].appl 	VehicleRemoved 	0
scalar IntersectionExampleScenario.node[52].appl 	ArrivedAtDest 	1
scalar IntersectionExampleScenario.node[52].appl 	IntersectionEnterTime 	181.5
scalar IntersectionExampleScenario.node[52].appl 	IntersectionExitTime 	209.80066444472
scalar IntersectionExampleScenario.node[52].appl 	NumberOfCollisions 	0
scalar IntersectionExampleScenario.node[52].nic.phy80211p 	busyTime 	0
scalar IntersectionExampleScenario.node[52].nic.mac1609_4 	ReceivedUnicastPackets 	0
scalar IntersectionExampleScenario.node[52].nic.mac1609_4 	ReceivedBroadcasts 	0
scalar IntersectionExampleScenario.node[52].nic.mac1609_4 	SentPackets 	0
scalar IntersectionExampleScenario.node[52].nic.mac1609_4 	SNIRLostPackets 	0
scalar IntersectionExampleScenario.node[52].nic.mac1609_4 	RXTXLostPackets 	0
scalar IntersectionExampleScenario.node[52].nic.mac1609_4 	TotalLostPackets 	0
scalar IntersectionExampleScenario.node[52].nic.mac1609_4 	DroppedPacketsInMac 	0
scalar IntersectionExampleScenario.node[52].nic.mac1609_4 	TooLittleTime 	0
scalar IntersectionExampleScenario.node[52].nic.mac1609_4 	TimesIntoBackoff 	0
scalar IntersectionExampleScenario.node[52].nic.mac1609_4 	SlotsBackoff 	0
scalar IntersectionExampleScenario.node[52].nic.mac1609_4 	NumInternalContention 	0
scalar IntersectionExampleScenario.node[52].nic.mac1609_4 	totalBusyTime 	0
scalar IntersectionExampleScenario.node[52].veinsmobility 	startTime 	181.5
scalar IntersectionExampleScenario.node[52].veinsmobility 	totalTime 	44.75
scalar IntersectionExampleScenario.node[52].veinsmobility 	stopTime 	226.5
scalar IntersectionExampleScenario.node[52].veinsmobility 	minSpeed 	5.6500000953674
scalar IntersectionExampleScenario.node[52].veinsmobility 	maxSpeed 	15.375
scalar IntersectionExampleScenario.node[52].veinsmobility 	totalDistance 	549.51571656865
scalar IntersectionExampleScenario.node[52].veinsmobility 	totalCO2Emission 	130.22310781495
scalar IntersectionExampleScenario.node[53].appl 	VehicleRemoved 	0
scalar IntersectionExampleScenario.node[53].appl 	ArrivedAtDest 	1
scalar IntersectionExampleScenario.node[53].appl 	IntersectionEnterTime 	183
scalar IntersectionExampleScenario.node[53].appl 	IntersectionExitTime 	211.3482930926
scalar IntersectionExampleScenario.node[53].appl 	NumberOfCollisions 	0
scalar IntersectionExampleScenario.node[53].nic.phy80211p 	busyTime 	0
scalar IntersectionExampleScenario.node[53].nic.mac1609_4 	ReceivedUnicastPackets 	0
scalar IntersectionExampleScenario.node[53].nic.mac1609_4 	ReceivedBroadcasts 	0
scalar IntersectionExampleScenario.node[53].nic.mac1609_4 	SentPackets 	0
scalar IntersectionExampleScenario.node[53].nic.mac1609_4 	SNIRLostPackets 	0
scalar IntersectionExampleScenario.node[53].nic.mac1609_4 	RXTXLostPackets 	0
scalar IntersectionExampleScenario.node[53].nic.mac1609_4 	TotalLostPackets 	0
scalar IntersectionExampleScenario.node[53].nic.mac1609_4 	DroppedPacketsInMac 	0
scalar IntersectionExampleScenario.node[53].nic.mac1609_4 	TooLittleTime 	0
scalar IntersectionExampleScenario.node[53].nic.mac1609_4 	TimesIntoBackoff 	0
scalar IntersectionExampleScenario.node[53].nic.mac1609_4 	SlotsBackoff 	0
[...]
scalar IntersectionExampleScenario.node[528].veinsmobility 	totalDistance 	217.70761871338
scalar IntersectionExampleScenario.node[528].veinsmobility 	totalCO2Emission 	71.261745151058
scalar IntersectionExampleScenario.node[529].appl 	VehicleRemoved 	0
scalar IntersectionExampleScenario.node[529].appl 	ArrivedAtDest 	0
scalar IntersectionExampleScenario.node[529].appl 	IntersectionEnterTime 	1763
scalar IntersectionExampleScenario.node[529].appl 	IntersectionExitTime 	-1
scalar IntersectionExampleScenario.node[529].appl 	NumberOfCollisions 	0
scalar IntersectionExampleScenario.node[529].nic.phy80211p 	busyTime 	0
scalar IntersectionExampleScenario.node[529].nic.mac1609_4 	ReceivedUnicastPackets 	0
scalar IntersectionExampleScenario.node[529].nic.mac1609_4 	ReceivedBroadcasts 	0
scalar IntersectionExampleScenario.node[529].nic.mac1609_4 	SentPackets 	0
scalar IntersectionExampleScenario.node[529].nic.mac1609_4 	SNIRLostPackets 	0
scalar IntersectionExampleScenario.node[529].nic.mac1609_4 	RXTXLostPackets 	0
scalar IntersectionExampleScenario.node[529].nic.mac1609_4 	TotalLostPackets 	0
scalar IntersectionExampleScenario.node[529].nic.mac1609_4 	DroppedPacketsInMac 	0
scalar IntersectionExampleScenario.node[529].nic.mac1609_4 	TooLittleTime 	0
scalar IntersectionExampleScenario.node[529].nic.mac1609_4 	TimesIntoBackoff 	0
scalar IntersectionExampleScenario.node[529].nic.mac1609_4 	SlotsBackoff 	0
scalar IntersectionExampleScenario.node[529].nic.mac1609_4 	NumInternalContention 	0
scalar IntersectionExampleScenario.node[529].nic.mac1609_4 	totalBusyTime 	0
scalar IntersectionExampleScenario.node[529].veinsmobility 	startTime 	1763
scalar IntersectionExampleScenario.node[529].veinsmobility 	totalTime 	37
scalar IntersectionExampleScenario.node[529].veinsmobility 	stopTime 	1800
scalar IntersectionExampleScenario.node[529].veinsmobility 	minSpeed 	0
scalar IntersectionExampleScenario.node[529].veinsmobility 	maxSpeed 	15.536112785339
scalar IntersectionExampleScenario.node[529].veinsmobility 	totalDistance 	273.69390869141
scalar IntersectionExampleScenario.node[529].veinsmobility 	totalCO2Emission 	76.91900295589
scalar IntersectionExampleScenario.node[530].appl 	VehicleRemoved 	0
scalar IntersectionExampleScenario.node[530].appl 	ArrivedAtDest 	0
scalar IntersectionExampleScenario.node[530].appl 	IntersectionEnterTime 	1766
scalar IntersectionExampleScenario.node[530].appl 	IntersectionExitTime 	-1
scalar IntersectionExampleScenario.node[530].appl 	NumberOfCollisions 	0
scalar IntersectionExampleScenario.node[530].nic.phy80211p 	busyTime 	0
scalar IntersectionExampleScenario.node[530].nic.mac1609_4 	ReceivedUnicastPackets 	0
scalar IntersectionExampleScenario.node[530].nic.mac1609_4 	ReceivedBroadcasts 	0
scalar IntersectionExampleScenario.node[530].nic.mac1609_4 	SentPackets 	0
scalar IntersectionExampleScenario.node[530].nic.mac1609_4 	SNIRLostPackets 	0
scalar IntersectionExampleScenario.node[530].nic.mac1609_4 	RXTXLostPackets 	0
scalar IntersectionExampleScenario.node[530].nic.mac1609_4 	TotalLostPackets 	0
scalar IntersectionExampleScenario.node[530].nic.mac1609_4 	DroppedPacketsInMac 	0
scalar IntersectionExampleScenario.node[530].nic.mac1609_4 	TooLittleTime 	0
scalar IntersectionExampleScenario.node[530].nic.mac1609_4 	TimesIntoBackoff 	0
scalar IntersectionExampleScenario.node[530].nic.mac1609_4 	SlotsBackoff 	0
scalar IntersectionExampleScenario.node[530].nic.mac1609_4 	NumInternalContention 	0
scalar IntersectionExampleScenario.node[530].nic.mac1609_4 	totalBusyTime 	0
scalar IntersectionExampleScenario.node[530].veinsmobility 	startTime 	1766
scalar IntersectionExampleScenario.node[530].veinsmobility 	totalTime 	34
scalar IntersectionExampleScenario.node[530].veinsmobility 	stopTime 	1800
scalar IntersectionExampleScenario.node[530].veinsmobility 	minSpeed 	0
scalar IntersectionExampleScenario.node[530].veinsmobility 	maxSpeed 	15.02499961853
scalar IntersectionExampleScenario.node[530].veinsmobility 	totalDistance 	287.42190551758
scalar IntersectionExampleScenario.node[530].veinsmobility 	totalCO2Emission 	75.852712529346
scalar IntersectionExampleScenario.node[531].appl 	VehicleRemoved 	0
scalar IntersectionExampleScenario.node[531].appl 	ArrivedAtDest 	0
scalar IntersectionExampleScenario.node[531].appl 	IntersectionEnterTime 	1768.5
scalar IntersectionExampleScenario.node[531].appl 	IntersectionExitTime 	-1
scalar IntersectionExampleScenario.node[531].appl 	NumberOfCollisions 	0
scalar IntersectionExampleScenario.node[531].nic.phy80211p 	busyTime 	0
scalar IntersectionExampleScenario.node[531].nic.mac1609_4 	ReceivedUnicastPackets 	0
scalar IntersectionExampleScenario.node[531].nic.mac1609_4 	ReceivedBroadcasts 	0
scalar IntersectionExampleScenario.node[531].nic.mac1609_4 	SentPackets 	0
scalar IntersectionExampleScenario.node[531].nic.mac1609_4 	SNIRLostPackets 	0
scalar IntersectionExampleScenario.node[531].nic.mac1609_4 	RXTXLostPackets 	0
scalar IntersectionExampleScenario.node[531].nic.mac1609_4 	TotalLostPackets 	0
scalar IntersectionExampleScenario.node[531].nic.mac1609_4 	DroppedPacketsInMac 	0
scalar IntersectionExampleScenario.node[531].nic.mac1609_4 	TooLittleTime 	0
scalar IntersectionExampleScenario.node[531].nic.mac1609_4 	TimesIntoBackoff 	0
scalar IntersectionExampleScenario.node[531].nic.mac1609_4 	SlotsBackoff 	0
scalar IntersectionExampleScenario.node[531].nic.mac1609_4 	NumInternalContention 	0
scalar IntersectionExampleScenario.node[531].nic.mac1609_4 	totalBusyTime 	0
scalar IntersectionExampleScenario.node[531].veinsmobility 	startTime 	1768.5
scalar IntersectionExampleScenario.node[531].veinsmobility 	totalTime 	31.5
scalar IntersectionExampleScenario.node[531].veinsmobility 	stopTime 	1800
scalar IntersectionExampleScenario.node[531].veinsmobility 	minSpeed 	0
scalar IntersectionExampleScenario.node[531].veinsmobility 	maxSpeed 	15.02499961853
scalar IntersectionExampleScenario.node[531].veinsmobility 	totalDistance 	267.23853302002
scalar IntersectionExampleScenario.node[531].veinsmobility 	totalCO2Emission 	67.691204752244
scalar IntersectionExampleScenario.node[532].appl 	VehicleRemoved 	0
scalar IntersectionExampleScenario.node[532].appl 	ArrivedAtDest 	0
scalar IntersectionExampleScenario.node[532].appl 	IntersectionEnterTime 	1770.5
scalar IntersectionExampleScenario.node[532].appl 	IntersectionExitTime 	-1
scalar IntersectionExampleScenario.node[532].appl 	NumberOfCollisions 	0
scalar IntersectionExampleScenario.node[532].nic.phy80211p 	busyTime 	0
scalar IntersectionExampleScenario.node[532].nic.mac1609_4 	ReceivedUnicastPackets 	0
scalar IntersectionExampleScenario.node[532].nic.mac1609_4 	ReceivedBroadcasts 	0
scalar IntersectionExampleScenario.node[532].nic.mac1609_4 	SentPackets 	0
scalar IntersectionExampleScenario.node[532].nic.mac1609_4 	SNIRLostPackets 	0
scalar IntersectionExampleScenario.node[532].nic.mac1609_4 	RXTXLostPackets 	0
scalar IntersectionExampleScenario.node[532].nic.mac1609_4 	TotalLostPackets 	0
scalar IntersectionExampleScenario.node[532].nic.mac1609_4 	DroppedPacketsInMac 	0
scalar IntersectionExampleScenario.node[532].nic.mac1609_4 	TooLittleTime 	0
scalar IntersectionExampleScenario.node[532].nic.mac1609_4 	TimesIntoBackoff 	0
scalar IntersectionExampleScenario.node[532].nic.mac1609_4 	SlotsBackoff 	0
scalar IntersectionExampleScenario.node[532].nic.mac1609_4 	NumInternalContention 	0
scalar IntersectionExampleScenario.node[532].nic.mac1609_4 	totalBusyTime 	0
scalar IntersectionExampleScenario.node[532].veinsmobility 	startTime 	1770.5
scalar IntersectionExampleScenario.node[532].veinsmobility 	totalTime 	29.5
scalar IntersectionExampleScenario.node[532].veinsmobility 	stopTime 	1800
scalar IntersectionExampleScenario.node[532].veinsmobility 	minSpeed 	0
scalar IntersectionExampleScenario.node[532].veinsmobility 	maxSpeed 	15.386766433716
scalar IntersectionExampleScenario.node[532].veinsmobility 	totalDistance 	280.57431030273
scalar IntersectionExampleScenario.node[532].veinsmobility 	totalCO2Emission 	70.833193766179
scalar IntersectionExampleScenario.node[533].appl 	VehicleRemoved 	0
scalar IntersectionExampleScenario.node[533].appl 	ArrivedAtDest 	0
scalar IntersectionExampleScenario.node[533].appl 	IntersectionEnterTime 	1772.5
scalar IntersectionExampleScenario.node[533].appl 	IntersectionExitTime 	-1
scalar IntersectionExampleScenario.node[533].appl 	NumberOfCollisions 	0
scalar IntersectionExampleScenario.node[533].nic.phy80211p 	busyTime 	0
scalar IntersectionExampleScenario.node[533].nic.mac1609_4 	ReceivedUnicastPackets 	0
scalar IntersectionExampleScenario.node[533].nic.mac1609_4 	ReceivedBroadcasts 	0
scalar IntersectionExampleScenario.node[533].nic.mac1609_4 	SentPackets 	0
scalar IntersectionExampleScenario.node[533].nic.mac1609_4 	SNIRLostPackets 	0
scalar IntersectionExampleScenario.node[533].nic.mac1609_4 	RXTXLostPackets 	0
scalar IntersectionExampleScenario.node[533].nic.mac1609_4 	TotalLostPackets 	0
scalar IntersectionExampleScenario.node[533].nic.mac1609_4 	DroppedPacketsInMac 	0
scalar IntersectionExampleScenario.node[533].nic.mac1609_4 	TooLittleTime 	0
scalar IntersectionExampleScenario.node[533].nic.mac1609_4 	TimesIntoBackoff 	0
scalar IntersectionExampleScenario.node[533].nic.mac1609_4 	SlotsBackoff 	0
scalar IntersectionExampleScenario.node[533].nic.mac1609_4 	NumInternalContention 	0
scalar IntersectionExampleScenario.node[533].nic.mac1609_4 	totalBusyTime 	0
scalar IntersectionExampleScenario.node[533].veinsmobility 	startTime 	1772.5
scalar IntersectionExampleScenario.node[533].veinsmobility 	totalTime 	27.5
scalar IntersectionExampleScenario.node[533].veinsmobility 	stopTime 	1800
scalar IntersectionExampleScenario.node[533].veinsmobility 	minSpeed 	1.2126367092133
scalar IntersectionExampleScenario.node[533].veinsmobility 	maxSpeed 	15.64999961853
scalar IntersectionExampleScenario.node[533].veinsmobility 	totalDistance 	208.2459487915
scalar IntersectionExampleScenario.node[533].veinsmobility 	totalCO2Emission 	59.910741957466
scalar IntersectionExampleScenario.node[534].appl 	VehicleRemoved 	0
scalar IntersectionExampleScenario.node[534].appl 	ArrivedAtDest 	0
scalar IntersectionExampleScenario.node[534].appl 	IntersectionEnterTime 	1775.75
scalar IntersectionExampleScenario.node[534].appl 	IntersectionExitTime 	-1
scalar IntersectionExampleScenario.node[534].appl 	NumberOfCollisions 	0
scalar IntersectionExampleScenario.node[534].nic.phy80211p 	busyTime 	0
scalar IntersectionExampleScenario.node[534].nic.mac1609_4 	ReceivedUnicastPackets 	0
scalar IntersectionExampleScenario.node[534].nic.mac1609_4 	ReceivedBroadcasts 	0
scalar IntersectionExampleScenario.node[534].nic.mac1609_4 	SentPackets 	0
scalar IntersectionExampleScenario.node[534].nic.mac1609_4 	SNIRLostPackets 	0
scalar IntersectionExampleScenario.node[534].nic.mac1609_4 	RXTXLostPackets 	0
scalar IntersectionExampleScenario.node[534].nic.mac1609_4 	TotalLostPackets 	0
scalar IntersectionExampleScenario.node[534].nic.mac1609_4 	DroppedPacketsInMac 	0
scalar IntersectionExampleScenario.node[534].nic.mac1609_4 	TooLittleTime 	0
scalar IntersectionExampleScenario.node[534].nic.mac1609_4 	TimesIntoBackoff 	0
scalar IntersectionExampleScenario.node[534].nic.mac1609_4 	SlotsBackoff 	0
scalar IntersectionExampleScenario.node[534].nic.mac1609_4 	NumInternalContention 	0
scalar IntersectionExampleScenario.node[534].nic.mac1609_4 	totalBusyTime 	0
scalar IntersectionExampleScenario.node[534].veinsmobility 	startTime 	1775.75
scalar IntersectionExampleScenario.node[534].veinsmobility 	totalTime 	24.25
scalar IntersectionExampleScenario.node[534].veinsmobility 	stopTime 	1800
scalar IntersectionExampleScenario.node[534].veinsmobility 	minSpeed 	2.7644679546356
scalar IntersectionExampleScenario.node[534].veinsmobility 	maxSpeed 	15.722666740417
scalar IntersectionExampleScenario.node[534].veinsmobility 	totalDistance 	264.57235717773
scalar IntersectionExampleScenario.node[534].veinsmobility 	totalCO2Emission 	64.446700411499
scalar IntersectionExampleScenario.node[535].appl 	VehicleRemoved 	0
scalar IntersectionExampleScenario.node[535].appl 	ArrivedAtDest 	0
scalar IntersectionExampleScenario.node[535].appl 	IntersectionEnterTime 	1776.25
scalar IntersectionExampleScenario.node[535].appl 	IntersectionExitTime 	-1
scalar IntersectionExampleScenario.node[535].appl 	NumberOfCollisions 	0
scalar IntersectionExampleScenario.node[535].nic.phy80211p 	busyTime 	0
scalar IntersectionExampleScenario.node[535].nic.mac1609_4 	ReceivedUnicastPackets 	0
scalar IntersectionExampleScenario.node[535].nic.mac1609_4 	ReceivedBroadcasts 	0
scalar IntersectionExampleScenario.node[535].nic.mac1609_4 	SentPackets 	0
scalar IntersectionExampleScenario.node[535].nic.mac1609_4 	SNIRLostPackets 	0
scalar IntersectionExampleScenario.node[535].nic.mac1609_4 	RXTXLostPackets 	0
scalar IntersectionExampleScenario.node[535].nic.mac1609_4 	TotalLostPackets 	0
scalar IntersectionExampleScenario.node[535].nic.mac1609_4 	DroppedPacketsInMac 	0
scalar IntersectionExampleScenario.node[535].nic.mac1609_4 	TooLittleTime 	0
scalar IntersectionExampleScenario.node[535].nic.mac1609_4 	TimesIntoBackoff 	0
scalar IntersectionExampleScenario.node[535].nic.mac1609_4 	SlotsBackoff 	0
scalar IntersectionExampleScenario.node[535].nic.mac1609_4 	NumInternalContention 	0
scalar IntersectionExampleScenario.node[535].nic.mac1609_4 	totalBusyTime 	0
scalar IntersectionExampleScenario.node[535].veinsmobility 	startTime 	1776.25
scalar IntersectionExampleScenario.node[535].veinsmobility 	totalTime 	23.75
scalar IntersectionExampleScenario.node[535].veinsmobility 	stopTime 	1800
scalar IntersectionExampleScenario.node[535].veinsmobility 	minSpeed 	3.8830008506775
scalar IntersectionExampleScenario.node[535].veinsmobility 	maxSpeed 	15.420751571655
scalar IntersectionExampleScenario.node[535].veinsmobility 	totalDistance 	276.86584472656
scalar IntersectionExampleScenario.node[535].veinsmobility 	totalCO2Emission 	67.591503117794
scalar IntersectionExampleScenario.node[536].appl 	VehicleRemoved 	0
scalar IntersectionExampleScenario.node[536].appl 	ArrivedAtDest 	0
scalar IntersectionExampleScenario.node[536].appl 	IntersectionEnterTime 	1782
scalar IntersectionExampleScenario.node[536].appl 	IntersectionExitTime 	-1
scalar IntersectionExampleScenario.node[536].appl 	NumberOfCollisions 	0
scalar IntersectionExampleScenario.node[536].nic.phy80211p 	busyTime 	0
scalar IntersectionExampleScenario.node[536].nic.mac1609_4 	ReceivedUnicastPackets 	0
scalar IntersectionExampleScenario.node[536].nic.mac1609_4 	ReceivedBroadcasts 	0
scalar IntersectionExampleScenario.node[536].nic.mac1609_4 	SentPackets 	0
scalar IntersectionExampleScenario.node[536].nic.mac1609_4 	SNIRLostPackets 	0
scalar IntersectionExampleScenario.node[536].nic.mac1609_4 	RXTXLostPackets 	0
scalar IntersectionExampleScenario.node[536].nic.mac1609_4 	TotalLostPackets 	0
scalar IntersectionExampleScenario.node[536].nic.mac1609_4 	DroppedPacketsInMac 	0
scalar IntersectionExampleScenario.node[536].nic.mac1609_4 	TooLittleTime 	0
scalar IntersectionExampleScenario.node[536].nic.mac1609_4 	TimesIntoBackoff 	0
scalar IntersectionExampleScenario.node[536].nic.mac1609_4 	SlotsBackoff 	0
scalar IntersectionExampleScenario.node[536].nic.mac1609_4 	NumInternalContention 	0
scalar IntersectionExampleScenario.node[536].nic.mac1609_4 	totalBusyTime 	0
scalar IntersectionExampleScenario.node[536].veinsmobility 	startTime 	1782
scalar IntersectionExampleScenario.node[536].veinsmobility 	totalTime 	18
scalar IntersectionExampleScenario.node[536].veinsmobility 	stopTime 	1800
scalar IntersectionExampleScenario.node[536].veinsmobility 	minSpeed 	5.6500000953674
scalar IntersectionExampleScenario.node[536].veinsmobility 	maxSpeed 	15.936579704285
scalar IntersectionExampleScenario.node[536].veinsmobility 	totalDistance 	240.11813354492
scalar IntersectionExampleScenario.node[536].veinsmobility 	totalCO2Emission 	57.344183581784
scalar IntersectionExampleScenario.node[537].appl 	VehicleRemoved 	0
scalar IntersectionExampleScenario.node[537].appl 	ArrivedAtDest 	0
scalar IntersectionExampleScenario.node[537].appl 	IntersectionEnterTime 	1790
scalar IntersectionExampleScenario.node[537].appl 	IntersectionExitTime 	-1
scalar IntersectionExampleScenario.node[537].appl 	NumberOfCollisions 	0
scalar IntersectionExampleScenario.node[537].nic.phy80211p 	busyTime 	0
scalar IntersectionExampleScenario.node[537].nic.mac1609_4 	ReceivedUnicastPackets 	0
scalar IntersectionExampleScenario.node[537].nic.mac1609_4 	ReceivedBroadcasts 	0
scalar IntersectionExampleScenario.node[537].nic.mac1609_4 	SentPackets 	0
scalar IntersectionExampleScenario.node[537].nic.mac1609_4 	SNIRLostPackets 	0
scalar IntersectionExampleScenario.node[537].nic.mac1609_4 	RXTXLostPackets 	0
scalar IntersectionExampleScenario.node[537].nic.mac1609_4 	TotalLostPackets 	0
scalar IntersectionExampleScenario.node[537].nic.mac1609_4 	DroppedPacketsInMac 	0
scalar IntersectionExampleScenario.node[537].nic.mac1609_4 	TooLittleTime 	0
scalar IntersectionExampleScenario.node[537].nic.mac1609_4 	TimesIntoBackoff 	0
scalar IntersectionExampleScenario.node[537].nic.mac1609_4 	SlotsBackoff 	0
scalar IntersectionExampleScenario.node[537].nic.mac1609_4 	NumInternalContention 	0
scalar IntersectionExampleScenario.node[537].nic.mac1609_4 	totalBusyTime 	0
scalar IntersectionExampleScenario.node[537].veinsmobility 	startTime 	1790
scalar IntersectionExampleScenario.node[537].veinsmobility 	totalTime 	10
scalar IntersectionExampleScenario.node[537].veinsmobility 	stopTime 	1800
scalar IntersectionExampleScenario.node[537].veinsmobility 	minSpeed 	5.6500000953674
scalar IntersectionExampleScenario.node[537].veinsmobility 	maxSpeed 	15.02499961853
scalar IntersectionExampleScenario.node[537].veinsmobility 	totalDistance 	126.82834625244
scalar IntersectionExampleScenario.node[537].veinsmobility 	totalCO2Emission 	40.768837969267
scalar IntersectionExampleScenario.node[538].appl 	VehicleRemoved 	0
scalar IntersectionExampleScenario.node[538].appl 	ArrivedAtDest 	0
scalar IntersectionExampleScenario.node[538].appl 	IntersectionEnterTime 	1793.75
scalar IntersectionExampleScenario.node[538].appl 	IntersectionExitTime 	-1
scalar IntersectionExampleScenario.node[538].appl 	NumberOfCollisions 	0
scalar IntersectionExampleScenario.node[538].nic.phy80211p 	busyTime 	0
scalar IntersectionExampleScenario.node[538].nic.mac1609_4 	ReceivedUnicastPackets 	0
scalar IntersectionExampleScenario.node[538].nic.mac1609_4 	ReceivedBroadcasts 	0
scalar IntersectionExampleScenario.node[538].nic.mac1609_4 	SentPackets 	0
scalar IntersectionExampleScenario.node[538].nic.mac1609_4 	SNIRLostPackets 	0
scalar IntersectionExampleScenario.node[538].nic.mac1609_4 	RXTXLostPackets 	0
scalar IntersectionExampleScenario.node[538].nic.mac1609_4 	TotalLostPackets 	0
scalar IntersectionExampleScenario.node[538].nic.mac1609_4 	DroppedPacketsInMac 	0
scalar IntersectionExampleScenario.node[538].nic.mac1609_4 	TooLittleTime 	0
scalar IntersectionExampleScenario.node[538].nic.mac1609_4 	TimesIntoBackoff 	0
scalar IntersectionExampleScenario.node[538].nic.mac1609_4 	SlotsBackoff 	0
scalar IntersectionExampleScenario.node[538].nic.mac1609_4 	NumInternalContention 	0
scalar IntersectionExampleScenario.node[538].nic.mac1609_4 	totalBusyTime 	0
scalar IntersectionExampleScenario.node[538].veinsmobility 	startTime 	1793.75
scalar IntersectionExampleScenario.node[538].veinsmobility 	totalTime 	6.25
scalar IntersectionExampleScenario.node[538].veinsmobility 	stopTime 	1800
scalar IntersectionExampleScenario.node[538].veinsmobility 	minSpeed 	5.6500000953674
scalar IntersectionExampleScenario.node[538].veinsmobility 	maxSpeed 	15.64999961853
scalar IntersectionExampleScenario.node[538].veinsmobility 	totalDistance 	74.75611114502
scalar IntersectionExampleScenario.node[538].veinsmobility 	totalCO2Emission 	36.736642601768
