file 30444687 1591425200                                        
version 2
run nodebug-35-20200606-02:27:35-22484
attr configname nodebug
attr datetime 20200606-02:27:35
attr experiment nodebug
attr inifile omnetpp.ini
attr iterationvars ""
attr iterationvars2 $repetition=35
attr measurement ""
attr network "\"org.car2x.veins.modules.application.ExtTraCIScenarioManagerLaunchd.IntersectionExampleScenario\""
attr processid 22484
attr repetition 35
attr replication #35
attr resultdir results
attr runnumber 35
attr seedset 35
param **.coreDebug false
param **.debug false
param *.**.nic.mac1609_4.bitrate 18Mbps
param *.**.nic.mac1609_4.txPower 20mW
param *.**.nic.mac1609_4.useServiceChannel false
param *.**.nic.phy80211p.analogueModels "xmldoc(\"config.xml\")"
param *.**.nic.phy80211p.decider "xmldoc(\"config.xml\")"
param *.**.nic.phy80211p.sensitivity -89dBm
param *.**.nic.phy80211p.thermalNoise -110dBm
param *.**.nic.phy80211p.usePropagationDelay true
param *.**.nic.phy80211p.useThermalNoise true
param *.annotations.draw false
param *.connectionManager.alpha 2.0
param *.connectionManager.carrierFrequency "5.890e9 Hz"
param *.connectionManager.pMax 20mW
param *.connectionManager.sat -89dBm
param *.connectionManager.sendDirect true
param *.manager.autoShutdown true
param *.manager.host "\"localhost\""
param *.manager.launchConfig "xmldoc(\"paramics.launchd.xml\")"
param *.manager.margin 25
param *.manager.moduleDisplayString "\"\""
param *.manager.moduleName "\"node\""
param *.manager.moduleType "\"org.car2x.veins.nodes.Car\""
param *.manager.port 9999
param *.manager.updateInterval 250ms
param *.node[*0].veinsmobility.accidentCount 0
param *.node[*0].veinsmobility.accidentDuration 30s
param *.node[*0].veinsmobility.accidentStart 75s
param *.node[*].appl.LiderSelectZoneRadio 55.0
param *.node[*].appl.ShareDataZoneRadio 110.0
param *.node[*].appl.TiempoSemaforo 30.0
param *.node[*].appl.beaconInterval 1s
param *.node[*].appl.beaconPriority 3
param *.node[*].appl.dataOnSch false
param *.node[*].appl.dataPriority 2
param *.node[*].appl.debug false
param *.node[*].appl.headerLength "256 bit"
param *.node[*].appl.maxOffset 0.005s
param *.node[*].appl.sendBeacons false
param *.node[*].appl.sendData true
param *.node[*].applType "\"Dummy\""
param *.node[*].mobilityType "\"TraCIMobility\""
param *.node[*].mobilityType.debug true
param *.node[*].veinsmobility.x 0
param *.node[*].veinsmobility.y 0
param *.node[*].veinsmobility.z 1.895
param *.node[*].veinsmobilityType "\"org.car2x.veins.modules.mobility.traci.TraCIMobility\""
param *.node[*].veinsmobilityType.debug true
param *.playgroundSizeX 8500m
param *.playgroundSizeY 8500m
param *.playgroundSizeZ 50m
param *.world.use2D false
param *.world.useTorus false

vector 35406  IntersectionExampleScenario.manager  vehiclesinsim  ETV
attr type  int
vector 35407  IntersectionExampleScenario.manager  realtime  ETV
attr type  int
attr unit  s
vector 35410  IntersectionExampleScenario.node[0].veinsmobility  posx  ETV
vector 35411  IntersectionExampleScenario.node[0].veinsmobility  posy  ETV
vector 35417  IntersectionExampleScenario.node[1].veinsmobility  posx  ETV
vector 35418  IntersectionExampleScenario.node[1].veinsmobility  posy  ETV
vector 35412  IntersectionExampleScenario.node[0].veinsmobility  speed  ETV
vector 35413  IntersectionExampleScenario.node[0].veinsmobility  acceleration  ETV
vector 35414  IntersectionExampleScenario.node[0].veinsmobility  co2emission  ETV
vector 35419  IntersectionExampleScenario.node[1].veinsmobility  speed  ETV
vector 35420  IntersectionExampleScenario.node[1].veinsmobility  acceleration  ETV
vector 35421  IntersectionExampleScenario.node[1].veinsmobility  co2emission  ETV
vector 35424  IntersectionExampleScenario.node[2].veinsmobility  posx  ETV
vector 35425  IntersectionExampleScenario.node[2].veinsmobility  posy  ETV
vector 35426  IntersectionExampleScenario.node[2].veinsmobility  speed  ETV
vector 35427  IntersectionExampleScenario.node[2].veinsmobility  acceleration  ETV
vector 35428  IntersectionExampleScenario.node[2].veinsmobility  co2emission  ETV
vector 35431  IntersectionExampleScenario.node[3].veinsmobility  posx  ETV
vector 35432  IntersectionExampleScenario.node[3].veinsmobility  posy  ETV
vector 35433  IntersectionExampleScenario.node[3].veinsmobility  speed  ETV
vector 35434  IntersectionExampleScenario.node[3].veinsmobility  acceleration  ETV
vector 35435  IntersectionExampleScenario.node[3].veinsmobility  co2emission  ETV
vector 35438  IntersectionExampleScenario.node[4].veinsmobility  posx  ETV
vector 35439  IntersectionExampleScenario.node[4].veinsmobility  posy  ETV
vector 35440  IntersectionExampleScenario.node[4].veinsmobility  speed  ETV
vector 35441  IntersectionExampleScenario.node[4].veinsmobility  acceleration  ETV
vector 35442  IntersectionExampleScenario.node[4].veinsmobility  co2emission  ETV
vector 35445  IntersectionExampleScenario.node[5].veinsmobility  posx  ETV
vector 35446  IntersectionExampleScenario.node[5].veinsmobility  posy  ETV
vector 35447  IntersectionExampleScenario.node[5].veinsmobility  speed  ETV
vector 35448  IntersectionExampleScenario.node[5].veinsmobility  acceleration  ETV
vector 35449  IntersectionExampleScenario.node[5].veinsmobility  co2emission  ETV
vector 35452  IntersectionExampleScenario.node[6].veinsmobility  posx  ETV
vector 35453  IntersectionExampleScenario.node[6].veinsmobility  posy  ETV
vector 35454  IntersectionExampleScenario.node[6].veinsmobility  speed  ETV
vector 35455  IntersectionExampleScenario.node[6].veinsmobility  acceleration  ETV
vector 35456  IntersectionExampleScenario.node[6].veinsmobility  co2emission  ETV
vector 35459  IntersectionExampleScenario.node[7].veinsmobility  posx  ETV
vector 35460  IntersectionExampleScenario.node[7].veinsmobility  posy  ETV
vector 35461  IntersectionExampleScenario.node[7].veinsmobility  speed  ETV
vector 35462  IntersectionExampleScenario.node[7].veinsmobility  acceleration  ETV
vector 35463  IntersectionExampleScenario.node[7].veinsmobility  co2emission  ETV
vector 35466  IntersectionExampleScenario.node[8].veinsmobility  posx  ETV
vector 35467  IntersectionExampleScenario.node[8].veinsmobility  posy  ETV
vector 35468  IntersectionExampleScenario.node[8].veinsmobility  speed  ETV
vector 35469  IntersectionExampleScenario.node[8].veinsmobility  acceleration  ETV
vector 35470  IntersectionExampleScenario.node[8].veinsmobility  co2emission  ETV
vector 35473  IntersectionExampleScenario.node[9].veinsmobility  posx  ETV
vector 35474  IntersectionExampleScenario.node[9].veinsmobility  posy  ETV
vector 35480  IntersectionExampleScenario.node[10].veinsmobility  posx  ETV
vector 35481  IntersectionExampleScenario.node[10].veinsmobility  posy  ETV
vector 35475  IntersectionExampleScenario.node[9].veinsmobility  speed  ETV
vector 35482  IntersectionExampleScenario.node[10].veinsmobility  speed  ETV
vector 35487  IntersectionExampleScenario.node[11].veinsmobility  posx  ETV
vector 35488  IntersectionExampleScenario.node[11].veinsmobility  posy  ETV
vector 35476  IntersectionExampleScenario.node[9].veinsmobility  acceleration  ETV
vector 35477  IntersectionExampleScenario.node[9].veinsmobility  co2emission  ETV
vector 35483  IntersectionExampleScenario.node[10].veinsmobility  acceleration  ETV
vector 35484  IntersectionExampleScenario.node[10].veinsmobility  co2emission  ETV
vector 35489  IntersectionExampleScenario.node[11].veinsmobility  speed  ETV
vector 35490  IntersectionExampleScenario.node[11].veinsmobility  acceleration  ETV
vector 35491  IntersectionExampleScenario.node[11].veinsmobility  co2emission  ETV
vector 35494  IntersectionExampleScenario.node[12].veinsmobility  posx  ETV
vector 35495  IntersectionExampleScenario.node[12].veinsmobility  posy  ETV
vector 35496  IntersectionExampleScenario.node[12].veinsmobility  speed  ETV
vector 35501  IntersectionExampleScenario.node[13].veinsmobility  posx  ETV
vector 35502  IntersectionExampleScenario.node[13].veinsmobility  posy  ETV
vector 35497  IntersectionExampleScenario.node[12].veinsmobility  acceleration  ETV
vector 35498  IntersectionExampleScenario.node[12].veinsmobility  co2emission  ETV
vector 35503  IntersectionExampleScenario.node[13].veinsmobility  speed  ETV
vector 35504  IntersectionExampleScenario.node[13].veinsmobility  acceleration  ETV
vector 35505  IntersectionExampleScenario.node[13].veinsmobility  co2emission  ETV
vector 35508  IntersectionExampleScenario.node[14].veinsmobility  posx  ETV
vector 35509  IntersectionExampleScenario.node[14].veinsmobility  posy  ETV
vector 35510  IntersectionExampleScenario.node[14].veinsmobility  speed  ETV
vector 35511  IntersectionExampleScenario.node[14].veinsmobility  acceleration  ETV
vector 35512  IntersectionExampleScenario.node[14].veinsmobility  co2emission  ETV
vector 35515  IntersectionExampleScenario.node[15].veinsmobility  posx  ETV
vector 35516  IntersectionExampleScenario.node[15].veinsmobility  posy  ETV
vector 35517  IntersectionExampleScenario.node[15].veinsmobility  speed  ETV
vector 35518  IntersectionExampleScenario.node[15].veinsmobility  acceleration  ETV
vector 35519  IntersectionExampleScenario.node[15].veinsmobility  co2emission  ETV
vector 35522  IntersectionExampleScenario.node[16].veinsmobility  posx  ETV
vector 35523  IntersectionExampleScenario.node[16].veinsmobility  posy  ETV
vector 35524  IntersectionExampleScenario.node[16].veinsmobility  speed  ETV
vector 35525  IntersectionExampleScenario.node[16].veinsmobility  acceleration  ETV
vector 35526  IntersectionExampleScenario.node[16].veinsmobility  co2emission  ETV
vector 35529  IntersectionExampleScenario.node[17].veinsmobility  posx  ETV
vector 35530  IntersectionExampleScenario.node[17].veinsmobility  posy  ETV
vector 35531  IntersectionExampleScenario.node[17].veinsmobility  speed  ETV
vector 35532  IntersectionExampleScenario.node[17].veinsmobility  acceleration  ETV
vector 35533  IntersectionExampleScenario.node[17].veinsmobility  co2emission  ETV
35442	10104 4997 160 3940 5.75 45.25 159 0.97223939240464 11.810082123732 507.90446564047 2852.4636117653
35441	15101 4677 160 3940 5.75 45.25 159 -3.3224430084229 2.5 38.680875778198 281.07750478256
35440	19778 4873 149 3940 5.5 45.25 160 5.6500000953674 15.875 2180.3963141441 31117.975677723
35439	24651 5240 138 3940 5.25 45.25 161 486.85000610352 732.1520690918 86462.362808228 47344177.968307
35438	29891 5239 138 3940 5.25 45.25 161 486.73587036133 785.82187652588 92162.609840393 54496323.186597
35421	35130 5848 15 4440 1 50.25 198 0.973 11.810082123732 569.45699323427 3022.6597790052
35420	40978 5521 15 4440 1 50.25 198 -7.775092124939 4 38.511121749878 481.7653167427
35419	46499 5669 10 4440 0.75 50.25 199 0 15.875 2181.7102353573 30752.64212689
35418	52168 6454 5 4440 0.5 50.25 200 184.17810058594 483.36395263672 82345.368896484 35812019.085682
35417	58622 6402 5 4440 0.5 50.25 200 486.85000610352 734.25172424316 105598.19493103 56769965.327583
35428	65024 6106 44 4540 2.25 51.25 197 0.973 11.90022389248 585.57598224112 3092.5526453928
35427	71130 5763 44 4540 2.25 51.25 197 -4.5 2.5000004768372 39.699392318726 467.13061111828
35426	76893 6198 37 4540 2 51.25 198 0 16 2291.7469164636 32545.607427059
35425	83091 6429 30 4540 1.75 51.25 199 162.90466308594 486.86645507812 80159.932037354 34537538.475699
35424	89520 6450 30 4540 1.75 51.25 199 237.42370605469 486.85000610352 88690.357910156 40551283.644373
vector 35536  IntersectionExampleScenario.node[18].veinsmobility  posx  ETV
vector 35537  IntersectionExampleScenario.node[18].veinsmobility  posy  ETV
vector 35538  IntersectionExampleScenario.node[18].veinsmobility  speed  ETV
vector 35539  IntersectionExampleScenario.node[18].veinsmobility  acceleration  ETV
vector 35540  IntersectionExampleScenario.node[18].veinsmobility  co2emission  ETV
35449	96371 5632 263 4862 8 54.25 186 0.973 11.36141391502 543.8373676148 2824.3633546928
35448	102003 5599 263 4862 8 54.25 186 -2.9042282104492 2.5 37.492597579956 320.48782890274
35447	107602 5794 250 4862 7.75 54.25 187 3.2884454727173 15.25 2194.5618448257 28772.837263173
35446	113396 6123 237 4862 7.5 54.25 188 184.17810058594 483.29867553711 75766.426116943 32337080.399162
35445	119519 6144 237 4862 7.5 54.25 188 486.85000610352 735.4764251709 99984.004562378 54191063.631177
vector 35543  IntersectionExampleScenario.node[19].veinsmobility  posx  ETV
vector 35544  IntersectionExampleScenario.node[19].veinsmobility  posy  ETV
vector 35545  IntersectionExampleScenario.node[19].veinsmobility  speed  ETV
vector 35546  IntersectionExampleScenario.node[19].veinsmobility  acceleration  ETV
vector 35547  IntersectionExampleScenario.node[19].veinsmobility  co2emission  ETV
35484	126064 4938 781 5005 16 55.5 159 0.97223939240464 11.666254064011 539.73985194336 3329.0198342025
35483	131002 4715 781 5005 16 55.5 159 -3.3175811767578 2.5 38.680875778198 287.72790800553
35482	135717 5037 758 5005 15.75 55.5 160 5.6500000953674 15.675157546997 2210.8464078903 31249.71517797
35481	140754 5270 735 5005 15.5 55.5 161 184.17810058594 731.65733337402 71723.006637573 36067091.120885
35480	146024 5302 735 5005 15.5 55.5 161 486.85000610352 486.85000610352 78382.850982666 38160691.479322
vector 35550  IntersectionExampleScenario.node[20].veinsmobility  posx  ETV
vector 35551  IntersectionExampleScenario.node[20].veinsmobility  posy  ETV
vector 35552  IntersectionExampleScenario.node[20].veinsmobility  speed  ETV
vector 35553  IntersectionExampleScenario.node[20].veinsmobility  acceleration  ETV
vector 35554  IntersectionExampleScenario.node[20].veinsmobility  co2emission  ETV
35498	151727 5208 935 5342 17.5 58.25 164 0.973 11.648172402475 505.95273353158 2747.9135059477
35497	156935 5071 935 5342 17.5 58.25 164 -3.7756690979004 2.5 38.001859664917 246.4173185491
35496	162006 5153 908 5342 17.25 58.25 165 5.6500000953674 15.64999961853 2281.6968955994 32427.983995544
35495	167159 5445 881 5342 17 58.25 166 163.88433837891 486.85000610352 64737.288299561 27340781.22685
35494	172604 5468 881 5342 17 58.25 166 238.75225830078 486.85000610352 72490.422485352 32614393.124997
vector 35557  IntersectionExampleScenario.node[21].veinsmobility  posx  ETV
vector 35558  IntersectionExampleScenario.node[21].veinsmobility  posy  ETV
vector 35559  IntersectionExampleScenario.node[21].veinsmobility  speed  ETV
vector 35560  IntersectionExampleScenario.node[21].veinsmobility  acceleration  ETV
vector 35561  IntersectionExampleScenario.node[21].veinsmobility  co2emission  ETV
vector 35564  IntersectionExampleScenario.node[22].veinsmobility  posx  ETV
vector 35565  IntersectionExampleScenario.node[22].veinsmobility  posy  ETV
vector 35571  IntersectionExampleScenario.node[23].veinsmobility  posx  ETV
vector 35572  IntersectionExampleScenario.node[23].veinsmobility  posy  ETV
vector 35566  IntersectionExampleScenario.node[22].veinsmobility  speed  ETV
vector 35567  IntersectionExampleScenario.node[22].veinsmobility  acceleration  ETV
vector 35568  IntersectionExampleScenario.node[22].veinsmobility  co2emission  ETV
vector 35573  IntersectionExampleScenario.node[23].veinsmobility  speed  ETV
vector 35574  IntersectionExampleScenario.node[23].veinsmobility  acceleration  ETV
vector 35575  IntersectionExampleScenario.node[23].veinsmobility  co2emission  ETV
vector 35578  IntersectionExampleScenario.node[24].veinsmobility  posx  ETV
vector 35579  IntersectionExampleScenario.node[24].veinsmobility  posy  ETV
vector 35580  IntersectionExampleScenario.node[24].veinsmobility  speed  ETV
vector 35581  IntersectionExampleScenario.node[24].veinsmobility  acceleration  ETV
vector 35582  IntersectionExampleScenario.node[24].veinsmobility  co2emission  ETV
vector 35585  IntersectionExampleScenario.node[25].veinsmobility  posx  ETV
vector 35586  IntersectionExampleScenario.node[25].veinsmobility  posy  ETV
vector 35587  IntersectionExampleScenario.node[25].veinsmobility  speed  ETV
vector 35588  IntersectionExampleScenario.node[25].veinsmobility  acceleration  ETV
vector 35589  IntersectionExampleScenario.node[25].veinsmobility  co2emission  ETV
35414	180077 8622 10 8198 0.75 80 318 0.973 11.90022389248 696.58603481279 3210.1871339734
35413	188699 7740 10 8198 0.75 80 318 -8.1522026062012 4 39.529638290405 496.24633385995
35412	196439 7979 5 8198 0.5 80 319 0 16 2214.9452383518 31924.027614019
35411	204418 10431 2 8198 0.25 80 320 483.14999389648 483.14999389648 154607.99804688 74698853.312695
35410	214849 10406 2 8198 0.25 80 320 184.17810058594 734.00186157227 147300.02772522 71948371.401595
35435	225255 8935 111 8362 4.5 81.75 310 0.973 11.648172402475 674.75414544933 3002.6609902296
35434	234190 8729 111 8362 4.5 81.75 310 -4.2735366821289 2.5 38.341367721558 393.04288538844
35433	242919 8783 102 8362 4.25 81.75 311 0 15.64999961853 2215.4842074197 30433.185951244
35432	251702 10196 93 8362 4 81.75 312 236.95050048828 483.14999389648 142562.98968506 66265659.725369
35431	261898 10190 93 8362 4 81.75 312 176.21716308594 483.14999389648 133395.66921997 59275545.835493
35456	272088 8643 436 8537 11.25 83.75 291 0.973 11.648172402475 665.53819228402 3053.1418083892
35455	280731 8982 436 8537 11.25 83.75 291 -3.7417378425598 2.5 40.038900375366 338.81738096029
35454	289713 9028 421 8537 11 83.75 292 0 15.722870826721 2178.593886843 28540.854354614
35453	298741 9635 406 8537 10.75 83.75 293 238.50366210938 483.14999389648 133675.75015259 62054210.183574
35452	308376 9585 406 8537 10.75 83.75 293 184.17810058594 483.14999389648 123754.68817139 54246573.931207
35463	317961 9266 530 8873 12.75 87.75 301 0.973 10.916047529558 646.77570315489 2609.1827738207
35462	327227 9534 530 8873 12.75 87.75 301 -4.5 2.5 34.437047958374 370.72842040147
35461	336761 9594 513 8873 12.5 87.75 302 0 14.625 2271.4131548665 28024.855030487
35460	346355 9971 496 8873 12.25 87.75 303 235.23046875 483.14999389648 137571.32519531 63661617.020855
35459	356326 9942 496 8873 12.25 87.75 303 163.88433837891 483.14999389648 125353.01095581 54248522.961918
35505	366268 8752 993 8978 18 89 285 0.973 12.088357138154 680.80798642413 3117.5779271182
35504	375020 9050 993 8978 18 89 285 -4.5 2.5000038146973 42.440984725952 409.61339747221
35503	384070 9117 964 8978 17.75 89 286 0 16.260246276855 2106.0413618609 26310.265846371
35502	393187 9465 935 8978 17.5 89 287 235.31072998047 483.14999389648 130411.28076172 60383763.942366
35501	402652 9447 935 8978 17.5 89 287 205.03533935547 483.16275024414 120411.97286987 52079113.475012
vector 35592  IntersectionExampleScenario.node[26].veinsmobility  posx  ETV
vector 35593  IntersectionExampleScenario.node[26].veinsmobility  posy  ETV
vector 35594  IntersectionExampleScenario.node[26].veinsmobility  speed  ETV
vector 35595  IntersectionExampleScenario.node[26].veinsmobility  acceleration  ETV
vector 35596  IntersectionExampleScenario.node[26].veinsmobility  co2emission  ETV
35470	412500 9369 602 9177 13.75 91.25 311 0.973 11.139599431933 767.71397190033 3459.7977230749
35469	421869 9397 602 9177 13.75 91.25 311 -4.5 2.5 38.511121749878 596.97934458688
35468	431266 9665 583 9177 13.5 91.25 312 0 15.327690124512 2315.203200656 27809.321759135
35467	440931 10304 564 9177 13.25 91.25 313 236.31518554688 483.14999389648 143025.8550415 66486152.980471
35466	451235 10292 564 9177 13.25 91.25 313 151.85626220703 483.14999389648 125032.12417603 52722681.763145
35491	461527 8919 831 9312 16.5 92.75 306 0.973 11.093806525473 677.39824276098 2671.5064971168
35490	470446 8669 831 9312 16.5 92.75 306 -4.5 2.5 36.134572982788 420.32359773651
35489	479115 8935 806 9312 16.25 92.75 307 0 14.875 2341.3065588474 28259.537184827
35488	488050 10155 781 9312 16 92.75 308 483.14999389648 483.14999389648 148810.19812012 71897646.313469
35487	498205 10050 781 9312 16 92.75 308 153.24810791016 733.6895904541 131064.36022949 61120958.667398
vector 35599  IntersectionExampleScenario.node[27].veinsmobility  posx  ETV
vector 35600  IntersectionExampleScenario.node[27].veinsmobility  posy  ETV
vector 35601  IntersectionExampleScenario.node[27].veinsmobility  speed  ETV
vector 35602  IntersectionExampleScenario.node[27].veinsmobility  acceleration  ETV
vector 35603  IntersectionExampleScenario.node[27].veinsmobility  co2emission  ETV
35533	508656 5943 3915 9456 45 94.5 199 0.973 12.099024792222 617.2748628064 3477.2817618768
35532	514599 5999 3915 9456 45 94.5 199 -3.7973709106445 2.5 42.245687484741 411.296232947
35531	520598 6266 3890 9456 44.75 94.5 200 2.4505002498627 16.27499961853 2186.3084487915 28847.864492344
35530	526864 6632 3865 9456 44.5 94.5 201 236.24041748047 483.14999389648 89341.774475098 40682265.572956
35529	533496 6593 3865 9456 44.5 94.5 201 184.17810058594 483.1513671875 80544.334655762 34004069.496756
35547	540089 5044 4947 9602 55 96.25 166 0.973 11.648172402475 524.91195623035 3008.2077259601
35546	545133 4916 4947 9602 55 96.25 166 -2.8422622680664 2.5 38.850629806519 246.89561076969
35545	550049 5261 4918 9602 54.75 96.25 167 5.6500000953674 15.64999961853 2223.7712812424 30471.275217301
35544	555310 5544 4889 9602 54.5 96.25 168 483.14999389648 483.14999389648 81169.198974609 39216897.989165
35543	560854 5519 4889 9602 54.5 96.25 168 184.17810058594 735.0005645752 74814.394973755 37523430.930114
35554	566373 5349 5125 9842 56.5 99.5 173 0.973 11.36141391502 506.18940551564 2693.7145973142
35553	571722 5391 5125 9842 56.5 99.5 173 -3.7916793823242 2.5 36.643835067749 262.77072529649
35552	577113 5422 5094 9842 56.25 99.5 174 5.6500000953674 15.25 2260.0576591492 30558.819578681
35551	582535 5769 5063 9842 56 99.5 175 238.00018310547 483.14999389648 76223.605804443 34161836.467663
35550	588304 5746 5063 9842 56 99.5 175 163.88433837891 483.14999389648 68294.472595215 28745734.49902
vector 35606  IntersectionExampleScenario.node[28].veinsmobility  posx  ETV
vector 35607  IntersectionExampleScenario.node[28].veinsmobility  posy  ETV
vector 35608  IntersectionExampleScenario.node[28].veinsmobility  speed  ETV
vector 35609  IntersectionExampleScenario.node[28].veinsmobility  acceleration  ETV
vector 35610  IntersectionExampleScenario.node[28].veinsmobility  co2emission  ETV
vector 35613  IntersectionExampleScenario.node[29].veinsmobility  posx  ETV
vector 35614  IntersectionExampleScenario.node[29].veinsmobility  posy  ETV
vector 35615  IntersectionExampleScenario.node[29].veinsmobility  speed  ETV
vector 35616  IntersectionExampleScenario.node[29].veinsmobility  acceleration  ETV
vector 35617  IntersectionExampleScenario.node[29].veinsmobility  co2emission  ETV
vector 35620  IntersectionExampleScenario.node[30].veinsmobility  posx  ETV
vector 35621  IntersectionExampleScenario.node[30].veinsmobility  posy  ETV
vector 35627  IntersectionExampleScenario.node[31].veinsmobility  posx  ETV
vector 35628  IntersectionExampleScenario.node[31].veinsmobility  posy  ETV
vector 35634  IntersectionExampleScenario.node[32].veinsmobility  posx  ETV
vector 35635  IntersectionExampleScenario.node[32].veinsmobility  posy  ETV
vector 35622  IntersectionExampleScenario.node[30].veinsmobility  speed  ETV
vector 35629  IntersectionExampleScenario.node[31].veinsmobility  speed  ETV
vector 35636  IntersectionExampleScenario.node[32].veinsmobility  speed  ETV
vector 35623  IntersectionExampleScenario.node[30].veinsmobility  acceleration  ETV
vector 35624  IntersectionExampleScenario.node[30].veinsmobility  co2emission  ETV
vector 35630  IntersectionExampleScenario.node[31].veinsmobility  acceleration  ETV
vector 35631  IntersectionExampleScenario.node[31].veinsmobility  co2emission  ETV
vector 35637  IntersectionExampleScenario.node[32].veinsmobility  acceleration  ETV
vector 35638  IntersectionExampleScenario.node[32].veinsmobility  co2emission  ETV
vector 35641  IntersectionExampleScenario.node[33].veinsmobility  posx  ETV
vector 35642  IntersectionExampleScenario.node[33].veinsmobility  posy  ETV
vector 35643  IntersectionExampleScenario.node[33].veinsmobility  speed  ETV
vector 35644  IntersectionExampleScenario.node[33].veinsmobility  acceleration  ETV
vector 35645  IntersectionExampleScenario.node[33].veinsmobility  co2emission  ETV
vector 35648  IntersectionExampleScenario.node[34].veinsmobility  posx  ETV
vector 35649  IntersectionExampleScenario.node[34].veinsmobility  posy  ETV
vector 35650  IntersectionExampleScenario.node[34].veinsmobility  speed  ETV
vector 35651  IntersectionExampleScenario.node[34].veinsmobility  acceleration  ETV
vector 35652  IntersectionExampleScenario.node[34].veinsmobility  co2emission  ETV
vector 35655  IntersectionExampleScenario.node[35].veinsmobility  posx  ETV
vector 35656  IntersectionExampleScenario.node[35].veinsmobility  posy  ETV
35589	597011 5093 6986 10652 69.75 108.5 156 0.973 11.54047740176 466.15982120664 2342.423113526
35588	602104 4435 6986 10652 69.75 108.5 156 -3.0623893737793 2.5 37.492597579956 180.55980135192
35587	606539 5014 6951 10652 69.5 108.5 157 5.6500000953674 15.5 2221.0238361359 32010.780434557
35586	611553 5278 6916 10652 69.25 108.5 158 483.14999389648 483.14999389648 76337.699035645 36882558.823143
35585	616831 5229 6916 10652 69.25 108.5 158 184.17810058594 734.34188842773 70985.805145264 36100629.995172
vector 35657  IntersectionExampleScenario.node[35].veinsmobility  speed  ETV
vector 35658  IntersectionExampleScenario.node[35].veinsmobility  acceleration  ETV
vector 35659  IntersectionExampleScenario.node[35].veinsmobility  co2emission  ETV
vector 35662  IntersectionExampleScenario.node[36].veinsmobility  posx  ETV
vector 35663  IntersectionExampleScenario.node[36].veinsmobility  posy  ETV
vector 35664  IntersectionExampleScenario.node[36].veinsmobility  speed  ETV
vector 35665  IntersectionExampleScenario.node[36].veinsmobility  acceleration  ETV
vector 35666  IntersectionExampleScenario.node[36].veinsmobility  co2emission  ETV
35512	622708 8663 2758 10894 33.5 110.5 309 0.973 11.36141391502 663.26540770487 2873.4366300374
35511	631371 7731 2758 10894 33.5 110.5 309 -6.7711477279663 4 36.98334312439 450.59403005823
35510	639102 8045 2729 10894 33.25 110.5 310 0 15.25 2175.7520129681 29985.058215833
35509	647147 10334 2700 10894 33 110.5 311 486.63604736328 785.82187652588 167178.13471222 92051792.751844
35508	657481 10279 2700 10894 33 110.5 311 237.36993408203 483.14999389648 141935.79971313 65915362.770163
vector 35669  IntersectionExampleScenario.node[37].veinsmobility  posx  ETV
vector 35670  IntersectionExampleScenario.node[37].veinsmobility  posy  ETV
vector 35671  IntersectionExampleScenario.node[37].veinsmobility  speed  ETV
vector 35672  IntersectionExampleScenario.node[37].veinsmobility  acceleration  ETV
vector 35673  IntersectionExampleScenario.node[37].veinsmobility  co2emission  ETV
35519	668161 9124 3003 11148 35.75 112.5 308 0.973 11.36141391502 693.98768658252 2998.8367234357
35518	677285 8759 3003 11148 35.75 112.5 308 -4.5 2.5 39.869146347046 436.46230734378
35517	686044 8907 2976 11148 35.5 112.5 309 0 15.65974521637 2257.8285046592 31864.744764836
35516	694951 10311 2948 11148 35.25 112.5 310 486.74230957031 802.70781707764 168771.94495392 94294678.927703
35515	705262 10307 2948 11148 35.25 112.5 310 235.40557861328 483.14999389648 141676.54714966 65869046.48449
vector 35676  IntersectionExampleScenario.node[38].veinsmobility  posx  ETV
vector 35677  IntersectionExampleScenario.node[38].veinsmobility  posy  ETV
vector 35678  IntersectionExampleScenario.node[38].veinsmobility  speed  ETV
vector 35679  IntersectionExampleScenario.node[38].veinsmobility  acceleration  ETV
vector 35680  IntersectionExampleScenario.node[38].veinsmobility  co2emission  ETV
vector 35683  IntersectionExampleScenario.node[39].veinsmobility  posx  ETV
vector 35684  IntersectionExampleScenario.node[39].veinsmobility  posy  ETV
vector 35685  IntersectionExampleScenario.node[39].veinsmobility  speed  ETV
vector 35686  IntersectionExampleScenario.node[39].veinsmobility  acceleration  ETV
vector 35687  IntersectionExampleScenario.node[39].veinsmobility  co2emission  ETV
35526	716371 8755 3559 11397 41.25 114.25 293 0.973 11.990504229548 670.32898639283 3194.9604307001
35525	725126 9216 3559 11397 41.25 114.25 293 -3.6891961097717 2.5 39.529638290405 364.51912008819
35524	734342 9159 3534 11397 41 114.25 294 0 16.125 2215.7973436788 30140.669289574
35523	743501 9818 3509 11397 40.75 114.25 295 236.81378173828 785.82187652588 153040.28144073 83497555.676636
35522	753319 9844 3509 11397 40.75 114.25 295 483.14999389648 483.14999389648 142529.24819946 68863005.397641
35540	763163 7978 4619 11767 52 116.75 260 0.973 11.648172402475 620.92916063242 2960.3059020851
35539	771141 8324 4619 11767 52 116.75 260 -3.8770680427551 2.5000009536743 38.511121749878 332.25825931404
35538	779465 8494 4592 11767 51.75 116.75 261 0 15.64999961853 2219.059787767 29307.134093099
35537	787959 8748 4565 11767 51.5 116.75 262 236.32873535156 785.82187652588 136929.30840302 75728369.4093
35536	796707 8776 4565 11767 51.5 116.75 262 483.14999389648 483.14999389648 126585.29840088 61159686.149769
vector 35690  IntersectionExampleScenario.node[40].veinsmobility  posx  ETV
vector 35691  IntersectionExampleScenario.node[40].veinsmobility  posy  ETV
vector 35692  IntersectionExampleScenario.node[40].veinsmobility  speed  ETV
vector 35693  IntersectionExampleScenario.node[40].veinsmobility  acceleration  ETV
vector 35694  IntersectionExampleScenario.node[40].veinsmobility  co2emission  ETV
35582	805884 6851 5831 11990 61.75 118.25 227 0.973 11.648172402475 600.12410970643 3114.2981133215
35581	812735 7158 5831 11990 61.75 118.25 227 -3.853120803833 2.5 41.227170944214 327.9309118105
35580	819893 7424 5792 11990 61.5 118.25 228 0 16.399421691895 2221.6747139841 29983.619477597
35579	827317 7671 5753 11990 61.25 118.25 229 235.97039794922 785.82187652588 120549.70488739 67522642.881938
35578	834988 7699 5753 11990 61.25 118.25 229 483.14999389648 483.14999389648 110641.34860229 53456366.901897
vector 35697  IntersectionExampleScenario.node[41].veinsmobility  posx  ETV
vector 35698  IntersectionExampleScenario.node[41].veinsmobility  posy  ETV
vector 35704  IntersectionExampleScenario.node[42].veinsmobility  posx  ETV
vector 35705  IntersectionExampleScenario.node[42].veinsmobility  posy  ETV
vector 35699  IntersectionExampleScenario.node[41].veinsmobility  speed  ETV
vector 35700  IntersectionExampleScenario.node[41].veinsmobility  acceleration  ETV
vector 35701  IntersectionExampleScenario.node[41].veinsmobility  co2emission  ETV
vector 35706  IntersectionExampleScenario.node[42].veinsmobility  speed  ETV
vector 35711  IntersectionExampleScenario.node[43].veinsmobility  posx  ETV
vector 35712  IntersectionExampleScenario.node[43].veinsmobility  posy  ETV
vector 35707  IntersectionExampleScenario.node[42].veinsmobility  acceleration  ETV
vector 35708  IntersectionExampleScenario.node[42].veinsmobility  co2emission  ETV
vector 35713  IntersectionExampleScenario.node[43].veinsmobility  speed  ETV
vector 35714  IntersectionExampleScenario.node[43].veinsmobility  acceleration  ETV
vector 35715  IntersectionExampleScenario.node[43].veinsmobility  co2emission  ETV
vector 35718  IntersectionExampleScenario.node[44].veinsmobility  posx  ETV
vector 35719  IntersectionExampleScenario.node[44].veinsmobility  posy  ETV
vector 35720  IntersectionExampleScenario.node[44].veinsmobility  speed  ETV
vector 35721  IntersectionExampleScenario.node[44].veinsmobility  acceleration  ETV
vector 35722  IntersectionExampleScenario.node[44].veinsmobility  co2emission  ETV
vector 35725  IntersectionExampleScenario.node[45].veinsmobility  posx  ETV
vector 35726  IntersectionExampleScenario.node[45].veinsmobility  posy  ETV
vector 35727  IntersectionExampleScenario.node[45].veinsmobility  speed  ETV
vector 35728  IntersectionExampleScenario.node[45].veinsmobility  acceleration  ETV
vector 35729  IntersectionExampleScenario.node[45].veinsmobility  co2emission  ETV
vector 35732  IntersectionExampleScenario.node[46].veinsmobility  posx  ETV
vector 35733  IntersectionExampleScenario.node[46].veinsmobility  posy  ETV
vector 35739  IntersectionExampleScenario.node[47].veinsmobility  posx  ETV
vector 35740  IntersectionExampleScenario.node[47].veinsmobility  posy  ETV
vector 35734  IntersectionExampleScenario.node[46].veinsmobility  speed  ETV
vector 35735  IntersectionExampleScenario.node[46].veinsmobility  acceleration  ETV
vector 35736  IntersectionExampleScenario.node[46].veinsmobility  co2emission  ETV
vector 35741  IntersectionExampleScenario.node[47].veinsmobility  speed  ETV
vector 35742  IntersectionExampleScenario.node[47].veinsmobility  acceleration  ETV
vector 35743  IntersectionExampleScenario.node[47].veinsmobility  co2emission  ETV
vector 35746  IntersectionExampleScenario.node[48].veinsmobility  posx  ETV
vector 35747  IntersectionExampleScenario.node[48].veinsmobility  posy  ETV
vector 35748  IntersectionExampleScenario.node[48].veinsmobility  speed  ETV
vector 35749  IntersectionExampleScenario.node[48].veinsmobility  acceleration  ETV
vector 35750  IntersectionExampleScenario.node[48].veinsmobility  co2emission  ETV
35603	845895 5459 9456 15020 94.5 134.75 162 0.973 11.36141391502 496.04206152594 2597.598836304
35602	851354 5013 9456 15020 94.5 134.75 162 -4.1617736816406 2.5 36.813589096069 274.26820585496
35601	856367 5339 9435 15020 94.25 134.75 163 5.6500000953674 15.25 2179.8585138321 30364.484331194
35600	861706 5678 9414 15020 94 134.75 164 486.8410949707 785.82187652588 93895.501167297 55521497.812676
35599	867384 5660 9414 15020 94 134.75 164 237.57775878906 483.14999389648 70903.089050293 31591607.686639
vector 35753  IntersectionExampleScenario.node[49].veinsmobility  posx  ETV
vector 35754  IntersectionExampleScenario.node[49].veinsmobility  posy  ETV
vector 35755  IntersectionExampleScenario.node[49].veinsmobility  speed  ETV
vector 35756  IntersectionExampleScenario.node[49].veinsmobility  acceleration  ETV
vector 35757  IntersectionExampleScenario.node[49].veinsmobility  co2emission  ETV
35477	873445 13215 781 16033 16 140.75 500 0.96333723109819 12.099024792222 877.93107095126 3487.5389973542
35476	886660 11675 781 16033 16 140.75 500 -6.7176246643066 4 40.208654403687 481.76706844698
35475	898335 11839 758 16033 15.75 140.75 501 0 16.27499961853 2195.6666045189 31787.620864243
35474	910174 16876 735 16033 15.5 140.75 502 238.72613525391 486.85000610352 236352.73913574 112480451.53372
35473	927050 16859 735 16033 15.5 140.75 502 483.14999389648 785.82187652588 261729.64311981 138787194.8747
vector 35760  IntersectionExampleScenario.node[50].veinsmobility  posx  ETV
vector 35761  IntersectionExampleScenario.node[50].veinsmobility  posy  ETV
vector 35762  IntersectionExampleScenario.node[50].veinsmobility  speed  ETV
vector 35763  IntersectionExampleScenario.node[50].veinsmobility  acceleration  ETV
vector 35764  IntersectionExampleScenario.node[50].veinsmobility  co2emission  ETV
vector 35767  IntersectionExampleScenario.node[51].veinsmobility  posx  ETV
vector 35768  IntersectionExampleScenario.node[51].veinsmobility  posy  ETV
vector 35774  IntersectionExampleScenario.node[52].veinsmobility  posx  ETV
vector 35775  IntersectionExampleScenario.node[52].veinsmobility  posy  ETV
vector 35769  IntersectionExampleScenario.node[51].veinsmobility  speed  ETV
vector 35776  IntersectionExampleScenario.node[52].veinsmobility  speed  ETV
vector 35770  IntersectionExampleScenario.node[51].veinsmobility  acceleration  ETV
vector 35771  IntersectionExampleScenario.node[51].veinsmobility  co2emission  ETV
vector 35777  IntersectionExampleScenario.node[52].veinsmobility  acceleration  ETV
vector 35778  IntersectionExampleScenario.node[52].veinsmobility  co2emission  ETV
35610	945112 5574 9947 16457 101 143.25 170 0.973 11.90022389248 544.20255326007 3075.9469894238
35609	950686 5420 9947 16457 101 143.25 170 -2.1693878173828 2.5000019073486 41.227170944214 286.2438088633
35608	956106 5676 9929 16457 100.75 143.25 171 4.9897747039795 16.120740890503 2210.9592270851 30885.515013316
35607	961782 6009 9910 16457 100.5 143.25 172 236.54827880859 486.85000610352 75666.58102417 34252440.121148
35606	967791 6002 9910 16457 100.5 143.25 172 483.14263916016 785.82187652588 97823.614387512 57400125.942499
vector 35781  IntersectionExampleScenario.node[53].veinsmobility  posx  ETV
vector 35782  IntersectionExampleScenario.node[53].veinsmobility  posy  ETV
vector 35783  IntersectionExampleScenario.node[53].veinsmobility  speed  ETV
vector 35788  IntersectionExampleScenario.node[54].veinsmobility  posx  ETV
vector 35789  IntersectionExampleScenario.node[54].veinsmobility  posy  ETV
vector 35784  IntersectionExampleScenario.node[53].veinsmobility  acceleration  ETV
vector 35785  IntersectionExampleScenario.node[53].veinsmobility  co2emission  ETV
vector 35790  IntersectionExampleScenario.node[54].veinsmobility  speed  ETV
vector 35791  IntersectionExampleScenario.node[54].veinsmobility  acceleration  ETV
vector 35792  IntersectionExampleScenario.node[54].veinsmobility  co2emission  ETV
35645	974595 5698 10253 17126 104.75 147 170 0.973 11.450879080643 526.19673347163 2830.0640877631
35644	980293 5506 10253 17126 104.75 147 170 -4.5 2.5 36.813589096069 345.46416095821
35643	985799 5689 10228 17126 104.5 147 171 5.6500000953674 15.375 2158.9998936653 28726.979309077
35642	991488 6016 10203 17126 104.25 147 172 235.75909423828 486.85000610352 75058.732421875 33770327.372208
35641	997504 6013 10203 17126 104.25 147 172 483.12069702148 773.06954193115 97298.761703491 56658856.223193
35624	1003517 6089 10157 17486 103.75 149 182 0.973 10.562040798468 539.21506612691 2589.8661198568
35623	1009606 5815 10157 17486 103.75 149 182 -4.5 2.5 37.15309715271 288.97589698232
35622	1015421 6143 10134 17486 103.5 149 183 5.6500000953674 15.006779670715 2271.8088459969 29699.581561083
35621	1021564 6430 10111 17486 103.25 149 184 235.09594726562 486.85000610352 80894.701721191 36612377.813141
35620	1027994 6427 10111 17486 103.25 149 184 483.12054443359 800.04531860352 107021.07292938 64469343.689611
vector 35795  IntersectionExampleScenario.node[55].veinsmobility  posx  ETV
vector 35796  IntersectionExampleScenario.node[55].veinsmobility  posy  ETV
35652	1034575 5791 10382 17531 106 149.25 174 0.973 12.717865293408 592.9281120049 3394.2644995659
35651	1040366 5614 10382 17531 106 149.25 174 -4.5 2.5 44.112981796265 380.79927861458
35650	1045980 5769 10355 17531 105.75 149.25 175 5.6500000953674 17.125 2282.4929962158 32029.027457244
35649	1051749 6154 10328 17531 105.5 149.25 176 486.85000610352 732.29475402832 93164.93927002 50213720.627681
35648	1057903 6137 10328 17531 105.5 149.25 176 486.77923583984 811.0068359375 102749.09735107 62122946.199903
vector 35797  IntersectionExampleScenario.node[55].veinsmobility  speed  ETV
vector 35798  IntersectionExampleScenario.node[55].veinsmobility  acceleration  ETV
vector 35799  IntersectionExampleScenario.node[55].veinsmobility  co2emission  ETV
vector 35802  IntersectionExampleScenario.node[56].veinsmobility  posx  ETV
vector 35803  IntersectionExampleScenario.node[56].veinsmobility  posy  ETV
vector 35804  IntersectionExampleScenario.node[56].veinsmobility  speed  ETV
vector 35805  IntersectionExampleScenario.node[56].veinsmobility  acceleration  ETV
vector 35806  IntersectionExampleScenario.node[56].veinsmobility  co2emission  ETV
35659	1064688 5696 10710 17990 109 151.75 172 0.973 12.099024792222 527.85809511027 2999.2061724612
35658	1070384 5707 10710 17990 109 151.75 172 -4.5 2.5 40.038900375366 280.41086823949
35657	1076091 5799 10681 17990 108.75 151.75 173 5.6500000953674 16.27499961853 2281.9324054718 31629.027298965
35656	1081890 6089 10652 17990 108.5 151.75 174 486.85000610352 731.99024963379 92622.730255127 50231464.455348
35655	1087979 6082 10652 17990 108.5 151.75 174 486.85000610352 811.33512878418 101264.85738373 61061687.270512
vector 35809  IntersectionExampleScenario.node[57].veinsmobility  posx  ETV
vector 35810  IntersectionExampleScenario.node[57].veinsmobility  posy  ETV
vector 35811  IntersectionExampleScenario.node[57].veinsmobility  speed  ETV
vector 35812  IntersectionExampleScenario.node[57].veinsmobility  acceleration  ETV
vector 35813  IntersectionExampleScenario.node[57].veinsmobility  co2emission  ETV
35687	1094462 5467 11360 18476 114 154.25 162 0.973 11.810082123732 512.82775538162 2865.8227187148
35686	1099929 5287 11360 18476 114 154.25 162 -3.2570037841797 2.5 39.699392318726 267.55393344546
35685	1105216 5376 11323 18476 113.75 154.25 163 5.6500000953674 15.875 2236.6614217758 32154.469610227
35684	1110592 5724 11286 18476 113.5 154.25 164 486.85000610352 735.00566101074 87985.864776611 48141334.053734
35683	1116316 5732 11286 18476 113.5 154.25 164 486.82757568359 797.00038909912 94523.074317932 56381805.881085
vector 35816  IntersectionExampleScenario.node[58].veinsmobility  posx  ETV
vector 35817  IntersectionExampleScenario.node[58].veinsmobility  posy  ETV
vector 35818  IntersectionExampleScenario.node[58].veinsmobility  speed  ETV
vector 35823  IntersectionExampleScenario.node[59].veinsmobility  posx  ETV
vector 35824  IntersectionExampleScenario.node[59].veinsmobility  posy  ETV
vector 35819  IntersectionExampleScenario.node[58].veinsmobility  acceleration  ETV
vector 35820  IntersectionExampleScenario.node[58].veinsmobility  co2emission  ETV
vector 35825  IntersectionExampleScenario.node[59].veinsmobility  speed  ETV
vector 35826  IntersectionExampleScenario.node[59].veinsmobility  acceleration  ETV
vector 35827  IntersectionExampleScenario.node[59].veinsmobility  co2emission  ETV
35701	1122850 5125 12144 18978 119.25 156.75 151 0.973 11.54047740176 457.25467179954 2404.9814427391
35700	1127975 4993 12144 18978 119.25 156.75 151 -3.8674621582031 2.5 36.98334312439 196.6627477585
35699	1132968 5065 12103 18978 119 156.75 152 5.6500000953674 15.5 2127.1123228073 30329.127271011
35698	1138033 5356 12064 18978 118.75 156.75 153 486.85000610352 486.85000610352 74488.050933838 36264508.051778
35697	1143389 5341 12064 18978 118.75 156.75 153 235.88812255859 762.97197723389 77934.244018555 43432023.424725
35694	1148730 5724 11990 19787 118.25 161 172 0.973 11.36141391502 535.68302029884 2973.143565334
35693	1154454 5619 11990 19787 118.25 161 172 -4.5 2.5 35.964826583862 341.01615612298
35692	1160073 5726 11953 19787 118 161 173 5.6500000953674 15.25 2224.1903500557 29920.702381559
35691	1165799 6083 11915 19787 117.75 161 174 486.85000610352 733.63798522949 93238.304412842 50944612.646119
35690	1171882 6076 11915 19787 117.75 161 174 486.83984375 795.77207946777 100945.6208725 60633989.696139
35729	1177958 5358 12804 19967 123 162 157 0.973 11.54047740176 518.39572044887 2812.7824408687
35728	1183316 4930 12804 19967 123 162 157 -4.5 2.5 39.529638290405 265.60615930643
35727	1188246 5298 12757 19967 122.75 162 158 5.6500000953674 15.585935592651 2269.1108398438 33310.069894487
35726	1193544 5564 12710 19967 122.5 162 159 486.85000610352 486.85000610352 77409.150970459 37686645.622436
35725	1199108 5556 12710 19967 122.5 162 159 235.42736816406 797.03924560547 83773.505226135 48506850.311742
35736	1204664 5638 13186 20729 125 166.5 167 0.973 11.648172402475 527.9772755191 2899.5901145912
35735	1210302 5453 13186 20729 125 166.5 167 -4.5 2.5 38.001859664917 294.65292332799
35734	1215755 5554 13135 20729 124.75 166.5 168 5.6500000953674 15.64999961853 2278.2580127716 32235.776691471
35733	1221309 5905 13086 20729 124.5 166.5 169 486.85000610352 732.98554992676 90502.926971436 49410590.48875
35732	1227214 5901 13086 20729 124.5 166.5 169 486.85000610352 809.53056335449 98265.393531799 59259371.163514
vector 35830  IntersectionExampleScenario.node[60].veinsmobility  posx  ETV
vector 35831  IntersectionExampleScenario.node[60].veinsmobility  posy  ETV
vector 35832  IntersectionExampleScenario.node[60].veinsmobility  speed  ETV
vector 35833  IntersectionExampleScenario.node[60].veinsmobility  acceleration  ETV
vector 35834  IntersectionExampleScenario.node[60].veinsmobility  co2emission  ETV
vector 35837  IntersectionExampleScenario.node[61].veinsmobility  posx  ETV
vector 35838  IntersectionExampleScenario.node[61].veinsmobility  posy  ETV
vector 35839  IntersectionExampleScenario.node[61].veinsmobility  speed  ETV
vector 35840  IntersectionExampleScenario.node[61].veinsmobility  acceleration  ETV
vector 35841  IntersectionExampleScenario.node[61].veinsmobility  co2emission  ETV
35575	1233917 12095 5679 21472 60.75 171 442 0.973 11.648172402475 809.86626549304 3212.4322363544
35574	1246012 10608 5679 21472 60.75 171 442 -8.1417827606201 4 39.869146347046 491.74128946233
35573	1256620 10926 5642 21472 60.5 171 443 0 15.664483070374 2097.636493206 30204.338834123
35572	1267546 15189 5605 21472 60.25 171 444 213.88439941406 734.69343566895 208131.76063538 101061085.91257
35571	1282735 15215 5605 21472 60.25 171 444 486.85000610352 486.85000610352 216161.40270996 105238180.22869
35561	1297950 13019 5470 21816 59.25 173.25 457 0.973 11.36141391502 815.13544857777 2954.8091390571
35560	1310969 12238 5470 21816 59.25 173.25 457 -4.5 2.5 36.134572982788 454.60832194351
35559	1323207 12164 5437 21816 59 173.25 458 0 15.25 2185.4992720764 28724.23018926
35558	1335371 15707 5404 21816 58.75 173.25 459 184.17810058594 483.14999389648 200867.95843506 90438528.579879
35557	1351078 15719 5404 21816 58.75 173.25 459 486.85000610352 733.67929077148 231966.35627747 118469325.91259
vector 35844  IntersectionExampleScenario.node[62].veinsmobility  posx  ETV
vector 35845  IntersectionExampleScenario.node[62].veinsmobility  posy  ETV
vector 35851  IntersectionExampleScenario.node[63].veinsmobility  posx  ETV
vector 35852  IntersectionExampleScenario.node[63].veinsmobility  posy  ETV
vector 35846  IntersectionExampleScenario.node[62].veinsmobility  speed  ETV
vector 35853  IntersectionExampleScenario.node[63].veinsmobility  speed  ETV
vector 35847  IntersectionExampleScenario.node[62].veinsmobility  acceleration  ETV
vector 35848  IntersectionExampleScenario.node[62].veinsmobility  co2emission  ETV
vector 35854  IntersectionExampleScenario.node[63].veinsmobility  acceleration  ETV
vector 35855  IntersectionExampleScenario.node[63].veinsmobility  co2emission  ETV
35568	1367599 13343 5642 22055 60.5 174.75 458 0.973 11.54047740176 831.66727194783 3026.1517823884
35567	1380942 12925 5642 22055 60.5 174.75 458 -4.3835144042969 2.5 37.32285118103 383.53972225568
35566	1393867 12945 5605 22055 60.25 174.75 459 0 15.5 2305.9888504511 30602.603822063
35565	1406812 15737 5570 22055 60 174.75 460 162.90466308594 734.94209289551 206497.44790649 97717579.170123
35564	1422549 15773 5570 22055 60 174.75 460 486.85000610352 486.85000610352 223951.00280762 109030547.08378
35631	1438322 9182 10157 22211 103.75 175.75 289 0.973 12.163613857959 687.97542296769 3434.2244812958
35630	1447504 9795 10157 22211 103.75 175.75 289 -3.9188377857208 2.5000019073486 42.856573104858 363.79239074931
35629	1457299 9691 10134 22211 103.5 175.75 290 0 16.364143371582 2217.5525482967 30244.902409757
35628	1466990 10143 10111 22211 103.25 175.75 291 184.17810058594 733.08842468262 130345.94923401 62444943.923226
35627	1477133 10187 10111 22211 103.25 175.75 291 486.85000610352 486.85000610352 141673.35177612 68973672.176911
vector 35858  IntersectionExampleScenario.node[64].veinsmobility  posx  ETV
vector 35859  IntersectionExampleScenario.node[64].veinsmobility  posy  ETV
vector 35860  IntersectionExampleScenario.node[64].veinsmobility  speed  ETV
vector 35861  IntersectionExampleScenario.node[64].veinsmobility  acceleration  ETV
vector 35862  IntersectionExampleScenario.node[64].veinsmobility  co2emission  ETV
35673	1487721 8415 11115 22531 112.25 177.75 263 0.973 12.099024792222 640.66564971895 3251.7523599522
35672	1496136 8762 11115 22531 112.25 177.75 263 -3.9016633033752 2.5 41.227170944214 345.4876423126
35671	1504898 8996 11082 22531 112 177.75 264 0 16.27499961853 2225.2090935018 29744.598107513
35670	1513894 9218 11049 22531 111.75 177.75 265 184.17810058594 734.90713500977 117520.35795593 56209489.241836
35669	1523112 9276 11049 22531 111.75 177.75 265 486.85000610352 486.85003662109 129015.25167847 62811076.096823
35715	1532388 7708 12272 23065 120 181 245 0.973 11.450879080643 600.97929247608 2969.6872643982
35714	1540096 8249 12272 23065 120 181 245 -4.6807479858398 2.5 37.492597579956 367.93948354031
35713	1548345 8308 12228 23065 119.75 181 246 0 15.375 2205.0628472939 27746.234169991
35712	1556653 8612 12185 23065 119.5 181 247 184.17810058594 487.05972290039 100895.70748901 43084923.077809
35711	1565265 8637 12185 23065 119.5 181 247 237.30871582031 486.85003662109 111767.82339478 51695189.477259
35722	1573902 7953 12620 23311 122 182.5 243 0.973 12.26218747632 665.6339383809 3463.4302318318
35721	1581855 8159 12620 23311 122 182.5 243 -4.5 2.5 41.396924972534 545.14645009918
35720	1590014 8168 12575 23311 121.75 182.5 244 0 16.5 2251.8783215284 29617.28824283
35719	1598182 8492 12530 23311 121.5 182.5 245 166.078125 483.20263671875 98064.235107422 41317413.798459
35718	1606674 8560 12530 23311 121.5 182.5 245 486.85000610352 731.69931030273 127004.0703125 66848550.954733
35743	1615234 7636 13237 23434 125.25 183.25 233 0.973 12.099024792222 655.74573457674 3494.4162006117
35742	1622870 7471 13237 23434 125.25 183.25 233 -4.5 2.5 42.415441513062 496.65292402232
35741	1630341 7853 13186 23434 125 183.25 234 0 16.285654067993 2295.485460192 31559.06172146
35740	1638194 8171 13135 23434 124.75 183.25 235 163.87969970703 732.27279663086 101090.79541016 47908369.161173
35739	1646365 8225 13135 23434 124.75 183.25 235 486.84997558594 486.85000610352 114409.75137329 55700388.124673
35757	1654590 6757 15153 24105 135.5 187.5 209 0.973 12.44402232946 632.49945310008 3500.5358321472
35756	1661347 6765 15153 24105 135.5 187.5 209 -4.0900497436523 2.5 42.415441513062 454.34295069592
35755	1668112 6959 15108 24105 135.25 187.5 210 0 16.75 2221.1748379096 29985.006327255
35754	1675071 7351 15063 24105 135 187.5 211 184.17810058594 734.30616760254 91780.943313599 44027680.045594
35753	1682422 7384 15063 24105 135 187.5 211 486.85000610352 486.85000610352 102725.35128784 50011837.901471
35750	1689806 7428 14247 24142 130.5 187.75 230 0.973 11.200708441096 607.2784808163 3024.9213455258
35749	1697234 7499 14247 24142 130.5 187.75 230 -3.7662296295166 2.5 35.455564498901 408.9575575852
35748	1704733 7813 14199 24142 130.25 187.75 231 0 15.02499961853 2227.3420065744 27520.450641534
35747	1712546 8113 14150 24142 130 187.75 232 177.64794921875 487.03186035156 92846.148223877 39109572.154996
35746	1720659 8111 14150 24142 130 187.75 232 237.04449462891 486.85000610352 104163.53573608 47899102.03893
vector 35865  IntersectionExampleScenario.node[65].veinsmobility  posx  ETV
vector 35866  IntersectionExampleScenario.node[65].veinsmobility  posy  ETV
vector 35867  IntersectionExampleScenario.node[65].veinsmobility  speed  ETV
vector 35868  IntersectionExampleScenario.node[65].veinsmobility  acceleration  ETV
vector 35869  IntersectionExampleScenario.node[65].veinsmobility  co2emission  ETV
35764	1729171 6331 16154 24515 141.5 190.25 196 0.973 11.794742348691 568.07330917406 2998.184271196
35763	1735502 6366 16154 24515 141.5 190.25 196 -2.4239044189453 2.5000009536743 38.511121749878 322.33657786339
35762	1741868 6663 16113 24515 141.25 190.25 197 2.4399561882019 15.853709220886 2218.7720160484 28844.229745971
35761	1748531 6892 16072 24515 141 190.25 198 184.17810058594 734.13865661621 86855.072463989 42355250.026357
35760	1755423 6929 16072 24515 141 190.25 198 486.85000610352 486.85000610352 96396.301208496 46930539.831713
vector 35872  IntersectionExampleScenario.node[66].veinsmobility  posx  ETV
vector 35873  IntersectionExampleScenario.node[66].veinsmobility  posy  ETV
vector 35874  IntersectionExampleScenario.node[66].veinsmobility  speed  ETV
vector 35879  IntersectionExampleScenario.node[67].veinsmobility  posx  ETV
vector 35880  IntersectionExampleScenario.node[67].veinsmobility  posy  ETV
vector 35875  IntersectionExampleScenario.node[66].veinsmobility  acceleration  ETV
vector 35876  IntersectionExampleScenario.node[66].veinsmobility  co2emission  ETV
vector 35881  IntersectionExampleScenario.node[67].veinsmobility  speed  ETV
vector 35882  IntersectionExampleScenario.node[67].veinsmobility  acceleration  ETV
vector 35883  IntersectionExampleScenario.node[67].veinsmobility  co2emission  ETV
vector 35886  IntersectionExampleScenario.node[68].veinsmobility  posx  ETV
vector 35887  IntersectionExampleScenario.node[68].veinsmobility  posy  ETV
vector 35888  IntersectionExampleScenario.node[68].veinsmobility  speed  ETV
vector 35889  IntersectionExampleScenario.node[68].veinsmobility  acceleration  ETV
vector 35890  IntersectionExampleScenario.node[68].veinsmobility  co2emission  ETV
vector 35893  IntersectionExampleScenario.node[69].veinsmobility  posx  ETV
vector 35894  IntersectionExampleScenario.node[69].veinsmobility  posy  ETV
vector 35895  IntersectionExampleScenario.node[69].veinsmobility  speed  ETV
vector 35896  IntersectionExampleScenario.node[69].veinsmobility  acceleration  ETV
vector 35897  IntersectionExampleScenario.node[69].veinsmobility  co2emission  ETV
vector 35900  IntersectionExampleScenario.node[70].veinsmobility  posx  ETV
vector 35901  IntersectionExampleScenario.node[70].veinsmobility  posy  ETV
35596	1764110 12485 9108 26190 90.5 201.25 444 0.973 11.648172402475 809.78691236005 3189.4364345119
35595	1776595 11030 9108 26190 90.5 201.25 444 -7.0929417610168 4 38.341367721558 482.03536989279
35594	1787625 11353 9085 26190 90.25 201.25 445 0 15.64999961853 2212.6930657625 31413.159395651
35593	1798978 15522 9062 26190 90 201.25 446 483.14999389648 483.14999389648 215484.89727783 104111526.80457
35592	1814500 15489 9062 26190 90 201.25 446 184.17810058594 733.41819763184 206730.45304871 100020172.45102
vector 35902  IntersectionExampleScenario.node[70].veinsmobility  speed  ETV
vector 35903  IntersectionExampleScenario.node[70].veinsmobility  acceleration  ETV
vector 35904  IntersectionExampleScenario.node[70].veinsmobility  co2emission  ETV
vector 35907  IntersectionExampleScenario.node[71].veinsmobility  posx  ETV
vector 35908  IntersectionExampleScenario.node[71].veinsmobility  posy  ETV
vector 35914  IntersectionExampleScenario.node[72].veinsmobility  posx  ETV
vector 35915  IntersectionExampleScenario.node[72].veinsmobility  posy  ETV
vector 35909  IntersectionExampleScenario.node[71].veinsmobility  speed  ETV
vector 35910  IntersectionExampleScenario.node[71].veinsmobility  acceleration  ETV
vector 35911  IntersectionExampleScenario.node[71].veinsmobility  co2emission  ETV
vector 35916  IntersectionExampleScenario.node[72].veinsmobility  speed  ETV
vector 35917  IntersectionExampleScenario.node[72].veinsmobility  acceleration  ETV
vector 35918  IntersectionExampleScenario.node[72].veinsmobility  co2emission  ETV
35617	1831038 12091 10019 26485 102 203.25 406 0.973 11.200708441096 747.94289816357 2838.1398270098
35616	1843129 11923 10019 26485 102 203.25 406 -3.7126798629761 2.5 36.134572982788 326.04394752354
35615	1855052 11910 10000 26485 101.75 203.25 407 0 15.02499961853 2214.0102520194 28559.472061261
35614	1866962 14274 9981 26485 101.5 203.25 408 483.14999389648 735.09936523438 205965.32072449 105268603.24826
35613	1881236 14237 9981 26485 101.5 203.25 408 184.17810058594 486.86560058594 178257.95913696 80115114.088826
vector 35921  IntersectionExampleScenario.node[73].veinsmobility  posx  ETV
vector 35922  IntersectionExampleScenario.node[73].veinsmobility  posy  ETV
vector 35923  IntersectionExampleScenario.node[73].veinsmobility  speed  ETV
35638	1895705 12508 10157 26825 103.75 205.5 408 0.973 11.36141391502 786.67129481705 3079.8324192398
35637	1908213 12472 10157 26825 103.75 205.5 408 -4.5 2.5 38.171613693237 432.24623453776
35636	1920685 12588 10134 26825 103.5 205.5 409 0 15.25 2258.9179527014 29013.279632341
35635	1933273 14343 10111 26825 103.25 205.5 410 237.63433837891 483.14999389648 189936.39678955 89158561.671656
35634	1947616 14314 10111 26825 103.25 205.5 410 164.94219970703 483.14999389648 175319.83026123 77456017.650334
vector 35924  IntersectionExampleScenario.node[73].veinsmobility  acceleration  ETV
vector 35925  IntersectionExampleScenario.node[73].veinsmobility  co2emission  ETV
vector 35928  IntersectionExampleScenario.node[74].veinsmobility  posx  ETV
vector 35929  IntersectionExampleScenario.node[74].veinsmobility  posy  ETV
vector 35930  IntersectionExampleScenario.node[74].veinsmobility  speed  ETV
vector 35931  IntersectionExampleScenario.node[74].veinsmobility  acceleration  ETV
vector 35932  IntersectionExampleScenario.node[74].veinsmobility  co2emission  ETV
35666	1962500 12342 10801 27249 109.75 208.25 395 0.973 11.648172402475 759.31207206478 3085.4836824819
35665	1974842 12373 10801 27249 109.75 208.25 395 -4.5 2.5000009536743 38.341367721558 400.75151410393
35664	1987215 12466 10770 27249 109.5 208.25 396 0 15.64999961853 2188.1284374716 28164.730176356
35663	1999681 13894 10739 27249 109.25 208.25 397 236.12097167969 483.14999389648 183569.38345337 86061872.026063
35662	2013575 13844 10739 27249 109.25 208.25 397 184.17810058594 483.14999389648 169864.38986206 74701755.095802
35680	2027419 12355 11251 27483 113.25 209.75 387 0.97223939240464 11.648172402475 775.74121893633 3259.7271479138
35679	2039774 12486 11251 27483 113.25 209.75 387 -3.7932846546173 2.5 38.680875778198 405.38538793507
35678	2052260 12559 11216 27483 113 209.75 388 0 15.64999961853 2246.2786541842 28991.795659201
35677	2064819 13592 11181 27483 112.75 209.75 389 483.14999389648 732.7939453125 196286.58837891 100252868.86728
35676	2078411 13572 11181 27483 112.75 209.75 389 174.53436279297 486.87969970703 164121.64071655 71423368.902873
vector 35935  IntersectionExampleScenario.node[75].veinsmobility  posx  ETV
vector 35936  IntersectionExampleScenario.node[75].veinsmobility  posy  ETV
vector 35937  IntersectionExampleScenario.node[75].veinsmobility  speed  ETV
35778	2092215 8834 16367 27719 142.75 211.25 275 0.973 11.990504229548 657.93573532897 3246.4531714883
35777	2101049 9314 16367 27719 142.75 211.25 275 -3.8221893310547 2.5 39.529638290405 369.78943982031
35776	2110363 9337 16322 27719 142.5 211.25 276 0 16.125 2217.7965379134 29531.520356955
35775	2119700 9696 16277 27719 142.25 211.25 277 483.14999389648 483.14999389648 133832.54830933 64661194.898802
35774	2129396 9656 16277 27719 142.25 211.25 277 184.17810058594 732.83380126953 122346.33502197 58150181.334194
vector 35938  IntersectionExampleScenario.node[75].veinsmobility  acceleration  ETV
vector 35939  IntersectionExampleScenario.node[75].veinsmobility  co2emission  ETV
vector 35942  IntersectionExampleScenario.node[76].veinsmobility  posx  ETV
vector 35943  IntersectionExampleScenario.node[76].veinsmobility  posy  ETV
vector 35944  IntersectionExampleScenario.node[76].veinsmobility  speed  ETV
vector 35945  IntersectionExampleScenario.node[76].veinsmobility  acceleration  ETV
vector 35946  IntersectionExampleScenario.node[76].veinsmobility  co2emission  ETV
35785	2139622 8591 16896 28173 145.75 214 274 0.973 11.648172402475 642.34420946864 3009.2307962533
35784	2148213 8689 16896 28173 145.75 214 274 -4.5 2.5 38.341367721558 466.81299021596
35783	2156902 8682 16851 28173 145.5 214 275 0 15.64999961853 2273.1267581284 30392.465478779
35782	2165584 9660 16806 28173 145.25 214 276 483.14999389648 483.14999389648 133349.39831543 64427760.982199
35781	2175244 9597 16806 28173 145.25 214 276 171.40313720703 734.40313720703 120614.9107666 57187030.455345
vector 35949  IntersectionExampleScenario.node[77].veinsmobility  posx  ETV
vector 35950  IntersectionExampleScenario.node[77].veinsmobility  posy  ETV
vector 35951  IntersectionExampleScenario.node[77].veinsmobility  speed  ETV
vector 35952  IntersectionExampleScenario.node[77].veinsmobility  acceleration  ETV
vector 35953  IntersectionExampleScenario.node[77].veinsmobility  co2emission  ETV
35799	2185242 8212 17625 28545 149.75 216.25 267 0.973 11.200708441096 620.59988230844 2753.0044164679
35798	2193454 8295 17625 28545 149.75 216.25 267 -3.6102793216705 2.5 37.32285118103 350.39720344576
35797	2201749 8401 17578 28545 149.5 216.25 268 0 15.184510231018 2268.6889546514 29366.814593475
35796	2210150 9416 17531 28545 149.25 216.25 269 483.14999389648 483.14999389648 129967.34835815 62793723.565984
35795	2219566 9373 17531 28545 149.25 216.25 269 171.59063720703 734.15657043457 116737.17181396 55218973.758891
35806	2228939 8440 17990 28741 151.75 217.5 264 0.973 11.200708441096 640.55688310146 2808.5523630781
35805	2237379 8928 17990 28741 151.75 217.5 264 -3.7221336364746 2.5000019073486 39.020376205444 321.37574587177
35804	2246307 9104 17943 28741 151.5 217.5 265 0 15.415159225464 2306.118172719 30015.264800512
35803	2255411 9311 17896 28741 151.25 217.5 266 483.14999389648 483.14999389648 128517.89837646 62093421.816178
35802	2264722 9248 17896 28741 151.25 217.5 266 159.78436279297 731.70684814453 113410.358078 53059034.177127
vector 35956  IntersectionExampleScenario.node[78].veinsmobility  posx  ETV
vector 35957  IntersectionExampleScenario.node[78].veinsmobility  posy  ETV
vector 35958  IntersectionExampleScenario.node[78].veinsmobility  speed  ETV
vector 35959  IntersectionExampleScenario.node[78].veinsmobility  acceleration  ETV
vector 35960  IntersectionExampleScenario.node[78].veinsmobility  co2emission  ETV
35820	2274371 8163 18676 29206 155.25 220.5 262 0.973 11.200708441096 609.36256249558 2638.3783882268
35819	2282534 8050 18676 29206 155.25 220.5 262 -4.5 2.5 35.795072555542 340.76973573289
35818	2290584 8303 18625 29206 155 220.5 263 0 15.02499961853 2306.3543372452 29530.389648277
35817	2298887 9240 18574 29206 154.75 220.5 264 483.14999389648 483.14999389648 127551.59838867 61626553.982973
35816	2308127 9205 18574 29206 154.75 220.5 264 162.33746337891 734.39921569824 113101.44540405 53337231.756955
35841	2317332 6858 20978 29468 168 222.25 218 0.973 11.648172402475 613.4212870807 3281.6605770174
35840	2324190 7138 20978 29468 168 222.25 218 -3.8527495861053 2.5 38.511121749878 394.37810859914
35839	2331328 7341 20935 29468 167.75 222.25 219 0 15.64999961853 2204.1326388717 27939.197101311
35838	2338669 7686 20892 29468 167.5 222.25 220 483.14999389648 732.34732055664 114626.39225769 60791280.303434
35837	2346355 7662 20892 29468 167.5 222.25 220 184.17810058594 486.87612915039 87431.397979736 36543634.885661
vector 35963  IntersectionExampleScenario.node[79].veinsmobility  posx  ETV
vector 35964  IntersectionExampleScenario.node[79].veinsmobility  posy  ETV
vector 35965  IntersectionExampleScenario.node[79].veinsmobility  speed  ETV
vector 35966  IntersectionExampleScenario.node[79].veinsmobility  acceleration  ETV
vector 35967  IntersectionExampleScenario.node[79].veinsmobility  co2emission  ETV
vector 35970  IntersectionExampleScenario.node[80].veinsmobility  posx  ETV
vector 35971  IntersectionExampleScenario.node[80].veinsmobility  posy  ETV
vector 35977  IntersectionExampleScenario.node[81].veinsmobility  posx  ETV
vector 35978  IntersectionExampleScenario.node[81].veinsmobility  posy  ETV
vector 35972  IntersectionExampleScenario.node[80].veinsmobility  speed  ETV
vector 35979  IntersectionExampleScenario.node[81].veinsmobility  speed  ETV
vector 35973  IntersectionExampleScenario.node[80].veinsmobility  acceleration  ETV
vector 35974  IntersectionExampleScenario.node[80].veinsmobility  co2emission  ETV
vector 35980  IntersectionExampleScenario.node[81].veinsmobility  acceleration  ETV
vector 35981  IntersectionExampleScenario.node[81].veinsmobility  co2emission  ETV
35876	2355220 5226 24630 30527 191 228.75 152 0.973 11.648172402475 476.72556722631 2492.501653983
35875	2360446 4635 24630 30527 191 228.75 152 -3.3434906005859 2.5 39.359884262085 196.83124836095
35874	2365081 5125 24591 30527 190.75 228.75 153 5.6500000953674 15.64999961853 2214.5847415924 32741.77757842
35873	2370206 5391 24552 30527 190.5 228.75 154 483.14999389648 483.14999389648 74405.099060059 35948823.156735
35872	2375597 5356 24552 30527 190.5 228.75 154 184.17810058594 732.55638122559 68967.614089966 34965322.677223
35708	2380953 12609 12185 30896 119.5 231 447 0.973 11.810082123732 819.99049147058 3289.7031840216
35707	2393562 11137 12185 30896 119.5 231 447 -7.2641291618347 4 39.699392318726 483.2908312258
35706	2404699 11409 12144 30896 119.25 231 448 0 15.875 2180.8750771284 31208.168482518
35705	2416108 15708 12103 30896 119 231 449 486.63604736328 785.82187652588 235633.92871857 125951479.87651
35704	2431816 15647 12103 30896 119 231 449 236.12365722656 483.14999389648 208871.48638916 98343644.96372
35792	2447463 10415 16990 31060 146.25 232 344 0.973 12.099024792222 721.2230867581 3322.4218351123
35791	2457878 10611 16990 31060 146.25 232 344 -3.7487018108368 2.5 40.038900375366 362.33079972972
35790	2468489 10550 16943 31060 146 232 345 0 16.27499961853 2221.5661256788 30346.64590217
35789	2479039 12077 16896 31060 145.75 232 346 235.42962646484 785.82187652588 177885.73404694 95575597.076098
35788	2491116 12109 16896 31060 145.75 232 346 483.14999389648 483.14999389648 167169.89788818 80768135.144352
35848	2503225 7673 21935 31347 174 233.75 240 0.973 12.553400930962 636.1867871804 3406.2361404046
35847	2510898 7927 21935 31347 174 233.75 240 -3.7029929161072 2.5 42.754949569702 364.3337006844
35846	2518825 8151 21894 31347 173.75 233.75 241 0 16.89999961853 2210.1191200875 30605.968472514
35845	2526976 8430 21853 31347 173.5 233.75 242 483.12509155273 785.82187652588 133757.43849945 75825766.923574
35844	2535406 8446 21853 31347 173.5 233.75 242 483.14999389648 733.49369812012 124821.00424194 65437703.199852
35862	2543852 7790 22449 31949 177.25 237.5 242 0.973 11.648172402475 613.48123429184 3027.8896938685
35861	2551642 7957 22449 31949 177.25 237.5 242 -4.5 2.5 38.341367721558 410.42560675223
35860	2559599 8182 22408 31949 177 237.5 243 0 15.64999961853 2230.2016934343 28856.613085913
35859	2567781 8514 22367 31949 176.75 237.5 244 486.85000610352 797.07032012939 136951.38339996 78923397.243843
35858	2576295 8540 22367 31949 176.75 237.5 244 236.38079833984 483.14999389648 109666.2026062 50360343.075565
vector 35984  IntersectionExampleScenario.node[82].veinsmobility  posx  ETV
vector 35985  IntersectionExampleScenario.node[82].veinsmobility  posy  ETV
vector 35986  IntersectionExampleScenario.node[82].veinsmobility  speed  ETV
vector 35987  IntersectionExampleScenario.node[82].veinsmobility  acceleration  ETV
vector 35988  IntersectionExampleScenario.node[82].veinsmobility  co2emission  ETV
vector 35991  IntersectionExampleScenario.node[83].veinsmobility  posx  ETV
vector 35992  IntersectionExampleScenario.node[83].veinsmobility  posy  ETV
vector 35993  IntersectionExampleScenario.node[83].veinsmobility  speed  ETV
vector 35994  IntersectionExampleScenario.node[83].veinsmobility  acceleration  ETV
vector 35995  IntersectionExampleScenario.node[83].veinsmobility  co2emission  ETV
vector 35998  IntersectionExampleScenario.node[84].veinsmobility  posx  ETV
vector 35999  IntersectionExampleScenario.node[84].veinsmobility  posy  ETV
vector 36000  IntersectionExampleScenario.node[84].veinsmobility  speed  ETV
vector 36001  IntersectionExampleScenario.node[84].veinsmobility  acceleration  ETV
vector 36002  IntersectionExampleScenario.node[84].veinsmobility  co2emission  ETV
35925	2586038 5263 26864 33059 205.75 244.5 156 0.973 12.099024792222 517.42100356905 3013.6467220553
35924	2591301 5111 26864 33059 205.75 244.5 156 -3.6235160827637 2.5 40.038900375366 304.94168341218
35923	2596412 5162 26825 33059 205.5 244.5 157 5.6500000953674 16.27499961853 2178.3548994064 31725.014465205
35922	2601574 5510 26786 33059 205.25 244.5 158 486.85000610352 785.82187652588 90487.240913391 53538377.373602
35921	2607084 5524 26786 33059 205.25 244.5 158 238.20092773438 483.14999389648 68440.249359131 30534934.371053
vector 36005  IntersectionExampleScenario.node[85].veinsmobility  posx  ETV
vector 36006  IntersectionExampleScenario.node[85].veinsmobility  posy  ETV
vector 36007  IntersectionExampleScenario.node[85].veinsmobility  speed  ETV
vector 36008  IntersectionExampleScenario.node[85].veinsmobility  acceleration  ETV
vector 36009  IntersectionExampleScenario.node[85].veinsmobility  co2emission  ETV
vector 36012  IntersectionExampleScenario.node[86].veinsmobility  posx  ETV
vector 36013  IntersectionExampleScenario.node[86].veinsmobility  posy  ETV
vector 36019  IntersectionExampleScenario.node[87].veinsmobility  posx  ETV
vector 36020  IntersectionExampleScenario.node[87].veinsmobility  posy  ETV
vector 36014  IntersectionExampleScenario.node[86].veinsmobility  speed  ETV
vector 36015  IntersectionExampleScenario.node[86].veinsmobility  acceleration  ETV
vector 36016  IntersectionExampleScenario.node[86].veinsmobility  co2emission  ETV
vector 36021  IntersectionExampleScenario.node[87].veinsmobility  speed  ETV
vector 36022  IntersectionExampleScenario.node[87].veinsmobility  acceleration  ETV
vector 36023  IntersectionExampleScenario.node[87].veinsmobility  co2emission  ETV
vector 36026  IntersectionExampleScenario.node[88].veinsmobility  posx  ETV
vector 36027  IntersectionExampleScenario.node[88].veinsmobility  posy  ETV
vector 36028  IntersectionExampleScenario.node[88].veinsmobility  speed  ETV
35946	2614043 5342 28050 34331 213.25 252 156 0.973 11.54047740176 466.15982120664 2342.423113526
35945	2619385 4684 28050 34331 213.25 252 156 -3.0623931884766 2.5 37.492597579956 180.55984296702
35944	2624069 5263 28008 34331 213 252 157 5.6500000953674 15.5 2221.0238161087 32010.779935585
35943	2629332 5518 27965 34331 212.75 252 158 235.65802001953 785.82187652588 82274.189613342 47050363.778562
35942	2634850 5529 27965 34331 212.75 252 158 483.14999389648 483.14999389648 76337.699035645 36882558.823143
vector 36029  IntersectionExampleScenario.node[88].veinsmobility  acceleration  ETV
vector 36030  IntersectionExampleScenario.node[88].veinsmobility  co2emission  ETV
vector 36033  IntersectionExampleScenario.node[89].veinsmobility  posx  ETV
vector 36034  IntersectionExampleScenario.node[89].veinsmobility  posy  ETV
vector 36035  IntersectionExampleScenario.node[89].veinsmobility  speed  ETV
vector 36036  IntersectionExampleScenario.node[89].veinsmobility  acceleration  ETV
vector 36037  IntersectionExampleScenario.node[89].veinsmobility  co2emission  ETV
vector 36040  IntersectionExampleScenario.node[90].veinsmobility  posx  ETV
vector 36041  IntersectionExampleScenario.node[90].veinsmobility  posy  ETV
vector 36042  IntersectionExampleScenario.node[90].veinsmobility  speed  ETV
35960	2641181 5118 29011 35103 219.25 256.5 150 0.973 11.54047740176 488.55334891144 2488.8542580528
35959	2646299 4773 29011 35103 219.25 256.5 150 -3.2900581359863 2.5 41.057416915894 194.63587512236
35958	2651072 5049 28972 35103 219 256.5 151 5.6500000953674 15.966786384583 2222.9993772507 33505.323270497
35957	2656121 5301 28933 35103 218.75 256.5 152 235.40209960938 785.82187652588 79370.53289032 45504607.603332
35956	2661422 5320 28933 35103 218.75 256.5 152 483.14999389648 483.14999389648 73438.799072266 35481955.32353
vector 36043  IntersectionExampleScenario.node[90].veinsmobility  acceleration  ETV
vector 36044  IntersectionExampleScenario.node[90].veinsmobility  co2emission  ETV
vector 36047  IntersectionExampleScenario.node[91].veinsmobility  posx  ETV
vector 36048  IntersectionExampleScenario.node[91].veinsmobility  posy  ETV
vector 36049  IntersectionExampleScenario.node[91].veinsmobility  speed  ETV
vector 36050  IntersectionExampleScenario.node[91].veinsmobility  acceleration  ETV
vector 36051  IntersectionExampleScenario.node[91].veinsmobility  co2emission  ETV
35771	2667312 13486 16367 36120 142.75 262.5 480 0.973 11.36141391502 831.65071886766 3057.8482168219
35770	2680798 11924 16367 36120 142.75 262.5 480 -7.9789566993713 4 37.15309715271 473.35935936743
35769	2692722 12164 16322 36120 142.5 262.5 481 0 15.25 2177.0072950125 30111.329904074
35768	2704886 16809 16277 36120 142.25 262.5 482 486.85000610352 733.15849304199 242999.04138184 123728852.60246
35767	2721695 16865 16277 36120 142.25 262.5 482 486.63604736328 785.82187652588 252379.19768524 134499951.1347
35813	2738560 12995 18182 36237 152.75 263.25 443 0.973 11.90022389248 811.68507395635 3273.9385117235
35812	2751555 12842 18182 36237 152.75 263.25 443 -3.9657552242279 2.5 39.699392318726 354.49909068568
35811	2764397 12658 18133 36237 152.5 263.25 444 0 16 2205.1302716667 29707.346300644
35810	2777055 15562 18084 36237 152.25 263.25 445 237.5888671875 486.85000610352 208466.77963257 98867245.5122
35809	2792617 15562 18084 36237 152.25 263.25 445 483.13439941406 785.82187652588 235907.17588043 127269318.49013
35827	2808179 13269 18779 36627 155.75 265.75 441 0.973 11.648172402475 834.50653737446 3294.550102637
35826	2821448 13377 18779 36627 155.75 265.75 441 -4.5 2.5000004768372 41.227170944214 418.6923290532
35825	2834825 13184 18728 36627 155.5 265.75 442 0 16.017774581909 2243.0067949602 29834.773352887
35824	2848009 15503 18676 36627 155.25 265.75 443 486.85000610352 734.75688171387 223636.64002991 114061174.8826
35823	2863512 15481 18676 36627 155.25 265.75 443 486.83529663086 798.59687805176 238353.05822754 130580729.51096
vector 36054  IntersectionExampleScenario.node[92].veinsmobility  posx  ETV
vector 36055  IntersectionExampleScenario.node[92].veinsmobility  posy  ETV
vector 36056  IntersectionExampleScenario.node[92].veinsmobility  speed  ETV
vector 36057  IntersectionExampleScenario.node[92].veinsmobility  acceleration  ETV
vector 36058  IntersectionExampleScenario.node[92].veinsmobility  co2emission  ETV
35855	2879394 11579 21935 37066 174 268.5 379 0.97223939240464 11.648172402475 740.4573865695 3056.4526733683
35854	2890973 11518 21935 37066 174 268.5 379 -3.8143889904022 2.5 38.680875778198 330.37108583418
35853	2902491 11671 21894 37066 173.75 268.5 380 0 15.64999961853 2190.0375151793 28414.560995222
35852	2914162 13324 21853 37066 173.5 268.5 381 486.85000610352 734.20652770996 193702.9601593 99652789.34589
35851	2927486 13319 21853 37066 173.5 268.5 381 486.85000610352 785.82187652588 206769.35941315 114224793.8169
vector 36061  IntersectionExampleScenario.node[93].veinsmobility  posx  ETV
vector 36062  IntersectionExampleScenario.node[93].veinsmobility  posy  ETV
vector 36063  IntersectionExampleScenario.node[93].veinsmobility  speed  ETV
vector 36064  IntersectionExampleScenario.node[93].veinsmobility  acceleration  ETV
vector 36065  IntersectionExampleScenario.node[93].veinsmobility  co2emission  ETV
35869	2941206 10273 24330 37402 189 270.5 327 0.973 11.648172402475 693.92494600164 3091.49824702
35868	2951479 10774 24330 37402 189 270.5 327 -3.8815834522247 2.5 39.020376205444 334.32119031771
35867	2962253 10569 24292 37402 188.75 270.5 328 0 15.804180145264 2183.8219996477 28228.637571614
35866	2972822 11507 24253 37402 188.5 270.5 329 486.85000610352 732.76570129395 168251.9813385 87165767.779892
35865	2984329 11489 24253 37402 188.5 270.5 329 486.85000610352 785.82187652588 180881.15483856 101367271.50933
35890	2995818 10150 25104 37703 194 272.25 314 0.973 11.200708441096 666.13050123068 2834.9322783849
35889	3005968 10427 25104 37703 194 272.25 314 -3.8076705932617 2.5000009536743 36.813589096069 361.26322893951
35888	3016395 10543 25065 37703 193.75 272.25 315 0 15.02499961853 2213.8781365883 28734.68897847
35887	3026938 11060 25025 37703 193.5 272.25 316 486.85000610352 486.85000610352 153844.60192871 74899245.387986
35886	3037998 11036 25025 37703 193.5 272.25 316 237.53247070312 785.82187652588 166642.86174774 92109244.980586
vector 36068  IntersectionExampleScenario.node[94].veinsmobility  posx  ETV
vector 36069  IntersectionExampleScenario.node[94].veinsmobility  posy  ETV
vector 36070  IntersectionExampleScenario.node[94].veinsmobility  speed  ETV
vector 36071  IntersectionExampleScenario.node[94].veinsmobility  acceleration  ETV
vector 36072  IntersectionExampleScenario.node[94].veinsmobility  co2emission  ETV
35918	3049435 8545 26485 38050 203.25 274.25 285 0.973 12.099024792222 683.86559550179 3513.6177475748
35917	3057980 8691 26485 38050 203.25 274.25 285 -3.7771646976471 2.5 41.566686630249 456.30335995919
35916	3066671 8794 26446 38050 203 274.25 286 0 16.27499961853 2183.3236088268 28506.538743981
35915	3075465 10042 26407 38050 202.75 274.25 287 486.85000610352 732.64111328125 147506.47619629 76868761.030764
35914	3085507 10022 26407 38050 202.75 274.25 287 486.76968383789 785.82187652588 160621.49126434 91690459.214938
35932	3095529 8369 27093 38394 207.25 276.25 277 0.973 12.099024792222 670.24693980341 3392.4031284064
35931	3103898 8263 27093 38394 207.25 276.25 277 -4.5 2.5 41.566686630249 437.88398379595
35930	3112161 8431 27054 38394 207 276.25 278 0 16.27499961853 2207.4782014489 29473.099340942
35929	3120592 9763 27015 38394 206.75 276.25 279 486.85000610352 732.69763183594 143615.39552307 74977069.576131
35928	3130355 9739 27015 38394 206.75 276.25 279 486.74554443359 792.02188110352 157189.81246185 90422830.197319
35953	3140094 7976 28299 38757 214.75 278.5 256 0.973 11.450879080643 612.91281448132 2953.5861852036
35952	3148070 8662 28299 38757 214.75 278.5 256 -2.7840614318848 2.5 37.15309715271 314.88127996852
35951	3156732 8700 28257 38757 214.5 278.5 257 0 15.375 2200.0671953412 27307.043255212
35950	3165432 9027 28214 38757 214.25 278.5 258 238.20092773438 486.85000610352 117137.15335083 54308757.987325
35949	3174459 9012 28214 38757 214.25 278.5 258 483.12094116211 785.82187652588 146255.08744049 84750330.849947
vector 36075  IntersectionExampleScenario.node[95].veinsmobility  posx  ETV
vector 36076  IntersectionExampleScenario.node[95].veinsmobility  posy  ETV
vector 36077  IntersectionExampleScenario.node[95].veinsmobility  speed  ETV
vector 36078  IntersectionExampleScenario.node[95].veinsmobility  acceleration  ETV
vector 36079  IntersectionExampleScenario.node[95].veinsmobility  co2emission  ETV
vector 36082  IntersectionExampleScenario.node[96].veinsmobility  posx  ETV
vector 36083  IntersectionExampleScenario.node[96].veinsmobility  posy  ETV
vector 36084  IntersectionExampleScenario.node[96].veinsmobility  speed  ETV
vector 36085  IntersectionExampleScenario.node[96].veinsmobility  acceleration  ETV
vector 36086  IntersectionExampleScenario.node[96].veinsmobility  co2emission  ETV
36023	3184273 5462 34115 40466 250.75 290.75 161 0.973 11.648172402475 504.02056081734 2741.7311863497
36022	3189735 5338 34115 40466 250.75 290.75 161 -3.802526473999 2.5 37.662351608276 287.94832457558
36021	3195073 5350 34072 40466 250.5 290.75 162 5.6500000953674 15.64999961853 2192.0545401573 30950.038284377
36020	3200423 5699 34029 40466 250.25 290.75 163 486.85000610352 735.31195068359 87775.564483643 48222631.933652
36019	3206122 5698 34029 40466 250.25 290.75 163 486.79382324219 785.82187652588 93246.53037262 55097135.361565
35834	3211820 14125 20851 40745 167.25 293 504 0.973 11.200708441096 855.43122354466 2977.5157853825
35833	3225945 12411 20851 40745 167.25 293 504 -6.771110534668 4 36.98334312439 441.36741913443
35832	3238356 12896 20810 40745 167 293 505 0 15.02499961853 2212.5438280106 30552.527622203
35831	3251252 17672 20769 40745 166.75 293 506 184.17810058594 733.31687927246 235062.78587341 113467729.68152
35830	3268924 17709 20769 40745 166.75 293 506 486.85000610352 486.85000610352 246346.10308838 119933601.79216
35897	3286633 11665 25639 40891 197.5 294.25 388 0.973 11.200708441096 728.08404563498 2811.8470863257
35896	3298298 11627 25639 40891 197.5 294.25 388 -3.877375125885 2.5 35.795072555542 326.37580147681
35895	3309925 11578 25600 40891 197.25 294.25 389 0 15.02499961853 2209.1660832511 28361.583104147
35894	3321503 13613 25561 40891 197 294.25 390 184.17810058594 486.86560058594 169839.04891968 76183786.716685
[...]
vector 39387  IntersectionExampleScenario.node[568].veinsmobility  posy  ETV
vector 39388  IntersectionExampleScenario.node[568].veinsmobility  speed  ETV
vector 39389  IntersectionExampleScenario.node[568].veinsmobility  acceleration  ETV
vector 39390  IntersectionExampleScenario.node[568].veinsmobility  co2emission  ETV
39257	29276291 7262 285221 293823 1709.5 1763.75 218 0.973 11.450879080643 593.62782770267 3121.3603514194
39256	29283553 7683 285221 293823 1709.5 1763.75 218 -3.8560256958008 2.5 37.15309715271 358.89023695582
39255	29291236 7814 285188 293823 1709.25 1763.75 219 1.100109577179 15.375 2198.4234703779 27478.153963831
39254	29299050 8116 285155 293823 1709 1763.75 220 184.17810058594 487.04632568359 87744.716308594 36811721.189093
39253	29307166 8136 285155 293823 1709 1763.75 220 238.33374023438 486.85000610352 98647.83380127 45310308.019689
39264	29315302 7420 285390 293892 1710.75 1764.25 215 0.973 11.54047740176 634.95975396901 3274.5164311771
39263	29322722 7502 285390 293892 1710.75 1764.25 215 -4.5 2.5 40.378400802612 419.85887007825
39262	29330224 7759 285355 293892 1710.5 1764.25 216 2.367439031601 15.781670570374 2300.3478419781 30041.693264542
39261	29337983 7997 285320 293892 1710.25 1764.25 217 162.90466308594 733.20751953125 92072.69670105 43726373.87726
39260	29345980 8030 285320 293892 1710.25 1764.25 217 486.84997558594 486.85000610352 105646.45129395 51433975.442414
vector 39393  IntersectionExampleScenario.node[569].veinsmobility  posx  ETV
vector 39394  IntersectionExampleScenario.node[569].veinsmobility  posy  ETV
vector 39395  IntersectionExampleScenario.node[569].veinsmobility  speed  ETV
vector 39396  IntersectionExampleScenario.node[569].veinsmobility  acceleration  ETV
vector 39397  IntersectionExampleScenario.node[569].veinsmobility  co2emission  ETV
39292	29354416 6326 286754 294232 1719.75 1766.75 189 0.973 11.648172402475 562.22190452017 3092.0820315765
39291	29360742 6573 286754 294232 1719.75 1766.75 189 -3.1837501525879 2.5 39.869146347046 298.43286184444
39290	29367315 6738 286711 294232 1719.5 1766.75 190 4.867359161377 15.655902862549 2205.5511665344 28224.952672263
39289	29374053 7039 286668 294232 1719.25 1766.75 191 184.17810058594 486.87966918945 75481.134674072 31632981.245043
39288	29381092 7067 286668 294232 1719.25 1766.75 191 237.25897216797 486.85000610352 84798.881896973 38657823.380155
39299	29388159 6527 286887 294367 1720.5 1767.75 190 0.973 12.646770485974 621.04456714231 3527.2990251429
39298	29394686 6585 286887 294367 1720.5 1767.75 190 -2.9892234802246 2.5 45.511266708374 327.01059372729
39297	29401271 6776 286842 294367 1720.25 1767.75 191 5.6500000953674 17.027816772461 2305.6449179649 30447.894851507
39296	29408047 7070 286797 294367 1720 1767.75 192 161.1796875 486.85000610352 73966.396606445 30631138.506867
39295	29415117 7101 286797 294367 1720 1767.75 192 235.53399658203 486.85000610352 85547.485809326 39112621.612707
vector 39400  IntersectionExampleScenario.node[570].veinsmobility  posx  ETV
vector 39401  IntersectionExampleScenario.node[570].veinsmobility  posy  ETV
vector 39402  IntersectionExampleScenario.node[570].veinsmobility  speed  ETV
vector 39403  IntersectionExampleScenario.node[570].veinsmobility  acceleration  ETV
vector 39404  IntersectionExampleScenario.node[570].veinsmobility  co2emission  ETV
vector 39407  IntersectionExampleScenario.node[571].veinsmobility  posx  ETV
vector 39408  IntersectionExampleScenario.node[571].veinsmobility  posy  ETV
vector 39409  IntersectionExampleScenario.node[571].veinsmobility  speed  ETV
vector 39410  IntersectionExampleScenario.node[571].veinsmobility  acceleration  ETV
vector 39411  IntersectionExampleScenario.node[571].veinsmobility  co2emission  ETV
39145	29423030 14317 277701 295201 1655 1774 477 0.973 11.90022389248 850.03807981817 3355.4950366765
39144	29437347 12832 277701 295201 1655 1774 477 -9.0596437454224 4 39.359884262085 505.50740959224
39143	29450179 13043 277670 295201 1654.75 1774 478 0 16 2214.564473629 31814.548510874
39142	29463222 17722 277639 295201 1654.5 1774 479 483.14999389648 483.14999389648 231428.84707642 111814846.05244
39141	29480944 17683 277639 295201 1654.5 1774 479 184.17810058594 733.46641540527 222250.05377197 107276090.82028
39187	29498627 12971 279973 295341 1672.5 1775 411 0.973 12.099024792222 793.44844727773 3401.4154671665
39186	29511598 12512 279973 295341 1672.5 1775 411 -3.7638394832611 2.5 41.396924972534 361.95152878024
39185	29524110 12749 279936 295341 1672.25 1775 412 0 16.27499961853 2209.4086080836 30327.328794165
39184	29536859 15269 279901 295341 1672 1775 413 483.14999389648 733.48168945312 207592.47801208 105529223.01141
39183	29552128 15237 279901 295341 1672 1775 413 184.17810058594 486.86557006836 180998.49279785 81485923.333308
39278	29567365 8559 286075 295726 1715.5 1777.75 250 0.973 11.648172402475 612.12190296508 2955.7680217739
39277	29575924 8910 286075 295726 1715.5 1777.75 250 -3.9347198009491 2.5000009536743 38.341367721558 340.89414576674
39276	29584834 9037 286036 295726 1715.25 1777.75 251 0 15.64999961853 2220.6252821665 29550.450694974
39275	29593871 9324 285997 295726 1715 1777.75 252 483.14999389648 483.14999389648 121753.79846191 58825346.983747
39274	29603195 9270 285997 295726 1715 1777.75 252 184.17810058594 734.16784667969 113434.83288574 55239894.557428
vector 39414  IntersectionExampleScenario.node[572].veinsmobility  posx  ETV
vector 39415  IntersectionExampleScenario.node[572].veinsmobility  posy  ETV
vector 39416  IntersectionExampleScenario.node[572].veinsmobility  speed  ETV
vector 39417  IntersectionExampleScenario.node[572].veinsmobility  acceleration  ETV
vector 39418  IntersectionExampleScenario.node[572].veinsmobility  co2emission  ETV
39306	29612871 7364 287786 296036 1725.75 1780 218 0.973 11.90022389248 588.00640489146 3083.1698154325
39305	29620235 7590 287786 296036 1725.75 1780 218 -3.8846912384033 2.5000009536743 39.869146347046 341.51582087302
39304	29627825 7797 287741 296036 1725.5 1780 219 0 16 2210.2334515713 29186.772156809
39303	29635622 8134 287698 296036 1725.25 1780 220 483.14999389648 733.33129882812 114515.75221252 60670905.143803
39302	29643756 8106 287698 296036 1725.25 1780 220 184.17810058594 486.86376953125 90132.137634277 38783553.938834
39320	29651862 7782 288240 296666 1728.25 1784.5 226 0.973 11.200708441096 591.71230195688 2851.570576036
39319	29659644 7778 288240 296666 1728.25 1784.5 226 -4.5 2.5000009536743 35.285810470581 501.73111725787
39318	29667422 8011 288193 296666 1728 1784.5 227 0 15.02499961853 2254.1331732422 28743.97563477
39317	29675433 8426 288146 296666 1727.75 1784.5 228 235.10675048828 483.14999389648 101439.24923706 46236414.984508
39316	29683859 8405 288146 296666 1727.75 1784.5 228 168.58435058594 483.14999389648 91974.49899292 39238416.052566
39334	29692264 7025 289493 296946 1735.5 1786.5 205 0.973 11.200708441096 573.90564584057 2884.3491791204
39333	29699289 6954 289493 296946 1735.5 1786.5 205 -4.5 2.5000009536743 37.15309715271 414.43756811914
39332	29706243 7283 289450 296946 1735.25 1786.5 206 0 15.02499961853 2189.420338897 28160.385909357
39331	29713526 7638 289407 296946 1735 1786.5 207 236.07598876953 483.14999389648 91609.963134766 41580884.117398
39330	29721164 7633 289407 296946 1735 1786.5 207 184.17810058594 483.24133300781 83752.453125 35705648.022667
vector 39421  IntersectionExampleScenario.node[573].veinsmobility  posx  ETV
vector 39422  IntersectionExampleScenario.node[573].veinsmobility  posy  ETV
vector 39423  IntersectionExampleScenario.node[573].veinsmobility  speed  ETV
vector 39424  IntersectionExampleScenario.node[573].veinsmobility  acceleration  ETV
vector 39425  IntersectionExampleScenario.node[573].veinsmobility  co2emission  ETV
39376	29729203 5659 292590 297998 1755.25 1794.5 158 0.973 11.810082123732 513.853418107 2927.4787912045
39375	29734862 5531 292590 297998 1755.25 1794.5 158 -3.38916015625 2.5 39.529638290405 288.74774470122
39374	29740393 5545 292553 297998 1755 1794.5 159 5.6500000953674 15.875 2189.2407445908 31611.415034535
39373	29745938 5906 292516 297998 1754.75 1794.5 160 235.50604248047 483.14999389648 69174.753662109 30830651.110692
39372	29751844 5897 292516 297998 1754.75 1794.5 160 184.17810058594 483.15615844727 63632.71395874 27039725.972872
vector 39428  IntersectionExampleScenario.node[574].veinsmobility  posx  ETV
vector 39429  IntersectionExampleScenario.node[574].veinsmobility  posy  ETV
vector 39430  IntersectionExampleScenario.node[574].veinsmobility  speed  ETV
vector 39431  IntersectionExampleScenario.node[574].veinsmobility  acceleration  ETV
vector 39432  IntersectionExampleScenario.node[574].veinsmobility  co2emission  ETV
vector 39435  IntersectionExampleScenario.node[575].veinsmobility  posx  ETV
vector 39436  IntersectionExampleScenario.node[575].veinsmobility  posy  ETV
vector 39437  IntersectionExampleScenario.node[575].veinsmobility  speed  ETV
vector 39438  IntersectionExampleScenario.node[575].veinsmobility  acceleration  ETV
vector 39439  IntersectionExampleScenario.node[575].veinsmobility  co2emission  ETV
39215	29758553 13723 281776 298629 1685.25 1800 460 0.973 11.450879080643 792.57721380469 2996.0094961646
39214	29772276 12314 281776 298629 1685.25 1800 460 -8.2099418640137 4 36.813604354858 486.56962067081
39213	29784590 12463 281739 298629 1685 1800 461 0 15.375 1938.3800053596 26697.632239913
39212	29797053 17071 281702 298629 1684.75 1800 462 304.73065185547 785.82187652588 238073.36493683 125876938.85448
39211	29814124 17093 281702 298629 1684.75 1800 462 483.14999389648 483.14999389648 223215.29718018 107846469.4702
39250	29831217 11885 284720 298629 1705.75 1800 378 0.95785320846514 12.353032912318 742.71852003261 3424.1233485164
39249	29843102 11868 284720 298629 1705.75 1800 378 -3.8024570941925 2.5 42.076253890991 371.331683178
39248	29854970 11694 284685 298629 1705.5 1800 379 0 16.625 1896.6553310091 25534.59501164
39247	29866664 13902 284650 298629 1705.25 1800 380 483.13433837891 785.82187652588 203324.79627228 110888639.55339
39246	29880566 14056 284650 298629 1705.25 1800 380 483.14999389648 655.24682617188 187434.73443604 92850092.119817
39271	29894622 9985 285849 298629 1714 1800 345 0.973 11.648172402475 512.89686122345 1682.1424415017
39270	29904607 9018 285849 298629 1714 1800 345 -7.7750473022461 2.5 -22.60000038147 320.25519313237
39269	29913625 9171 285812 298629 1713.75 1800 346 0 15.64999961853 1146.6267495155 16088.567755537
39268	29922796 12838 285775 298629 1713.5 1800 347 486.85000610352 486.85000610352 168936.95211792 82246956.169719
39267	29935634 12827 285775 298629 1713.5 1800 347 498.39999389648 785.82187652588 185761.44052887 101586995.83383
39285	29948461 10446 286586 298629 1718.75 1800 326 0.973 11.648172402475 647.83036700168 2912.0921112831
39284	29958907 10624 286586 298629 1718.75 1800 326 -3.7782235145569 2.5000009536743 38.172574996948 353.84433749576
39283	29969531 10568 286545 298629 1718.5 1800 327 0 15.64999961853 1665.7035711771 20544.622350348
39282	29980099 12113 286504 298629 1718.25 1800 328 486.85000610352 785.82187652588 179137.03023529 99790983.273413
39281	29992212 12133 286504 298629 1718.25 1800 328 366.77380371094 483.14999389648 156534.80541992 74840279.701579
39313	30004345 9135 287831 298629 1726 1800 297 0.97223939240464 11.648172402475 458.61105695324 1603.6442655962
39312	30013480 9499 287831 298629 1726 1800 297 -3.8517127037048 2.5 -22.60000038147 195.08693697076
39311	30022979 9328 287786 298629 1725.75 1800 298 0 15.64999961853 1123.1370264348 14079.112481873
39310	30032307 11062 287741 298629 1725.5 1800 299 486.85000610352 486.85000610352 145568.15182495 70869855.604455
39309	30043369 11042 287741 298629 1725.5 1800 299 504.79803466797 785.82187652588 163857.83618927 91714750.753864
39327	30054411 8253 289279 298629 1734.25 1800 264 0.973 12.099024792222 437.28576353063 1761.8889069587
39326	30062664 8693 289279 298629 1734.25 1800 264 -3.8335452079773 2.5 -22.60000038147 213.12028949097
39325	30071357 8713 289236 298629 1734 1800 265 0 16.27499961853 1096.5426606648 13368.719371681
39324	30080070 9841 289193 298629 1733.75 1800 266 486.85000610352 486.85000610352 129502.10162354 63048098.965836
39323	30089911 9540 289193 298629 1733.75 1800 266 511.1953125 785.82187652588 148515.84729767 84642624.596582
39341	30099451 8059 290080 298629 1739 1800 245 0.973 11.648172402475 403.25545728094 1530.2962147872
39340	30107510 8568 290080 298629 1739 1800 245 -4.5 2.5 -22.60000038147 264.00807241266
39339	30116078 8421 290037 298629 1738.75 1800 246 0 15.64999961853 1071.3770200666 13634.252886524
39338	30124499 9138 289994 298629 1738.5 1800 247 486.85000610352 486.85000610352 120251.95150757 58544663.325419
39337	30133637 9110 289994 298629 1738.5 1800 247 517.59399414062 785.82187652588 139634.33541107 80547593.811056
39348	30142747 7950 290455 298629 1741.25 1800 236 0.973 11.648172402475 552.44946431892 2808.0373653767
39347	30150697 8457 290455 298629 1741.25 1800 236 -3.7620575428009 2.5 38.523431777954 341.41505918337
39346	30159154 8390 290412 298629 1741 1800 237 0 15.64999961853 1565.9440509463 19149.544384318
39345	30167544 8789 290369 298629 1740.75 1800 238 483.14999389648 785.82187652588 133934.77295685 77102231.190332
39344	30176333 8801 290369 298629 1740.75 1800 238 483.14999389648 572.28848266602 116155.27282715 56750978.422013
39355	30185134 7963 290624 298629 1742.25 1800 232 0.973 11.648172402475 562.49771753897 2829.1036834017
39354	30193097 8242 290624 298629 1742.25 1800 232 -4.5 2.5 35.89999961853 488.79510103193
39353	30201339 8299 290581 298629 1742 1800 233 0 15.64999961853 1455.3043205626 17377.267793698
39352	30209638 8628 290538 298629 1741.75 1800 234 486.6979675293 807.99687957764 134839.18018341 79624894.798425
39351	30218266 8657 290538 298629 1741.75 1800 234 441.14739990234 483.14999389648 112696.91397095 54284989.28188
39362	30226923 6545 292017 298629 1751.25 1800 196 0.973 11.648172402475 456.28710493848 2304.621835223
39361	30233468 6921 292017 298629 1751.25 1800 196 -4.2067756652832 2.5 23.89999961853 352.82815200638
39360	30240389 7065 291980 298629 1751 1800 197 0 15.64999961853 1303.0980922002 14797.597803201
39359	30247454 7307 291942 298629 1750.75 1800 198 483.14999389648 785.82187652588 115169.70322418 68415889.507805
39358	30254761 7309 291942 298629 1750.75 1800 198 483.14999389648 507.76953125 95809.500061035 46363177.805557
39369	30262070 5958 292017 298629 1751.25 1800 196 0.973 12.099024792222 379.6496361632 1692.7582877481
39368	30268028 5571 292017 298629 1751.25 1800 196 -9.2126979827881 2.5 -22.60000038147 359.32273087512
39367	30273599 5713 291980 298629 1751 1800 197 0 16.27499961853 1148.341971159 16700.33465789
39366	30279312 7294 291942 298629 1750.75 1800 198 184.17810058594 471.60000610352 80902.817779541 34830367.532477
39365	30286606 7325 291942 298629 1750.75 1800 198 486.85000610352 486.85000610352 96396.301208496 46930539.831713
39383	30293931 5654 292964 298629 1757.75 1800 170 0.973 12.099024792222 355.05010676735 1680.6558606704
39382	30299585 6393 292964 298629 1757.75 1800 170 -3.6896152496338 2.5 -22.60000038147 227.24380118608
39381	30305978 6220 292925 298629 1757.5 1800 171 0 16.640092849731 1122.516075043 15444.991746721
39380	30312198 6331 292886 298629 1757.25 1800 172 184.17810058594 465.20004272461 67847.676879883 28284922.660254
39379	30318529 6364 292886 298629 1757.25 1800 172 486.85000610352 486.85000610352 83738.201049805 40767943.692195
39390	30324893 4964 293613 298629 1762.25 1800 152 0.973 12.099024792222 321.72552287735 1594.3565152315
39389	30329857 5652 293613 298629 1762.25 1800 152 -3.7939202785492 2.5 -21.775263905525 222.36930442673
39388	30335509 5633 293578 298629 1762 1800 153 0 16.27499961853 1094.0357172713 13613.697403419
39387	30341142 5650 293542 298629 1761.75 1800 154 184.17810058594 458.23101806641 58229.412872314 23307895.470883
39386	30346792 5697 293542 298629 1761.75 1800 154 486.85000610352 486.85000610352 74974.900939941 36501530.980221
39397	30352489 4436 294127 298629 1766 1800 137 0.973 11.200708441096 282.55162921742 1289.4516410159
39396	30356925 5099 294127 298629 1766 1800 137 -3.8085587024689 2.5 -22.404043376446 181.27195052655
39395	30362024 5058 294092 298629 1765.75 1800 138 0 15.02499961853 1044.3901188355 12523.034614076
39394	30367082 5142 294057 298629 1765.5 1800 139 486.85000610352 486.85000610352 67672.150848389 32946187.053576
39393	30372224 5130 294057 298629 1765.5 1800 139 524.56701660156 785.82187652588 84517.726142883 52486958.96947
39404	30377354 3792 294789 298629 1771 1800 117 0.973 12.099024792222 300.86457235738 1611.498340013
39403	30381146 3786 294789 298629 1771 1800 117 -7.2880620956421 2.5 -22.60000038147 328.44024444759
39402	30384932 3903 294756 298629 1770.75 1800 118 0 16.27499961853 1146.85648489 16607.342126703
39401	30388835 4402 294723 298629 1770.5 1800 119 483.14999389648 483.14999389648 57494.849273682 27778636.075658
39400	30393237 4377 294723 298629 1770.5 1800 119 184.17810058594 471.60000610352 43609.0078125 17230245.357931
39411	30397614 3466 294991 298629 1772.5 1800 111 0.973 10.756497587458 234.94638117936 1103.9872237354
39410	30401080 4138 294991 298629 1772.5 1800 111 -2.4534873962402 2.5 -17.28813123703 151.7414250686
39409	30405218 4131 294956 298629 1772.25 1800 112 1.3279672861099 14.39999961853 1006.8252140284 11574.973681026
39408	30409349 4179 294921 298629 1772 1800 113 486.85000610352 486.85000610352 55014.050689697 26783590.914058
39407	30413528 4172 294921 298629 1772 1800 113 534.25750732422 785.82187652588 71468.270584106 46004926.871121
39418	30417700 2840 295931 298629 1779.25 1800 84 0.973 11.200708441096 234.47593981136 1253.6952072491
39417	30420540 3085 295931 298629 1779.25 1800 84 -2.1178741455078 2.5 -1.6997737884521 154.84213230759
39416	30423625 3127 295896 298629 1779 1800 85 5.2250566482544 15.02499961853 1033.2655801773 13438.07519124
39415	30426752 3181 295861 298629 1778.75 1800 86 483.14999389648 483.14999389648 41550.899475098 20075316.827787
39414	30429933 3156 295861 298629 1778.75 1800 86 184.17810058594 440.76950073242 27161.411254883 9180186.3590839
39425	30433089 1564 297360 298629 1789.5 1800 43 0.973 11.200708441096 175.43247726248 1156.0471960913
39424	30434653 1514 297360 298629 1789.5 1800 43 -0.46867370605469 2.5 35.625905990601 94.252055477704
39423	30436167 1617 297326 298629 1789.25 1800 44 5.6500000953674 15.02499961853 574.3827381134 7816.664020545
39422	30437784 1663 297291 298629 1789 1800 45 486.85000610352 486.85000610352 21908.250274658 10666031.779935
39421	30439447 1659 297291 298629 1789 1800 45 647.08219909668 785.82187652588 32606.784721375 23712783.320652
39432	30441106 329 298399 298629 1798 1800 9 5.2162187258585 8.5795037135332 62.00095089838 437.72442123158
39431	30441435 235 298399 298629 1798 1800 9 2.4999980926514 2.5 22.499998092651 56.24999046326
39430	30441670 366 298370 298629 1797.75 1800 10 5.6500000953674 11.27499961853 84.624998092651 748.36558556557
39429	30442036 406 298341 298629 1797.5 1800 11 486.85000610352 486.85000610352 5355.3500671387 2607252.2128729
39428	30442442 406 298341 298629 1797.5 1800 11 768.18751525879 785.82187652588 8565.2438354492 6669776.5751947
39439	30442848 73 298599 298629 1799.75 1800 2 5.2162187258585 5.6304533568076 10.846672082666 58.910942799184
39438	30442921 49 298599 298629 1799.75 1800 2 2.5 2.5 5 12.5
39437	30442970 110 298570 298629 1799.5 1800 3 5.6500000953674 6.9000000953674 18.825000286102 118.90812859058
39436	30443080 148 298541 298629 1799.25 1800 4 184.17810058594 187.00311279297 740.87182617188 137228.20185051
39435	30443228 148 298541 298629 1799.25 1800 4 486.85000610352 486.85000610352 1947.4000244141 948091.71377197
35406	30443376 645 0 298628 0 1800 31 0 35 783 21165
35407	30444021 666 0 298628 0 1800 31 0 345 5433 1315979
