version 2
run nodebug-19-20200606-14:39:20-18812
attr configname nodebug
attr datetime 20200606-14:39:20
attr experiment nodebug
attr inifile omnetpp.ini
attr iterationvars ""
attr iterationvars2 $repetition=19
attr measurement ""
attr network "\"org.car2x.veins.modules.application.ExtTraCIScenarioManagerLaunchd.IntersectionExampleScenario\""
attr processid 18812
attr repetition 19
attr replication #19
attr resultdir results
attr runnumber 19
attr seedset 19
param **.coreDebug false
param **.debug false
param *.**.nic.mac1609_4.bitrate 18Mbps
param *.**.nic.mac1609_4.txPower 20mW
param *.**.nic.mac1609_4.useServiceChannel false
param *.**.nic.phy80211p.analogueModels "xmldoc(\"config.xml\")"
param *.**.nic.phy80211p.decider "xmldoc(\"config.xml\")"
param *.**.nic.phy80211p.sensitivity -89dBm
param *.**.nic.phy80211p.thermalNoise -110dBm
param *.**.nic.phy80211p.usePropagationDelay true
param *.**.nic.phy80211p.useThermalNoise true
param *.annotations.draw false
param *.connectionManager.alpha 2.0
param *.connectionManager.carrierFrequency "5.890e9 Hz"
param *.connectionManager.pMax 20mW
param *.connectionManager.sat -89dBm
param *.connectionManager.sendDirect true
param *.manager.autoShutdown true
param *.manager.host "\"localhost\""
param *.manager.launchConfig "xmldoc(\"paramics.launchd.xml\")"
param *.manager.margin 25
param *.manager.moduleDisplayString "\"\""
param *.manager.moduleName "\"node\""
param *.manager.moduleType "\"org.car2x.veins.nodes.Car\""
param *.manager.port 9999
param *.manager.updateInterval 250ms
param *.node[*0].veinsmobility.accidentCount 0
param *.node[*0].veinsmobility.accidentDuration 30s
param *.node[*0].veinsmobility.accidentStart 75s
param *.node[*].appl.LiderSelectZoneRadio 55.0
param *.node[*].appl.ShareDataZoneRadio 110.0
param *.node[*].appl.TiempoSemaforo 30.0
param *.node[*].appl.beaconInterval 1s
param *.node[*].appl.beaconPriority 3
param *.node[*].appl.dataOnSch false
param *.node[*].appl.dataPriority 2
param *.node[*].appl.debug false
param *.node[*].appl.headerLength "256 bit"
param *.node[*].appl.maxOffset 0.005s
param *.node[*].appl.sendBeacons false
param *.node[*].appl.sendData true
param *.node[*].applType "\"Dummy\""
param *.node[*].mobilityType "\"TraCIMobility\""
param *.node[*].mobilityType.debug true
param *.node[*].veinsmobility.x 0
param *.node[*].veinsmobility.y 0
param *.node[*].veinsmobility.z 1.895
param *.node[*].veinsmobilityType "\"org.car2x.veins.modules.mobility.traci.TraCIMobility\""
param *.node[*].veinsmobilityType.debug true
param *.playgroundSizeX 8500m
param *.playgroundSizeY 8500m
param *.playgroundSizeZ 50m
param *.world.use2D false
param *.world.useTorus false

scalar IntersectionExampleScenario.node[0].appl 	VehicleRemoved 	0
scalar IntersectionExampleScenario.node[0].appl 	ArrivedAtDest 	1
scalar IntersectionExampleScenario.node[0].appl 	IntersectionEnterTime 	2.75
scalar IntersectionExampleScenario.node[0].appl 	IntersectionExitTime 	27.017266461276
scalar IntersectionExampleScenario.node[0].appl 	NumberOfCollisions 	0
scalar IntersectionExampleScenario.node[0].nic.phy80211p 	busyTime 	0
scalar IntersectionExampleScenario.node[0].nic.mac1609_4 	ReceivedUnicastPackets 	0
scalar IntersectionExampleScenario.node[0].nic.mac1609_4 	ReceivedBroadcasts 	0
scalar IntersectionExampleScenario.node[0].nic.mac1609_4 	SentPackets 	0
scalar IntersectionExampleScenario.node[0].nic.mac1609_4 	SNIRLostPackets 	0
scalar IntersectionExampleScenario.node[0].nic.mac1609_4 	RXTXLostPackets 	0
scalar IntersectionExampleScenario.node[0].nic.mac1609_4 	TotalLostPackets 	0
scalar IntersectionExampleScenario.node[0].nic.mac1609_4 	DroppedPacketsInMac 	0
scalar IntersectionExampleScenario.node[0].nic.mac1609_4 	TooLittleTime 	0
scalar IntersectionExampleScenario.node[0].nic.mac1609_4 	TimesIntoBackoff 	0
scalar IntersectionExampleScenario.node[0].nic.mac1609_4 	SlotsBackoff 	0
scalar IntersectionExampleScenario.node[0].nic.mac1609_4 	NumInternalContention 	0
scalar IntersectionExampleScenario.node[0].nic.mac1609_4 	totalBusyTime 	0
scalar IntersectionExampleScenario.node[0].veinsmobility 	startTime 	2.75
scalar IntersectionExampleScenario.node[0].veinsmobility 	totalTime 	41.5
scalar IntersectionExampleScenario.node[0].veinsmobility 	stopTime 	44.5
scalar IntersectionExampleScenario.node[0].veinsmobility 	minSpeed 	5.6500000953674
scalar IntersectionExampleScenario.node[0].veinsmobility 	maxSpeed 	15.25
scalar IntersectionExampleScenario.node[0].veinsmobility 	totalDistance 	544.5915744346
scalar IntersectionExampleScenario.node[0].veinsmobility 	totalCO2Emission 	123.87938089771
scalar IntersectionExampleScenario.node[1].appl 	VehicleRemoved 	0
scalar IntersectionExampleScenario.node[1].appl 	ArrivedAtDest 	1
scalar IntersectionExampleScenario.node[1].appl 	IntersectionEnterTime 	3
scalar IntersectionExampleScenario.node[1].appl 	IntersectionExitTime 	36.350824224792
scalar IntersectionExampleScenario.node[1].appl 	NumberOfCollisions 	0
scalar IntersectionExampleScenario.node[1].nic.phy80211p 	busyTime 	0
scalar IntersectionExampleScenario.node[1].nic.mac1609_4 	ReceivedUnicastPackets 	0
scalar IntersectionExampleScenario.node[1].nic.mac1609_4 	ReceivedBroadcasts 	0
scalar IntersectionExampleScenario.node[1].nic.mac1609_4 	SentPackets 	0
scalar IntersectionExampleScenario.node[1].nic.mac1609_4 	SNIRLostPackets 	0
scalar IntersectionExampleScenario.node[1].nic.mac1609_4 	RXTXLostPackets 	0
scalar IntersectionExampleScenario.node[1].nic.mac1609_4 	TotalLostPackets 	0
scalar IntersectionExampleScenario.node[1].nic.mac1609_4 	DroppedPacketsInMac 	0
scalar IntersectionExampleScenario.node[1].nic.mac1609_4 	TooLittleTime 	0
scalar IntersectionExampleScenario.node[1].nic.mac1609_4 	TimesIntoBackoff 	0
scalar IntersectionExampleScenario.node[1].nic.mac1609_4 	SlotsBackoff 	0
scalar IntersectionExampleScenario.node[1].nic.mac1609_4 	NumInternalContention 	0
scalar IntersectionExampleScenario.node[1].nic.mac1609_4 	totalBusyTime 	0
scalar IntersectionExampleScenario.node[1].veinsmobility 	startTime 	3
scalar IntersectionExampleScenario.node[1].veinsmobility 	totalTime 	49.25
scalar IntersectionExampleScenario.node[1].veinsmobility 	stopTime 	52.5
scalar IntersectionExampleScenario.node[1].veinsmobility 	minSpeed 	0
scalar IntersectionExampleScenario.node[1].veinsmobility 	maxSpeed 	15.64999961853
scalar IntersectionExampleScenario.node[1].veinsmobility 	totalDistance 	549.41294206729
scalar IntersectionExampleScenario.node[1].veinsmobility 	totalCO2Emission 	141.81654036771
scalar IntersectionExampleScenario.node[3].appl 	VehicleRemoved 	0
scalar IntersectionExampleScenario.node[3].appl 	ArrivedAtDest 	1
scalar IntersectionExampleScenario.node[3].appl 	IntersectionEnterTime 	14.5
scalar IntersectionExampleScenario.node[3].appl 	IntersectionExitTime 	44.31245740797
scalar IntersectionExampleScenario.node[3].appl 	NumberOfCollisions 	0
scalar IntersectionExampleScenario.node[3].nic.phy80211p 	busyTime 	0
scalar IntersectionExampleScenario.node[3].nic.mac1609_4 	ReceivedUnicastPackets 	0
scalar IntersectionExampleScenario.node[3].nic.mac1609_4 	ReceivedBroadcasts 	0
scalar IntersectionExampleScenario.node[3].nic.mac1609_4 	SentPackets 	0
scalar IntersectionExampleScenario.node[3].nic.mac1609_4 	SNIRLostPackets 	0
scalar IntersectionExampleScenario.node[3].nic.mac1609_4 	RXTXLostPackets 	0
scalar IntersectionExampleScenario.node[3].nic.mac1609_4 	TotalLostPackets 	0
scalar IntersectionExampleScenario.node[3].nic.mac1609_4 	DroppedPacketsInMac 	0
scalar IntersectionExampleScenario.node[3].nic.mac1609_4 	TooLittleTime 	0
scalar IntersectionExampleScenario.node[3].nic.mac1609_4 	TimesIntoBackoff 	0
scalar IntersectionExampleScenario.node[3].nic.mac1609_4 	SlotsBackoff 	0
scalar IntersectionExampleScenario.node[3].nic.mac1609_4 	NumInternalContention 	0
scalar IntersectionExampleScenario.node[3].nic.mac1609_4 	totalBusyTime 	0
scalar IntersectionExampleScenario.node[3].veinsmobility 	startTime 	14.5
scalar IntersectionExampleScenario.node[3].veinsmobility 	totalTime 	46.25
scalar IntersectionExampleScenario.node[3].veinsmobility 	stopTime 	61
scalar IntersectionExampleScenario.node[3].veinsmobility 	minSpeed 	0
scalar IntersectionExampleScenario.node[3].veinsmobility 	maxSpeed 	15.375
scalar IntersectionExampleScenario.node[3].veinsmobility 	totalDistance 	550.78079332461
scalar IntersectionExampleScenario.node[3].veinsmobility 	totalCO2Emission 	135.47521031976
scalar IntersectionExampleScenario.node[6].appl 	VehicleRemoved 	0
scalar IntersectionExampleScenario.node[6].appl 	ArrivedAtDest 	1
scalar IntersectionExampleScenario.node[6].appl 	IntersectionEnterTime 	22.25
scalar IntersectionExampleScenario.node[6].appl 	IntersectionExitTime 	47.343769518106
scalar IntersectionExampleScenario.node[6].appl 	NumberOfCollisions 	0
scalar IntersectionExampleScenario.node[6].nic.phy80211p 	busyTime 	0
scalar IntersectionExampleScenario.node[6].nic.mac1609_4 	ReceivedUnicastPackets 	0
scalar IntersectionExampleScenario.node[6].nic.mac1609_4 	ReceivedBroadcasts 	0
scalar IntersectionExampleScenario.node[6].nic.mac1609_4 	SentPackets 	0
scalar IntersectionExampleScenario.node[6].nic.mac1609_4 	SNIRLostPackets 	0
scalar IntersectionExampleScenario.node[6].nic.mac1609_4 	RXTXLostPackets 	0
scalar IntersectionExampleScenario.node[6].nic.mac1609_4 	TotalLostPackets 	0
scalar IntersectionExampleScenario.node[6].nic.mac1609_4 	DroppedPacketsInMac 	0
scalar IntersectionExampleScenario.node[6].nic.mac1609_4 	TooLittleTime 	0
scalar IntersectionExampleScenario.node[6].nic.mac1609_4 	TimesIntoBackoff 	0
scalar IntersectionExampleScenario.node[6].nic.mac1609_4 	SlotsBackoff 	0
scalar IntersectionExampleScenario.node[6].nic.mac1609_4 	NumInternalContention 	0
scalar IntersectionExampleScenario.node[6].nic.mac1609_4 	totalBusyTime 	0
scalar IntersectionExampleScenario.node[6].veinsmobility 	startTime 	22.25
scalar IntersectionExampleScenario.node[6].veinsmobility 	totalTime 	41.75
scalar IntersectionExampleScenario.node[6].veinsmobility 	stopTime 	64.25
scalar IntersectionExampleScenario.node[6].veinsmobility 	minSpeed 	5.6500000953674
scalar IntersectionExampleScenario.node[6].veinsmobility 	maxSpeed 	15.875
scalar IntersectionExampleScenario.node[6].veinsmobility 	totalDistance 	546.18646047888
scalar IntersectionExampleScenario.node[6].veinsmobility 	totalCO2Emission 	138.56493486226
scalar IntersectionExampleScenario.node[2].appl 	VehicleRemoved 	0
scalar IntersectionExampleScenario.node[2].appl 	ArrivedAtDest 	1
scalar IntersectionExampleScenario.node[2].appl 	IntersectionEnterTime 	10
scalar IntersectionExampleScenario.node[2].appl 	IntersectionExitTime 	51.31862842897
scalar IntersectionExampleScenario.node[2].appl 	NumberOfCollisions 	0
scalar IntersectionExampleScenario.node[2].nic.phy80211p 	busyTime 	0
scalar IntersectionExampleScenario.node[2].nic.mac1609_4 	ReceivedUnicastPackets 	0
scalar IntersectionExampleScenario.node[2].nic.mac1609_4 	ReceivedBroadcasts 	0
scalar IntersectionExampleScenario.node[2].nic.mac1609_4 	SentPackets 	0
scalar IntersectionExampleScenario.node[2].nic.mac1609_4 	SNIRLostPackets 	0
scalar IntersectionExampleScenario.node[2].nic.mac1609_4 	RXTXLostPackets 	0
scalar IntersectionExampleScenario.node[2].nic.mac1609_4 	TotalLostPackets 	0
scalar IntersectionExampleScenario.node[2].nic.mac1609_4 	DroppedPacketsInMac 	0
scalar IntersectionExampleScenario.node[2].nic.mac1609_4 	TooLittleTime 	0
scalar IntersectionExampleScenario.node[2].nic.mac1609_4 	TimesIntoBackoff 	0
scalar IntersectionExampleScenario.node[2].nic.mac1609_4 	SlotsBackoff 	0
scalar IntersectionExampleScenario.node[2].nic.mac1609_4 	NumInternalContention 	0
scalar IntersectionExampleScenario.node[2].nic.mac1609_4 	totalBusyTime 	0
scalar IntersectionExampleScenario.node[2].veinsmobility 	startTime 	10
scalar IntersectionExampleScenario.node[2].veinsmobility 	totalTime 	57.25
scalar IntersectionExampleScenario.node[2].veinsmobility 	stopTime 	67.5
scalar IntersectionExampleScenario.node[2].veinsmobility 	minSpeed 	0
scalar IntersectionExampleScenario.node[2].veinsmobility 	maxSpeed 	15.64999961853
scalar IntersectionExampleScenario.node[2].veinsmobility 	totalDistance 	554.18717956543
scalar IntersectionExampleScenario.node[2].veinsmobility 	totalCO2Emission 	150.39819230539
scalar IntersectionExampleScenario.node[4].appl 	VehicleRemoved 	0
scalar IntersectionExampleScenario.node[4].appl 	ArrivedAtDest 	1
scalar IntersectionExampleScenario.node[4].appl 	IntersectionEnterTime 	15
scalar IntersectionExampleScenario.node[4].appl 	IntersectionExitTime 	53.336040923168
scalar IntersectionExampleScenario.node[4].appl 	NumberOfCollisions 	0
scalar IntersectionExampleScenario.node[4].nic.phy80211p 	busyTime 	0
scalar IntersectionExampleScenario.node[4].nic.mac1609_4 	ReceivedUnicastPackets 	0
scalar IntersectionExampleScenario.node[4].nic.mac1609_4 	ReceivedBroadcasts 	0
scalar IntersectionExampleScenario.node[4].nic.mac1609_4 	SentPackets 	0
scalar IntersectionExampleScenario.node[4].nic.mac1609_4 	SNIRLostPackets 	0
scalar IntersectionExampleScenario.node[4].nic.mac1609_4 	RXTXLostPackets 	0
scalar IntersectionExampleScenario.node[4].nic.mac1609_4 	TotalLostPackets 	0
scalar IntersectionExampleScenario.node[4].nic.mac1609_4 	DroppedPacketsInMac 	0
scalar IntersectionExampleScenario.node[4].nic.mac1609_4 	TooLittleTime 	0
scalar IntersectionExampleScenario.node[4].nic.mac1609_4 	TimesIntoBackoff 	0
scalar IntersectionExampleScenario.node[4].nic.mac1609_4 	SlotsBackoff 	0
scalar IntersectionExampleScenario.node[4].nic.mac1609_4 	NumInternalContention 	0
scalar IntersectionExampleScenario.node[4].nic.mac1609_4 	totalBusyTime 	0
scalar IntersectionExampleScenario.node[4].veinsmobility 	startTime 	15
scalar IntersectionExampleScenario.node[4].veinsmobility 	totalTime 	54.25
scalar IntersectionExampleScenario.node[4].veinsmobility 	stopTime 	69.5
scalar IntersectionExampleScenario.node[4].veinsmobility 	minSpeed 	0
scalar IntersectionExampleScenario.node[4].veinsmobility 	maxSpeed 	15.64999961853
scalar IntersectionExampleScenario.node[4].veinsmobility 	totalDistance 	553.74714660645
scalar IntersectionExampleScenario.node[4].veinsmobility 	totalCO2Emission 	145.25066120335
scalar IntersectionExampleScenario.node[10].appl 	VehicleRemoved 	0
scalar IntersectionExampleScenario.node[10].appl 	ArrivedAtDest 	1
scalar IntersectionExampleScenario.node[10].appl 	IntersectionEnterTime 	33.5
scalar IntersectionExampleScenario.node[10].appl 	IntersectionExitTime 	56.762545936421
scalar IntersectionExampleScenario.node[10].appl 	NumberOfCollisions 	0
scalar IntersectionExampleScenario.node[10].nic.phy80211p 	busyTime 	0
scalar IntersectionExampleScenario.node[10].nic.mac1609_4 	ReceivedUnicastPackets 	0
scalar IntersectionExampleScenario.node[10].nic.mac1609_4 	ReceivedBroadcasts 	0
scalar IntersectionExampleScenario.node[10].nic.mac1609_4 	SentPackets 	0
scalar IntersectionExampleScenario.node[10].nic.mac1609_4 	SNIRLostPackets 	0
scalar IntersectionExampleScenario.node[10].nic.mac1609_4 	RXTXLostPackets 	0
scalar IntersectionExampleScenario.node[10].nic.mac1609_4 	TotalLostPackets 	0
scalar IntersectionExampleScenario.node[10].nic.mac1609_4 	DroppedPacketsInMac 	0
scalar IntersectionExampleScenario.node[10].nic.mac1609_4 	TooLittleTime 	0
scalar IntersectionExampleScenario.node[10].nic.mac1609_4 	TimesIntoBackoff 	0
scalar IntersectionExampleScenario.node[10].nic.mac1609_4 	SlotsBackoff 	0
scalar IntersectionExampleScenario.node[10].nic.mac1609_4 	NumInternalContention 	0
scalar IntersectionExampleScenario.node[10].nic.mac1609_4 	totalBusyTime 	0
scalar IntersectionExampleScenario.node[10].veinsmobility 	startTime 	33.5
scalar IntersectionExampleScenario.node[10].veinsmobility 	totalTime 	39.5
scalar IntersectionExampleScenario.node[10].veinsmobility 	stopTime 	73.25
scalar IntersectionExampleScenario.node[10].veinsmobility 	minSpeed 	5.6500000953674
scalar IntersectionExampleScenario.node[10].veinsmobility 	maxSpeed 	15.5
scalar IntersectionExampleScenario.node[10].veinsmobility 	totalDistance 	552.6658782959
scalar IntersectionExampleScenario.node[10].veinsmobility 	totalCO2Emission 	119.74489435122
scalar IntersectionExampleScenario.node[5].appl 	VehicleRemoved 	0
scalar IntersectionExampleScenario.node[5].appl 	ArrivedAtDest 	1
scalar IntersectionExampleScenario.node[5].appl 	IntersectionEnterTime 	16.25
scalar IntersectionExampleScenario.node[5].appl 	IntersectionExitTime 	58.576004287344
scalar IntersectionExampleScenario.node[5].appl 	NumberOfCollisions 	0
scalar IntersectionExampleScenario.node[5].nic.phy80211p 	busyTime 	0
scalar IntersectionExampleScenario.node[5].nic.mac1609_4 	ReceivedUnicastPackets 	0
scalar IntersectionExampleScenario.node[5].nic.mac1609_4 	ReceivedBroadcasts 	0
scalar IntersectionExampleScenario.node[5].nic.mac1609_4 	SentPackets 	0
scalar IntersectionExampleScenario.node[5].nic.mac1609_4 	SNIRLostPackets 	0
scalar IntersectionExampleScenario.node[5].nic.mac1609_4 	RXTXLostPackets 	0
scalar IntersectionExampleScenario.node[5].nic.mac1609_4 	TotalLostPackets 	0
scalar IntersectionExampleScenario.node[5].nic.mac1609_4 	DroppedPacketsInMac 	0
scalar IntersectionExampleScenario.node[5].nic.mac1609_4 	TooLittleTime 	0
scalar IntersectionExampleScenario.node[5].nic.mac1609_4 	TimesIntoBackoff 	0
scalar IntersectionExampleScenario.node[5].nic.mac1609_4 	SlotsBackoff 	0
scalar IntersectionExampleScenario.node[5].nic.mac1609_4 	NumInternalContention 	0
scalar IntersectionExampleScenario.node[5].nic.mac1609_4 	totalBusyTime 	0
scalar IntersectionExampleScenario.node[5].veinsmobility 	startTime 	16.25
scalar IntersectionExampleScenario.node[5].veinsmobility 	totalTime 	60.25
scalar IntersectionExampleScenario.node[5].veinsmobility 	stopTime 	76.75
scalar IntersectionExampleScenario.node[5].veinsmobility 	minSpeed 	0
scalar IntersectionExampleScenario.node[5].veinsmobility 	maxSpeed 	14.39999961853
scalar IntersectionExampleScenario.node[5].veinsmobility 	totalDistance 	544.62026883513
scalar IntersectionExampleScenario.node[5].veinsmobility 	totalCO2Emission 	142.13160924828
scalar IntersectionExampleScenario.node[8].appl 	VehicleRemoved 	0
scalar IntersectionExampleScenario.node[8].appl 	ArrivedAtDest 	1
scalar IntersectionExampleScenario.node[8].appl 	IntersectionEnterTime 	30.25
scalar IntersectionExampleScenario.node[8].appl 	IntersectionExitTime 	60.521576620347
scalar IntersectionExampleScenario.node[8].appl 	NumberOfCollisions 	0
scalar IntersectionExampleScenario.node[8].nic.phy80211p 	busyTime 	0
scalar IntersectionExampleScenario.node[8].nic.mac1609_4 	ReceivedUnicastPackets 	0
scalar IntersectionExampleScenario.node[8].nic.mac1609_4 	ReceivedBroadcasts 	0
scalar IntersectionExampleScenario.node[8].nic.mac1609_4 	SentPackets 	0
scalar IntersectionExampleScenario.node[8].nic.mac1609_4 	SNIRLostPackets 	0
scalar IntersectionExampleScenario.node[8].nic.mac1609_4 	RXTXLostPackets 	0
scalar IntersectionExampleScenario.node[8].nic.mac1609_4 	TotalLostPackets 	0
scalar IntersectionExampleScenario.node[8].nic.mac1609_4 	DroppedPacketsInMac 	0
scalar IntersectionExampleScenario.node[8].nic.mac1609_4 	TooLittleTime 	0
scalar IntersectionExampleScenario.node[8].nic.mac1609_4 	TimesIntoBackoff 	0
scalar IntersectionExampleScenario.node[8].nic.mac1609_4 	SlotsBackoff 	0
scalar IntersectionExampleScenario.node[8].nic.mac1609_4 	NumInternalContention 	0
scalar IntersectionExampleScenario.node[8].nic.mac1609_4 	totalBusyTime 	0
scalar IntersectionExampleScenario.node[8].veinsmobility 	startTime 	30.25
scalar IntersectionExampleScenario.node[8].veinsmobility 	totalTime 	46.5
scalar IntersectionExampleScenario.node[8].veinsmobility 	stopTime 	77
scalar IntersectionExampleScenario.node[8].veinsmobility 	minSpeed 	2.4387016296387
scalar IntersectionExampleScenario.node[8].veinsmobility 	maxSpeed 	15.64999961853
scalar IntersectionExampleScenario.node[8].veinsmobility 	totalDistance 	550.5826562697
scalar IntersectionExampleScenario.node[8].veinsmobility 	totalCO2Emission 	135.42334617332
scalar IntersectionExampleScenario.node[11].appl 	VehicleRemoved 	0
scalar IntersectionExampleScenario.node[11].appl 	ArrivedAtDest 	1
scalar IntersectionExampleScenario.node[11].appl 	IntersectionEnterTime 	33.75
scalar IntersectionExampleScenario.node[11].appl 	IntersectionExitTime 	62.530519801949
scalar IntersectionExampleScenario.node[11].appl 	NumberOfCollisions 	0
scalar IntersectionExampleScenario.node[11].nic.phy80211p 	busyTime 	0
scalar IntersectionExampleScenario.node[11].nic.mac1609_4 	ReceivedUnicastPackets 	0
scalar IntersectionExampleScenario.node[11].nic.mac1609_4 	ReceivedBroadcasts 	0
scalar IntersectionExampleScenario.node[11].nic.mac1609_4 	SentPackets 	0
scalar IntersectionExampleScenario.node[11].nic.mac1609_4 	SNIRLostPackets 	0
scalar IntersectionExampleScenario.node[11].nic.mac1609_4 	RXTXLostPackets 	0
scalar IntersectionExampleScenario.node[11].nic.mac1609_4 	TotalLostPackets 	0
scalar IntersectionExampleScenario.node[11].nic.mac1609_4 	DroppedPacketsInMac 	0
scalar IntersectionExampleScenario.node[11].nic.mac1609_4 	TooLittleTime 	0
scalar IntersectionExampleScenario.node[11].nic.mac1609_4 	TimesIntoBackoff 	0
scalar IntersectionExampleScenario.node[11].nic.mac1609_4 	SlotsBackoff 	0
scalar IntersectionExampleScenario.node[11].nic.mac1609_4 	NumInternalContention 	0
scalar IntersectionExampleScenario.node[11].nic.mac1609_4 	totalBusyTime 	0
scalar IntersectionExampleScenario.node[11].veinsmobility 	startTime 	33.75
scalar IntersectionExampleScenario.node[11].veinsmobility 	totalTime 	44
scalar IntersectionExampleScenario.node[11].veinsmobility 	stopTime 	78
scalar IntersectionExampleScenario.node[11].veinsmobility 	minSpeed 	4.2369151115417
scalar IntersectionExampleScenario.node[11].veinsmobility 	maxSpeed 	16.125
scalar IntersectionExampleScenario.node[11].veinsmobility 	totalDistance 	561.65331268311
scalar IntersectionExampleScenario.node[11].veinsmobility 	totalCO2Emission 	146.00897047999
scalar IntersectionExampleScenario.node[7].appl 	VehicleRemoved 	0
scalar IntersectionExampleScenario.node[7].appl 	ArrivedAtDest 	1
scalar IntersectionExampleScenario.node[7].appl 	IntersectionEnterTime 	28.75
scalar IntersectionExampleScenario.node[7].appl 	IntersectionExitTime 	68.336232309899
scalar IntersectionExampleScenario.node[7].appl 	NumberOfCollisions 	0
scalar IntersectionExampleScenario.node[7].nic.phy80211p 	busyTime 	0
scalar IntersectionExampleScenario.node[7].nic.mac1609_4 	ReceivedUnicastPackets 	0
scalar IntersectionExampleScenario.node[7].nic.mac1609_4 	ReceivedBroadcasts 	0
scalar IntersectionExampleScenario.node[7].nic.mac1609_4 	SentPackets 	0
scalar IntersectionExampleScenario.node[7].nic.mac1609_4 	SNIRLostPackets 	0
scalar IntersectionExampleScenario.node[7].nic.mac1609_4 	RXTXLostPackets 	0
scalar IntersectionExampleScenario.node[7].nic.mac1609_4 	TotalLostPackets 	0
scalar IntersectionExampleScenario.node[7].nic.mac1609_4 	DroppedPacketsInMac 	0
scalar IntersectionExampleScenario.node[7].nic.mac1609_4 	TooLittleTime 	0
scalar IntersectionExampleScenario.node[7].nic.mac1609_4 	TimesIntoBackoff 	0
scalar IntersectionExampleScenario.node[7].nic.mac1609_4 	SlotsBackoff 	0
scalar IntersectionExampleScenario.node[7].nic.mac1609_4 	NumInternalContention 	0
scalar IntersectionExampleScenario.node[7].nic.mac1609_4 	totalBusyTime 	0
scalar IntersectionExampleScenario.node[7].veinsmobility 	startTime 	28.75
scalar IntersectionExampleScenario.node[7].veinsmobility 	totalTime 	55.75
scalar IntersectionExampleScenario.node[7].veinsmobility 	stopTime 	84.75
scalar IntersectionExampleScenario.node[7].veinsmobility 	minSpeed 	0
scalar IntersectionExampleScenario.node[7].veinsmobility 	maxSpeed 	15.375
scalar IntersectionExampleScenario.node[7].veinsmobility 	totalDistance 	549.86319841495
scalar IntersectionExampleScenario.node[7].veinsmobility 	totalCO2Emission 	146.05502979812
scalar IntersectionExampleScenario.node[9].appl 	VehicleRemoved 	0
scalar IntersectionExampleScenario.node[9].appl 	ArrivedAtDest 	1
scalar IntersectionExampleScenario.node[9].appl 	IntersectionEnterTime 	32.5
scalar IntersectionExampleScenario.node[9].appl 	IntersectionExitTime 	75.588883371092
scalar IntersectionExampleScenario.node[9].appl 	NumberOfCollisions 	0
scalar IntersectionExampleScenario.node[9].nic.phy80211p 	busyTime 	0
scalar IntersectionExampleScenario.node[9].nic.mac1609_4 	ReceivedUnicastPackets 	0
scalar IntersectionExampleScenario.node[9].nic.mac1609_4 	ReceivedBroadcasts 	0
scalar IntersectionExampleScenario.node[9].nic.mac1609_4 	SentPackets 	0
scalar IntersectionExampleScenario.node[9].nic.mac1609_4 	SNIRLostPackets 	0
scalar IntersectionExampleScenario.node[9].nic.mac1609_4 	RXTXLostPackets 	0
scalar IntersectionExampleScenario.node[9].nic.mac1609_4 	TotalLostPackets 	0
scalar IntersectionExampleScenario.node[9].nic.mac1609_4 	DroppedPacketsInMac 	0
scalar IntersectionExampleScenario.node[9].nic.mac1609_4 	TooLittleTime 	0
scalar IntersectionExampleScenario.node[9].nic.mac1609_4 	TimesIntoBackoff 	0
scalar IntersectionExampleScenario.node[9].nic.mac1609_4 	SlotsBackoff 	0
scalar IntersectionExampleScenario.node[9].nic.mac1609_4 	NumInternalContention 	0
scalar IntersectionExampleScenario.node[9].nic.mac1609_4 	totalBusyTime 	0
scalar IntersectionExampleScenario.node[9].veinsmobility 	startTime 	32.5
scalar IntersectionExampleScenario.node[9].veinsmobility 	totalTime 	59.5
scalar IntersectionExampleScenario.node[9].veinsmobility 	stopTime 	92.25
scalar IntersectionExampleScenario.node[9].veinsmobility 	minSpeed 	0
scalar IntersectionExampleScenario.node[9].veinsmobility 	maxSpeed 	15.875
scalar IntersectionExampleScenario.node[9].veinsmobility 	totalDistance 	544.83438016326
scalar IntersectionExampleScenario.node[9].veinsmobility 	totalCO2Emission 	153.48920034678
scalar IntersectionExampleScenario.node[13].appl 	VehicleRemoved 	0
scalar IntersectionExampleScenario.node[13].appl 	ArrivedAtDest 	1
scalar IntersectionExampleScenario.node[13].appl 	IntersectionEnterTime 	38
scalar IntersectionExampleScenario.node[13].appl 	IntersectionExitTime 	82.518505491054
scalar IntersectionExampleScenario.node[13].appl 	NumberOfCollisions 	0
scalar IntersectionExampleScenario.node[13].nic.phy80211p 	busyTime 	0
scalar IntersectionExampleScenario.node[13].nic.mac1609_4 	ReceivedUnicastPackets 	0
scalar IntersectionExampleScenario.node[13].nic.mac1609_4 	ReceivedBroadcasts 	0
scalar IntersectionExampleScenario.node[13].nic.mac1609_4 	SentPackets 	0
scalar IntersectionExampleScenario.node[13].nic.mac1609_4 	SNIRLostPackets 	0
scalar IntersectionExampleScenario.node[13].nic.mac1609_4 	RXTXLostPackets 	0
scalar IntersectionExampleScenario.node[13].nic.mac1609_4 	TotalLostPackets 	0
scalar IntersectionExampleScenario.node[13].nic.mac1609_4 	DroppedPacketsInMac 	0
scalar IntersectionExampleScenario.node[13].nic.mac1609_4 	TooLittleTime 	0
scalar IntersectionExampleScenario.node[13].nic.mac1609_4 	TimesIntoBackoff 	0
scalar IntersectionExampleScenario.node[13].nic.mac1609_4 	SlotsBackoff 	0
scalar IntersectionExampleScenario.node[13].nic.mac1609_4 	NumInternalContention 	0
scalar IntersectionExampleScenario.node[13].nic.mac1609_4 	totalBusyTime 	0
scalar IntersectionExampleScenario.node[13].veinsmobility 	startTime 	38
scalar IntersectionExampleScenario.node[13].veinsmobility 	totalTime 	61.25
scalar IntersectionExampleScenario.node[13].veinsmobility 	stopTime 	99.5
scalar IntersectionExampleScenario.node[13].veinsmobility 	minSpeed 	0
scalar IntersectionExampleScenario.node[13].veinsmobility 	maxSpeed 	15.25
scalar IntersectionExampleScenario.node[13].veinsmobility 	totalDistance 	521.01879025847
scalar IntersectionExampleScenario.node[13].veinsmobility 	totalCO2Emission 	154.23069144188
scalar IntersectionExampleScenario.node[12].appl 	VehicleRemoved 	0
scalar IntersectionExampleScenario.node[12].appl 	ArrivedAtDest 	1
scalar IntersectionExampleScenario.node[12].appl 	IntersectionEnterTime 	37.75
scalar IntersectionExampleScenario.node[12].appl 	IntersectionExitTime 	84.251462805405
scalar IntersectionExampleScenario.node[12].appl 	NumberOfCollisions 	0
scalar IntersectionExampleScenario.node[12].nic.phy80211p 	busyTime 	0
scalar IntersectionExampleScenario.node[12].nic.mac1609_4 	ReceivedUnicastPackets 	0
scalar IntersectionExampleScenario.node[12].nic.mac1609_4 	ReceivedBroadcasts 	0
scalar IntersectionExampleScenario.node[12].nic.mac1609_4 	SentPackets 	0
scalar IntersectionExampleScenario.node[12].nic.mac1609_4 	SNIRLostPackets 	0
scalar IntersectionExampleScenario.node[12].nic.mac1609_4 	RXTXLostPackets 	0
scalar IntersectionExampleScenario.node[12].nic.mac1609_4 	TotalLostPackets 	0
scalar IntersectionExampleScenario.node[12].nic.mac1609_4 	DroppedPacketsInMac 	0
scalar IntersectionExampleScenario.node[12].nic.mac1609_4 	TooLittleTime 	0
scalar IntersectionExampleScenario.node[12].nic.mac1609_4 	TimesIntoBackoff 	0
scalar IntersectionExampleScenario.node[12].nic.mac1609_4 	SlotsBackoff 	0
scalar IntersectionExampleScenario.node[12].nic.mac1609_4 	NumInternalContention 	0
scalar IntersectionExampleScenario.node[12].nic.mac1609_4 	totalBusyTime 	0
scalar IntersectionExampleScenario.node[12].veinsmobility 	startTime 	37.75
scalar IntersectionExampleScenario.node[12].veinsmobility 	totalTime 	63.5
scalar IntersectionExampleScenario.node[12].veinsmobility 	stopTime 	101.5
scalar IntersectionExampleScenario.node[12].veinsmobility 	minSpeed 	0
scalar IntersectionExampleScenario.node[12].veinsmobility 	maxSpeed 	15.019067764282
scalar IntersectionExampleScenario.node[12].veinsmobility 	totalDistance 	554.97109516702
scalar IntersectionExampleScenario.node[12].veinsmobility 	totalCO2Emission 	153.03554053757
scalar IntersectionExampleScenario.node[14].appl 	VehicleRemoved 	0
scalar IntersectionExampleScenario.node[14].appl 	ArrivedAtDest 	1
scalar IntersectionExampleScenario.node[14].appl 	IntersectionEnterTime 	39.5
scalar IntersectionExampleScenario.node[14].appl 	IntersectionExitTime 	86.78431944261
scalar IntersectionExampleScenario.node[14].appl 	NumberOfCollisions 	0
scalar IntersectionExampleScenario.node[14].nic.phy80211p 	busyTime 	0
scalar IntersectionExampleScenario.node[14].nic.mac1609_4 	ReceivedUnicastPackets 	0
scalar IntersectionExampleScenario.node[14].nic.mac1609_4 	ReceivedBroadcasts 	0
scalar IntersectionExampleScenario.node[14].nic.mac1609_4 	SentPackets 	0
scalar IntersectionExampleScenario.node[14].nic.mac1609_4 	SNIRLostPackets 	0
scalar IntersectionExampleScenario.node[14].nic.mac1609_4 	RXTXLostPackets 	0
scalar IntersectionExampleScenario.node[14].nic.mac1609_4 	TotalLostPackets 	0
scalar IntersectionExampleScenario.node[14].nic.mac1609_4 	DroppedPacketsInMac 	0
scalar IntersectionExampleScenario.node[14].nic.mac1609_4 	TooLittleTime 	0
scalar IntersectionExampleScenario.node[14].nic.mac1609_4 	TimesIntoBackoff 	0
scalar IntersectionExampleScenario.node[14].nic.mac1609_4 	SlotsBackoff 	0
scalar IntersectionExampleScenario.node[14].nic.mac1609_4 	NumInternalContention 	0
scalar IntersectionExampleScenario.node[14].nic.mac1609_4 	totalBusyTime 	0
scalar IntersectionExampleScenario.node[14].veinsmobility 	startTime 	39.5
scalar IntersectionExampleScenario.node[14].veinsmobility 	totalTime 	63.5
scalar IntersectionExampleScenario.node[14].veinsmobility 	stopTime 	103.25
scalar IntersectionExampleScenario.node[14].veinsmobility 	minSpeed 	0
scalar IntersectionExampleScenario.node[14].veinsmobility 	maxSpeed 	15.909086227417
scalar IntersectionExampleScenario.node[14].veinsmobility 	totalDistance 	567.64275038663
scalar IntersectionExampleScenario.node[14].veinsmobility 	totalCO2Emission 	167.04919394518
scalar IntersectionExampleScenario.node[15].appl 	VehicleRemoved 	0
scalar IntersectionExampleScenario.node[15].appl 	ArrivedAtDest 	1
scalar IntersectionExampleScenario.node[15].appl 	IntersectionEnterTime 	44.75
scalar IntersectionExampleScenario.node[15].appl 	IntersectionExitTime 	89.520895794849
scalar IntersectionExampleScenario.node[15].appl 	NumberOfCollisions 	0
scalar IntersectionExampleScenario.node[15].nic.phy80211p 	busyTime 	0
scalar IntersectionExampleScenario.node[15].nic.mac1609_4 	ReceivedUnicastPackets 	0
scalar IntersectionExampleScenario.node[15].nic.mac1609_4 	ReceivedBroadcasts 	0
scalar IntersectionExampleScenario.node[15].nic.mac1609_4 	SentPackets 	0
scalar IntersectionExampleScenario.node[15].nic.mac1609_4 	SNIRLostPackets 	0
scalar IntersectionExampleScenario.node[15].nic.mac1609_4 	RXTXLostPackets 	0
scalar IntersectionExampleScenario.node[15].nic.mac1609_4 	TotalLostPackets 	0
scalar IntersectionExampleScenario.node[15].nic.mac1609_4 	DroppedPacketsInMac 	0
scalar IntersectionExampleScenario.node[15].nic.mac1609_4 	TooLittleTime 	0
scalar IntersectionExampleScenario.node[15].nic.mac1609_4 	TimesIntoBackoff 	0
scalar IntersectionExampleScenario.node[15].nic.mac1609_4 	SlotsBackoff 	0
scalar IntersectionExampleScenario.node[15].nic.mac1609_4 	NumInternalContention 	0
scalar IntersectionExampleScenario.node[15].nic.mac1609_4 	totalBusyTime 	0
scalar IntersectionExampleScenario.node[15].veinsmobility 	startTime 	44.75
scalar IntersectionExampleScenario.node[15].veinsmobility 	totalTime 	61.5
scalar IntersectionExampleScenario.node[15].veinsmobility 	stopTime 	106.5
scalar IntersectionExampleScenario.node[15].veinsmobility 	minSpeed 	0
scalar IntersectionExampleScenario.node[15].veinsmobility 	maxSpeed 	15.64999961853
scalar IntersectionExampleScenario.node[15].veinsmobility 	totalDistance 	555.216330016
scalar IntersectionExampleScenario.node[15].veinsmobility 	totalCO2Emission 	153.71043080666
scalar IntersectionExampleScenario.node[17].appl 	VehicleRemoved 	0
scalar IntersectionExampleScenario.node[17].appl 	ArrivedAtDest 	1
scalar IntersectionExampleScenario.node[17].appl 	IntersectionEnterTime 	61
scalar IntersectionExampleScenario.node[17].appl 	IntersectionExitTime 	90.592612408829
scalar IntersectionExampleScenario.node[17].appl 	NumberOfCollisions 	0
scalar IntersectionExampleScenario.node[17].nic.phy80211p 	busyTime 	0
scalar IntersectionExampleScenario.node[17].nic.mac1609_4 	ReceivedUnicastPackets 	0
scalar IntersectionExampleScenario.node[17].nic.mac1609_4 	ReceivedBroadcasts 	0
scalar IntersectionExampleScenario.node[17].nic.mac1609_4 	SentPackets 	0
scalar IntersectionExampleScenario.node[17].nic.mac1609_4 	SNIRLostPackets 	0
scalar IntersectionExampleScenario.node[17].nic.mac1609_4 	RXTXLostPackets 	0
scalar IntersectionExampleScenario.node[17].nic.mac1609_4 	TotalLostPackets 	0
scalar IntersectionExampleScenario.node[17].nic.mac1609_4 	DroppedPacketsInMac 	0
scalar IntersectionExampleScenario.node[17].nic.mac1609_4 	TooLittleTime 	0
scalar IntersectionExampleScenario.node[17].nic.mac1609_4 	TimesIntoBackoff 	0
scalar IntersectionExampleScenario.node[17].nic.mac1609_4 	SlotsBackoff 	0
scalar IntersectionExampleScenario.node[17].nic.mac1609_4 	NumInternalContention 	0
scalar IntersectionExampleScenario.node[17].nic.mac1609_4 	totalBusyTime 	0
scalar IntersectionExampleScenario.node[17].veinsmobility 	startTime 	61
scalar IntersectionExampleScenario.node[17].veinsmobility 	totalTime 	47
scalar IntersectionExampleScenario.node[17].veinsmobility 	stopTime 	108.25
scalar IntersectionExampleScenario.node[17].veinsmobility 	minSpeed 	0
scalar IntersectionExampleScenario.node[17].veinsmobility 	maxSpeed 	15.02499961853
scalar IntersectionExampleScenario.node[17].veinsmobility 	totalDistance 	546.78791715056
scalar IntersectionExampleScenario.node[17].veinsmobility 	totalCO2Emission 	134.26628156232
scalar IntersectionExampleScenario.node[18].appl 	VehicleRemoved 	0
scalar IntersectionExampleScenario.node[18].appl 	ArrivedAtDest 	1
scalar IntersectionExampleScenario.node[18].appl 	IntersectionEnterTime 	61.75
scalar IntersectionExampleScenario.node[18].appl 	IntersectionExitTime 	92.822971420625
scalar IntersectionExampleScenario.node[18].appl 	NumberOfCollisions 	0
scalar IntersectionExampleScenario.node[18].nic.phy80211p 	busyTime 	0
scalar IntersectionExampleScenario.node[18].nic.mac1609_4 	ReceivedUnicastPackets 	0
scalar IntersectionExampleScenario.node[18].nic.mac1609_4 	ReceivedBroadcasts 	0
scalar IntersectionExampleScenario.node[18].nic.mac1609_4 	SentPackets 	0
scalar IntersectionExampleScenario.node[18].nic.mac1609_4 	SNIRLostPackets 	0
scalar IntersectionExampleScenario.node[18].nic.mac1609_4 	RXTXLostPackets 	0
scalar IntersectionExampleScenario.node[18].nic.mac1609_4 	TotalLostPackets 	0
scalar IntersectionExampleScenario.node[18].nic.mac1609_4 	DroppedPacketsInMac 	0
scalar IntersectionExampleScenario.node[18].nic.mac1609_4 	TooLittleTime 	0
scalar IntersectionExampleScenario.node[18].nic.mac1609_4 	TimesIntoBackoff 	0
scalar IntersectionExampleScenario.node[18].nic.mac1609_4 	SlotsBackoff 	0
scalar IntersectionExampleScenario.node[18].nic.mac1609_4 	NumInternalContention 	0
scalar IntersectionExampleScenario.node[18].nic.mac1609_4 	totalBusyTime 	0
scalar IntersectionExampleScenario.node[18].veinsmobility 	startTime 	61.75
scalar IntersectionExampleScenario.node[18].veinsmobility 	totalTime 	47.25
scalar IntersectionExampleScenario.node[18].veinsmobility 	stopTime 	109.25
scalar IntersectionExampleScenario.node[18].veinsmobility 	minSpeed 	0
scalar IntersectionExampleScenario.node[18].veinsmobility 	maxSpeed 	16.158699035645
scalar IntersectionExampleScenario.node[18].veinsmobility 	totalDistance 	566.25742207495
scalar IntersectionExampleScenario.node[18].veinsmobility 	totalCO2Emission 	145.25563161234
scalar IntersectionExampleScenario.node[25].appl 	VehicleRemoved 	0
scalar IntersectionExampleScenario.node[25].appl 	ArrivedAtDest 	1
scalar IntersectionExampleScenario.node[25].appl 	IntersectionEnterTime 	81.75
scalar IntersectionExampleScenario.node[25].appl 	IntersectionExitTime 	104.79163696177
scalar IntersectionExampleScenario.node[25].appl 	NumberOfCollisions 	0
scalar IntersectionExampleScenario.node[25].nic.phy80211p 	busyTime 	0
scalar IntersectionExampleScenario.node[25].nic.mac1609_4 	ReceivedUnicastPackets 	0
scalar IntersectionExampleScenario.node[25].nic.mac1609_4 	ReceivedBroadcasts 	0
scalar IntersectionExampleScenario.node[25].nic.mac1609_4 	SentPackets 	0
scalar IntersectionExampleScenario.node[25].nic.mac1609_4 	SNIRLostPackets 	0
scalar IntersectionExampleScenario.node[25].nic.mac1609_4 	RXTXLostPackets 	0
scalar IntersectionExampleScenario.node[25].nic.mac1609_4 	TotalLostPackets 	0
scalar IntersectionExampleScenario.node[25].nic.mac1609_4 	DroppedPacketsInMac 	0
scalar IntersectionExampleScenario.node[25].nic.mac1609_4 	TooLittleTime 	0
scalar IntersectionExampleScenario.node[25].nic.mac1609_4 	TimesIntoBackoff 	0
scalar IntersectionExampleScenario.node[25].nic.mac1609_4 	SlotsBackoff 	0
scalar IntersectionExampleScenario.node[25].nic.mac1609_4 	NumInternalContention 	0
scalar IntersectionExampleScenario.node[25].nic.mac1609_4 	totalBusyTime 	0
scalar IntersectionExampleScenario.node[25].veinsmobility 	startTime 	81.75
scalar IntersectionExampleScenario.node[25].veinsmobility 	totalTime 	39.5
scalar IntersectionExampleScenario.node[25].veinsmobility 	stopTime 	121.5
scalar IntersectionExampleScenario.node[25].veinsmobility 	minSpeed 	5.6500000953674
scalar IntersectionExampleScenario.node[25].veinsmobility 	maxSpeed 	15.875
scalar IntersectionExampleScenario.node[25].veinsmobility 	totalDistance 	545.86136006005
scalar IntersectionExampleScenario.node[25].veinsmobility 	totalCO2Emission 	128.85763965315
scalar IntersectionExampleScenario.node[21].appl 	VehicleRemoved 	0
scalar IntersectionExampleScenario.node[21].appl 	ArrivedAtDest 	1
scalar IntersectionExampleScenario.node[21].appl 	IntersectionEnterTime 	65.75
scalar IntersectionExampleScenario.node[21].appl 	IntersectionExitTime 	108.28120483071
scalar IntersectionExampleScenario.node[21].appl 	NumberOfCollisions 	0
scalar IntersectionExampleScenario.node[21].nic.phy80211p 	busyTime 	0
scalar IntersectionExampleScenario.node[21].nic.mac1609_4 	ReceivedUnicastPackets 	0
scalar IntersectionExampleScenario.node[21].nic.mac1609_4 	ReceivedBroadcasts 	0
scalar IntersectionExampleScenario.node[21].nic.mac1609_4 	SentPackets 	0
scalar IntersectionExampleScenario.node[21].nic.mac1609_4 	SNIRLostPackets 	0
scalar IntersectionExampleScenario.node[21].nic.mac1609_4 	RXTXLostPackets 	0
scalar IntersectionExampleScenario.node[21].nic.mac1609_4 	TotalLostPackets 	0
scalar IntersectionExampleScenario.node[21].nic.mac1609_4 	DroppedPacketsInMac 	0
scalar IntersectionExampleScenario.node[21].nic.mac1609_4 	TooLittleTime 	0
scalar IntersectionExampleScenario.node[21].nic.mac1609_4 	TimesIntoBackoff 	0
scalar IntersectionExampleScenario.node[21].nic.mac1609_4 	SlotsBackoff 	0
scalar IntersectionExampleScenario.node[21].nic.mac1609_4 	NumInternalContention 	0
scalar IntersectionExampleScenario.node[21].nic.mac1609_4 	totalBusyTime 	0
scalar IntersectionExampleScenario.node[21].veinsmobility 	startTime 	65.75
scalar IntersectionExampleScenario.node[21].veinsmobility 	totalTime 	58.75
scalar IntersectionExampleScenario.node[21].veinsmobility 	stopTime 	124.75
scalar IntersectionExampleScenario.node[21].veinsmobility 	minSpeed 	0
scalar IntersectionExampleScenario.node[21].veinsmobility 	maxSpeed 	15.375
scalar IntersectionExampleScenario.node[21].veinsmobility 	totalDistance 	549.30346788516
scalar IntersectionExampleScenario.node[21].veinsmobility 	totalCO2Emission 	148.53350936613
scalar IntersectionExampleScenario.node[26].appl 	VehicleRemoved 	0
scalar IntersectionExampleScenario.node[26].appl 	ArrivedAtDest 	1
scalar IntersectionExampleScenario.node[26].appl 	IntersectionEnterTime 	82
scalar IntersectionExampleScenario.node[26].appl 	IntersectionExitTime 	110.08374298754
scalar IntersectionExampleScenario.node[26].appl 	NumberOfCollisions 	0
scalar IntersectionExampleScenario.node[26].nic.phy80211p 	busyTime 	0
scalar IntersectionExampleScenario.node[26].nic.mac1609_4 	ReceivedUnicastPackets 	0
scalar IntersectionExampleScenario.node[26].nic.mac1609_4 	ReceivedBroadcasts 	0
scalar IntersectionExampleScenario.node[26].nic.mac1609_4 	SentPackets 	0
scalar IntersectionExampleScenario.node[26].nic.mac1609_4 	SNIRLostPackets 	0
scalar IntersectionExampleScenario.node[26].nic.mac1609_4 	RXTXLostPackets 	0
scalar IntersectionExampleScenario.node[26].nic.mac1609_4 	TotalLostPackets 	0
scalar IntersectionExampleScenario.node[26].nic.mac1609_4 	DroppedPacketsInMac 	0
scalar IntersectionExampleScenario.node[26].nic.mac1609_4 	TooLittleTime 	0
scalar IntersectionExampleScenario.node[26].nic.mac1609_4 	TimesIntoBackoff 	0
scalar IntersectionExampleScenario.node[26].nic.mac1609_4 	SlotsBackoff 	0
scalar IntersectionExampleScenario.node[26].nic.mac1609_4 	NumInternalContention 	0
scalar IntersectionExampleScenario.node[26].nic.mac1609_4 	totalBusyTime 	0
scalar IntersectionExampleScenario.node[26].veinsmobility 	startTime 	82
scalar IntersectionExampleScenario.node[26].veinsmobility 	totalTime 	45
scalar IntersectionExampleScenario.node[26].veinsmobility 	stopTime 	127.25
scalar IntersectionExampleScenario.node[26].veinsmobility 	minSpeed 	4.7364630699158
scalar IntersectionExampleScenario.node[26].veinsmobility 	maxSpeed 	14.39999961853
scalar IntersectionExampleScenario.node[26].veinsmobility 	totalDistance 	551.81211090088
scalar IntersectionExampleScenario.node[26].veinsmobility 	totalCO2Emission 	126.16827974033
scalar IntersectionExampleScenario.node[28].appl 	VehicleRemoved 	0
scalar IntersectionExampleScenario.node[28].appl 	ArrivedAtDest 	1
scalar IntersectionExampleScenario.node[28].appl 	IntersectionEnterTime 	83.5
scalar IntersectionExampleScenario.node[28].appl 	IntersectionExitTime 	112.60413250531
scalar IntersectionExampleScenario.node[28].appl 	NumberOfCollisions 	0
scalar IntersectionExampleScenario.node[28].nic.phy80211p 	busyTime 	0
scalar IntersectionExampleScenario.node[28].nic.mac1609_4 	ReceivedUnicastPackets 	0
scalar IntersectionExampleScenario.node[28].nic.mac1609_4 	ReceivedBroadcasts 	0
scalar IntersectionExampleScenario.node[28].nic.mac1609_4 	SentPackets 	0
scalar IntersectionExampleScenario.node[28].nic.mac1609_4 	SNIRLostPackets 	0
scalar IntersectionExampleScenario.node[28].nic.mac1609_4 	RXTXLostPackets 	0
scalar IntersectionExampleScenario.node[28].nic.mac1609_4 	TotalLostPackets 	0
scalar IntersectionExampleScenario.node[28].nic.mac1609_4 	DroppedPacketsInMac 	0
scalar IntersectionExampleScenario.node[28].nic.mac1609_4 	TooLittleTime 	0
scalar IntersectionExampleScenario.node[28].nic.mac1609_4 	TimesIntoBackoff 	0
scalar IntersectionExampleScenario.node[28].nic.mac1609_4 	SlotsBackoff 	0
scalar IntersectionExampleScenario.node[28].nic.mac1609_4 	NumInternalContention 	0
scalar IntersectionExampleScenario.node[28].nic.mac1609_4 	totalBusyTime 	0
scalar IntersectionExampleScenario.node[28].veinsmobility 	startTime 	83.5
scalar IntersectionExampleScenario.node[28].veinsmobility 	totalTime 	45.25
scalar IntersectionExampleScenario.node[28].veinsmobility 	stopTime 	129
scalar IntersectionExampleScenario.node[28].veinsmobility 	minSpeed 	3.6481511592865
scalar IntersectionExampleScenario.node[28].veinsmobility 	maxSpeed 	14.955625534058
scalar IntersectionExampleScenario.node[28].veinsmobility 	totalDistance 	571.90707397461
scalar IntersectionExampleScenario.node[28].veinsmobility 	totalCO2Emission 	135.04413713622
scalar IntersectionExampleScenario.node[16].appl 	VehicleRemoved 	0
scalar IntersectionExampleScenario.node[16].appl 	ArrivedAtDest 	1
scalar IntersectionExampleScenario.node[16].appl 	IntersectionEnterTime 	49.5
scalar IntersectionExampleScenario.node[16].appl 	IntersectionExitTime 	115.35286974532
scalar IntersectionExampleScenario.node[16].appl 	NumberOfCollisions 	0
scalar IntersectionExampleScenario.node[16].nic.phy80211p 	busyTime 	0
scalar IntersectionExampleScenario.node[16].nic.mac1609_4 	ReceivedUnicastPackets 	0
scalar IntersectionExampleScenario.node[16].nic.mac1609_4 	ReceivedBroadcasts 	0
scalar IntersectionExampleScenario.node[16].nic.mac1609_4 	SentPackets 	0
scalar IntersectionExampleScenario.node[16].nic.mac1609_4 	SNIRLostPackets 	0
scalar IntersectionExampleScenario.node[16].nic.mac1609_4 	RXTXLostPackets 	0
scalar IntersectionExampleScenario.node[16].nic.mac1609_4 	TotalLostPackets 	0
scalar IntersectionExampleScenario.node[16].nic.mac1609_4 	DroppedPacketsInMac 	0
scalar IntersectionExampleScenario.node[16].nic.mac1609_4 	TooLittleTime 	0
scalar IntersectionExampleScenario.node[16].nic.mac1609_4 	TimesIntoBackoff 	0
scalar IntersectionExampleScenario.node[16].nic.mac1609_4 	SlotsBackoff 	0
scalar IntersectionExampleScenario.node[16].nic.mac1609_4 	NumInternalContention 	0
scalar IntersectionExampleScenario.node[16].nic.mac1609_4 	totalBusyTime 	0
scalar IntersectionExampleScenario.node[16].veinsmobility 	startTime 	49.5
scalar IntersectionExampleScenario.node[16].veinsmobility 	totalTime 	81.5
scalar IntersectionExampleScenario.node[16].veinsmobility 	stopTime 	131.25
scalar IntersectionExampleScenario.node[16].veinsmobility 	minSpeed 	0
scalar IntersectionExampleScenario.node[16].veinsmobility 	maxSpeed 	15.64999961853
scalar IntersectionExampleScenario.node[16].veinsmobility 	totalDistance 	559.86465454102
scalar IntersectionExampleScenario.node[16].veinsmobility 	totalCO2Emission 	182.84269992665
scalar IntersectionExampleScenario.node[19].appl 	VehicleRemoved 	0
scalar IntersectionExampleScenario.node[19].appl 	ArrivedAtDest 	1
scalar IntersectionExampleScenario.node[19].appl 	IntersectionEnterTime 	63
scalar IntersectionExampleScenario.node[19].appl 	IntersectionExitTime 	116.09294744319
scalar IntersectionExampleScenario.node[19].appl 	NumberOfCollisions 	0
scalar IntersectionExampleScenario.node[19].nic.phy80211p 	busyTime 	0
scalar IntersectionExampleScenario.node[19].nic.mac1609_4 	ReceivedUnicastPackets 	0
scalar IntersectionExampleScenario.node[19].nic.mac1609_4 	ReceivedBroadcasts 	0
scalar IntersectionExampleScenario.node[19].nic.mac1609_4 	SentPackets 	0
scalar IntersectionExampleScenario.node[19].nic.mac1609_4 	SNIRLostPackets 	0
scalar IntersectionExampleScenario.node[19].nic.mac1609_4 	RXTXLostPackets 	0
scalar IntersectionExampleScenario.node[19].nic.mac1609_4 	TotalLostPackets 	0
scalar IntersectionExampleScenario.node[19].nic.mac1609_4 	DroppedPacketsInMac 	0
scalar IntersectionExampleScenario.node[19].nic.mac1609_4 	TooLittleTime 	0
scalar IntersectionExampleScenario.node[19].nic.mac1609_4 	TimesIntoBackoff 	0
scalar IntersectionExampleScenario.node[19].nic.mac1609_4 	SlotsBackoff 	0
scalar IntersectionExampleScenario.node[19].nic.mac1609_4 	NumInternalContention 	0
scalar IntersectionExampleScenario.node[19].nic.mac1609_4 	totalBusyTime 	0
scalar IntersectionExampleScenario.node[19].veinsmobility 	startTime 	63
scalar IntersectionExampleScenario.node[19].veinsmobility 	totalTime 	69.25
scalar IntersectionExampleScenario.node[19].veinsmobility 	stopTime 	132.5
scalar IntersectionExampleScenario.node[19].veinsmobility 	minSpeed 	0
scalar IntersectionExampleScenario.node[19].veinsmobility 	maxSpeed 	16.27499961853
scalar IntersectionExampleScenario.node[19].veinsmobility 	totalDistance 	544.51425006329
scalar IntersectionExampleScenario.node[19].veinsmobility 	totalCO2Emission 	169.191228279
scalar IntersectionExampleScenario.node[20].appl 	VehicleRemoved 	0
scalar IntersectionExampleScenario.node[20].appl 	ArrivedAtDest 	1
scalar IntersectionExampleScenario.node[20].appl 	IntersectionEnterTime 	65
scalar IntersectionExampleScenario.node[20].appl 	IntersectionExitTime 	119.05011841634
scalar IntersectionExampleScenario.node[20].appl 	NumberOfCollisions 	0
scalar IntersectionExampleScenario.node[20].nic.phy80211p 	busyTime 	0
scalar IntersectionExampleScenario.node[20].nic.mac1609_4 	ReceivedUnicastPackets 	0
scalar IntersectionExampleScenario.node[20].nic.mac1609_4 	ReceivedBroadcasts 	0
scalar IntersectionExampleScenario.node[20].nic.mac1609_4 	SentPackets 	0
scalar IntersectionExampleScenario.node[20].nic.mac1609_4 	SNIRLostPackets 	0
scalar IntersectionExampleScenario.node[20].nic.mac1609_4 	RXTXLostPackets 	0
scalar IntersectionExampleScenario.node[20].nic.mac1609_4 	TotalLostPackets 	0
scalar IntersectionExampleScenario.node[20].nic.mac1609_4 	DroppedPacketsInMac 	0
scalar IntersectionExampleScenario.node[20].nic.mac1609_4 	TooLittleTime 	0
scalar IntersectionExampleScenario.node[20].nic.mac1609_4 	TimesIntoBackoff 	0
scalar IntersectionExampleScenario.node[20].nic.mac1609_4 	SlotsBackoff 	0
scalar IntersectionExampleScenario.node[20].nic.mac1609_4 	NumInternalContention 	0
scalar IntersectionExampleScenario.node[20].nic.mac1609_4 	totalBusyTime 	0
scalar IntersectionExampleScenario.node[20].veinsmobility 	startTime 	65
scalar IntersectionExampleScenario.node[20].veinsmobility 	totalTime 	71
scalar IntersectionExampleScenario.node[20].veinsmobility 	stopTime 	136.25
scalar IntersectionExampleScenario.node[20].veinsmobility 	minSpeed 	0
scalar IntersectionExampleScenario.node[20].veinsmobility 	maxSpeed 	14.39999961853
scalar IntersectionExampleScenario.node[20].veinsmobility 	totalDistance 	570.82330322266
scalar IntersectionExampleScenario.node[20].veinsmobility 	totalCO2Emission 	155.73825541029
scalar IntersectionExampleScenario.node[22].appl 	VehicleRemoved 	0
scalar IntersectionExampleScenario.node[22].appl 	ArrivedAtDest 	1
scalar IntersectionExampleScenario.node[22].appl 	IntersectionEnterTime 	73.5
scalar IntersectionExampleScenario.node[22].appl 	IntersectionExitTime 	121.32884276225
scalar IntersectionExampleScenario.node[22].appl 	NumberOfCollisions 	0
scalar IntersectionExampleScenario.node[22].nic.phy80211p 	busyTime 	0
scalar IntersectionExampleScenario.node[22].nic.mac1609_4 	ReceivedUnicastPackets 	0
scalar IntersectionExampleScenario.node[22].nic.mac1609_4 	ReceivedBroadcasts 	0
scalar IntersectionExampleScenario.node[22].nic.mac1609_4 	SentPackets 	0
scalar IntersectionExampleScenario.node[22].nic.mac1609_4 	SNIRLostPackets 	0
scalar IntersectionExampleScenario.node[22].nic.mac1609_4 	RXTXLostPackets 	0
scalar IntersectionExampleScenario.node[22].nic.mac1609_4 	TotalLostPackets 	0
scalar IntersectionExampleScenario.node[22].nic.mac1609_4 	DroppedPacketsInMac 	0
scalar IntersectionExampleScenario.node[22].nic.mac1609_4 	TooLittleTime 	0
scalar IntersectionExampleScenario.node[22].nic.mac1609_4 	TimesIntoBackoff 	0
scalar IntersectionExampleScenario.node[22].nic.mac1609_4 	SlotsBackoff 	0
scalar IntersectionExampleScenario.node[22].nic.mac1609_4 	NumInternalContention 	0
scalar IntersectionExampleScenario.node[22].nic.mac1609_4 	totalBusyTime 	0
scalar IntersectionExampleScenario.node[22].veinsmobility 	startTime 	73.5
scalar IntersectionExampleScenario.node[22].veinsmobility 	totalTime 	64
scalar IntersectionExampleScenario.node[22].veinsmobility 	stopTime 	137.75
scalar IntersectionExampleScenario.node[22].veinsmobility 	minSpeed 	0
scalar IntersectionExampleScenario.node[22].veinsmobility 	maxSpeed 	15.875
scalar IntersectionExampleScenario.node[22].veinsmobility 	totalDistance 	542.62799726031
scalar IntersectionExampleScenario.node[22].veinsmobility 	totalCO2Emission 	156.35317387963
scalar IntersectionExampleScenario.node[24].appl 	VehicleRemoved 	0
scalar IntersectionExampleScenario.node[24].appl 	ArrivedAtDest 	1
scalar IntersectionExampleScenario.node[24].appl 	IntersectionEnterTime 	80
scalar IntersectionExampleScenario.node[24].appl 	IntersectionExitTime 	122.60439841769
scalar IntersectionExampleScenario.node[24].appl 	NumberOfCollisions 	0
scalar IntersectionExampleScenario.node[24].nic.phy80211p 	busyTime 	0
scalar IntersectionExampleScenario.node[24].nic.mac1609_4 	ReceivedUnicastPackets 	0
scalar IntersectionExampleScenario.node[24].nic.mac1609_4 	ReceivedBroadcasts 	0
scalar IntersectionExampleScenario.node[24].nic.mac1609_4 	SentPackets 	0
scalar IntersectionExampleScenario.node[24].nic.mac1609_4 	SNIRLostPackets 	0
scalar IntersectionExampleScenario.node[24].nic.mac1609_4 	RXTXLostPackets 	0
scalar IntersectionExampleScenario.node[24].nic.mac1609_4 	TotalLostPackets 	0
scalar IntersectionExampleScenario.node[24].nic.mac1609_4 	DroppedPacketsInMac 	0
scalar IntersectionExampleScenario.node[24].nic.mac1609_4 	TooLittleTime 	0
scalar IntersectionExampleScenario.node[24].nic.mac1609_4 	TimesIntoBackoff 	0
scalar IntersectionExampleScenario.node[24].nic.mac1609_4 	SlotsBackoff 	0
scalar IntersectionExampleScenario.node[24].nic.mac1609_4 	NumInternalContention 	0
scalar IntersectionExampleScenario.node[24].nic.mac1609_4 	totalBusyTime 	0
scalar IntersectionExampleScenario.node[24].veinsmobility 	startTime 	80
scalar IntersectionExampleScenario.node[24].veinsmobility 	totalTime 	59.25
scalar IntersectionExampleScenario.node[24].veinsmobility 	stopTime 	139.5
scalar IntersectionExampleScenario.node[24].veinsmobility 	minSpeed 	0
scalar IntersectionExampleScenario.node[24].veinsmobility 	maxSpeed 	15.64999961853
scalar IntersectionExampleScenario.node[24].veinsmobility 	totalDistance 	543.37078763396
scalar IntersectionExampleScenario.node[24].veinsmobility 	totalCO2Emission 	150.33463815153
scalar IntersectionExampleScenario.node[29].appl 	VehicleRemoved 	0
scalar IntersectionExampleScenario.node[29].appl 	ArrivedAtDest 	1
scalar IntersectionExampleScenario.node[29].appl 	IntersectionEnterTime 	84.5
scalar IntersectionExampleScenario.node[29].appl 	IntersectionExitTime 	125.08899317999
scalar IntersectionExampleScenario.node[29].appl 	NumberOfCollisions 	0
scalar IntersectionExampleScenario.node[29].nic.phy80211p 	busyTime 	0
scalar IntersectionExampleScenario.node[29].nic.mac1609_4 	ReceivedUnicastPackets 	0
scalar IntersectionExampleScenario.node[29].nic.mac1609_4 	ReceivedBroadcasts 	0
scalar IntersectionExampleScenario.node[29].nic.mac1609_4 	SentPackets 	0
scalar IntersectionExampleScenario.node[29].nic.mac1609_4 	SNIRLostPackets 	0
scalar IntersectionExampleScenario.node[29].nic.mac1609_4 	RXTXLostPackets 	0
scalar IntersectionExampleScenario.node[29].nic.mac1609_4 	TotalLostPackets 	0
scalar IntersectionExampleScenario.node[29].nic.mac1609_4 	DroppedPacketsInMac 	0
scalar IntersectionExampleScenario.node[29].nic.mac1609_4 	TooLittleTime 	0
scalar IntersectionExampleScenario.node[29].nic.mac1609_4 	TimesIntoBackoff 	0
scalar IntersectionExampleScenario.node[29].nic.mac1609_4 	SlotsBackoff 	0
scalar IntersectionExampleScenario.node[29].nic.mac1609_4 	NumInternalContention 	0
scalar IntersectionExampleScenario.node[29].nic.mac1609_4 	totalBusyTime 	0
scalar IntersectionExampleScenario.node[29].veinsmobility 	startTime 	84.5
scalar IntersectionExampleScenario.node[29].veinsmobility 	totalTime 	57.5
scalar IntersectionExampleScenario.node[29].veinsmobility 	stopTime 	142.25
scalar IntersectionExampleScenario.node[29].veinsmobility 	minSpeed 	0
scalar IntersectionExampleScenario.node[29].veinsmobility 	maxSpeed 	15.25
scalar IntersectionExampleScenario.node[29].veinsmobility 	totalDistance 	545.74987063547
scalar IntersectionExampleScenario.node[29].veinsmobility 	totalCO2Emission 	145.7213667801
scalar IntersectionExampleScenario.node[31].appl 	VehicleRemoved 	0
scalar IntersectionExampleScenario.node[31].appl 	ArrivedAtDest 	1
scalar IntersectionExampleScenario.node[31].appl 	IntersectionEnterTime 	84.75
scalar IntersectionExampleScenario.node[31].appl 	IntersectionExitTime 	127.26094472568
scalar IntersectionExampleScenario.node[31].appl 	NumberOfCollisions 	0
scalar IntersectionExampleScenario.node[31].nic.phy80211p 	busyTime 	0
scalar IntersectionExampleScenario.node[31].nic.mac1609_4 	ReceivedUnicastPackets 	0
scalar IntersectionExampleScenario.node[31].nic.mac1609_4 	ReceivedBroadcasts 	0
scalar IntersectionExampleScenario.node[31].nic.mac1609_4 	SentPackets 	0
scalar IntersectionExampleScenario.node[31].nic.mac1609_4 	SNIRLostPackets 	0
scalar IntersectionExampleScenario.node[31].nic.mac1609_4 	RXTXLostPackets 	0
scalar IntersectionExampleScenario.node[31].nic.mac1609_4 	TotalLostPackets 	0
scalar IntersectionExampleScenario.node[31].nic.mac1609_4 	DroppedPacketsInMac 	0
scalar IntersectionExampleScenario.node[31].nic.mac1609_4 	TooLittleTime 	0
scalar IntersectionExampleScenario.node[31].nic.mac1609_4 	TimesIntoBackoff 	0
scalar IntersectionExampleScenario.node[31].nic.mac1609_4 	SlotsBackoff 	0
scalar IntersectionExampleScenario.node[31].nic.mac1609_4 	NumInternalContention 	0
scalar IntersectionExampleScenario.node[31].nic.mac1609_4 	totalBusyTime 	0
scalar IntersectionExampleScenario.node[31].veinsmobility 	startTime 	84.75
scalar IntersectionExampleScenario.node[31].veinsmobility 	totalTime 	58.5
scalar IntersectionExampleScenario.node[31].veinsmobility 	stopTime 	143.5
scalar IntersectionExampleScenario.node[31].veinsmobility 	minSpeed 	0
scalar IntersectionExampleScenario.node[31].veinsmobility 	maxSpeed 	15.5
scalar IntersectionExampleScenario.node[31].veinsmobility 	totalDistance 	578.71907806396
scalar IntersectionExampleScenario.node[31].veinsmobility 	totalCO2Emission 	153.51266347934
scalar IntersectionExampleScenario.node[36].appl 	VehicleRemoved 	0
scalar IntersectionExampleScenario.node[36].appl 	ArrivedAtDest 	1
scalar IntersectionExampleScenario.node[36].appl 	IntersectionEnterTime 	96.75
scalar IntersectionExampleScenario.node[36].appl 	IntersectionExitTime 	129.5814716676
scalar IntersectionExampleScenario.node[36].appl 	NumberOfCollisions 	0
scalar IntersectionExampleScenario.node[36].nic.phy80211p 	busyTime 	0
scalar IntersectionExampleScenario.node[36].nic.mac1609_4 	ReceivedUnicastPackets 	0
scalar IntersectionExampleScenario.node[36].nic.mac1609_4 	ReceivedBroadcasts 	0
scalar IntersectionExampleScenario.node[36].nic.mac1609_4 	SentPackets 	0
scalar IntersectionExampleScenario.node[36].nic.mac1609_4 	SNIRLostPackets 	0
scalar IntersectionExampleScenario.node[36].nic.mac1609_4 	RXTXLostPackets 	0
scalar IntersectionExampleScenario.node[36].nic.mac1609_4 	TotalLostPackets 	0
scalar IntersectionExampleScenario.node[36].nic.mac1609_4 	DroppedPacketsInMac 	0
scalar IntersectionExampleScenario.node[36].nic.mac1609_4 	TooLittleTime 	0
scalar IntersectionExampleScenario.node[36].nic.mac1609_4 	TimesIntoBackoff 	0
scalar IntersectionExampleScenario.node[36].nic.mac1609_4 	SlotsBackoff 	0
scalar IntersectionExampleScenario.node[36].nic.mac1609_4 	NumInternalContention 	0
scalar IntersectionExampleScenario.node[36].nic.mac1609_4 	totalBusyTime 	0
scalar IntersectionExampleScenario.node[36].veinsmobility 	startTime 	96.75
scalar IntersectionExampleScenario.node[36].veinsmobility 	totalTime 	49.75
scalar IntersectionExampleScenario.node[36].veinsmobility 	stopTime 	146.75
scalar IntersectionExampleScenario.node[36].veinsmobility 	minSpeed 	2.640172958374
scalar IntersectionExampleScenario.node[36].veinsmobility 	maxSpeed 	15.25
scalar IntersectionExampleScenario.node[36].veinsmobility 	totalDistance 	546.25757494184
scalar IntersectionExampleScenario.node[36].veinsmobility 	totalCO2Emission 	139.39647760741
scalar IntersectionExampleScenario.node[33].appl 	VehicleRemoved 	0
scalar IntersectionExampleScenario.node[33].appl 	ArrivedAtDest 	1
scalar IntersectionExampleScenario.node[33].appl 	IntersectionEnterTime 	89.25
scalar IntersectionExampleScenario.node[33].appl 	IntersectionExitTime 	131.57755309067
scalar IntersectionExampleScenario.node[33].appl 	NumberOfCollisions 	0
scalar IntersectionExampleScenario.node[33].nic.phy80211p 	busyTime 	0
scalar IntersectionExampleScenario.node[33].nic.mac1609_4 	ReceivedUnicastPackets 	0
scalar IntersectionExampleScenario.node[33].nic.mac1609_4 	ReceivedBroadcasts 	0
scalar IntersectionExampleScenario.node[33].nic.mac1609_4 	SentPackets 	0
scalar IntersectionExampleScenario.node[33].nic.mac1609_4 	SNIRLostPackets 	0
scalar IntersectionExampleScenario.node[33].nic.mac1609_4 	RXTXLostPackets 	0
scalar IntersectionExampleScenario.node[33].nic.mac1609_4 	TotalLostPackets 	0
scalar IntersectionExampleScenario.node[33].nic.mac1609_4 	DroppedPacketsInMac 	0
scalar IntersectionExampleScenario.node[33].nic.mac1609_4 	TooLittleTime 	0
scalar IntersectionExampleScenario.node[33].nic.mac1609_4 	TimesIntoBackoff 	0
scalar IntersectionExampleScenario.node[33].nic.mac1609_4 	SlotsBackoff 	0
scalar IntersectionExampleScenario.node[33].nic.mac1609_4 	NumInternalContention 	0
scalar IntersectionExampleScenario.node[33].nic.mac1609_4 	totalBusyTime 	0
scalar IntersectionExampleScenario.node[33].veinsmobility 	startTime 	89.25
scalar IntersectionExampleScenario.node[33].veinsmobility 	totalTime 	58.75
scalar IntersectionExampleScenario.node[33].veinsmobility 	stopTime 	148.25
scalar IntersectionExampleScenario.node[33].veinsmobility 	minSpeed 	0
scalar IntersectionExampleScenario.node[33].veinsmobility 	maxSpeed 	15.875
scalar IntersectionExampleScenario.node[33].veinsmobility 	totalDistance 	545.84717465789
scalar IntersectionExampleScenario.node[33].veinsmobility 	totalCO2Emission 	154.23613054768
scalar IntersectionExampleScenario.node[34].appl 	VehicleRemoved 	0
scalar IntersectionExampleScenario.node[34].appl 	ArrivedAtDest 	1
scalar IntersectionExampleScenario.node[34].appl 	IntersectionEnterTime 	93.75
scalar IntersectionExampleScenario.node[34].appl 	IntersectionExitTime 	134.3523875766
scalar IntersectionExampleScenario.node[34].appl 	NumberOfCollisions 	0
scalar IntersectionExampleScenario.node[34].nic.phy80211p 	busyTime 	0
scalar IntersectionExampleScenario.node[34].nic.mac1609_4 	ReceivedUnicastPackets 	0
scalar IntersectionExampleScenario.node[34].nic.mac1609_4 	ReceivedBroadcasts 	0
scalar IntersectionExampleScenario.node[34].nic.mac1609_4 	SentPackets 	0
scalar IntersectionExampleScenario.node[34].nic.mac1609_4 	SNIRLostPackets 	0
scalar IntersectionExampleScenario.node[34].nic.mac1609_4 	RXTXLostPackets 	0
scalar IntersectionExampleScenario.node[34].nic.mac1609_4 	TotalLostPackets 	0
scalar IntersectionExampleScenario.node[34].nic.mac1609_4 	DroppedPacketsInMac 	0
scalar IntersectionExampleScenario.node[34].nic.mac1609_4 	TooLittleTime 	0
scalar IntersectionExampleScenario.node[34].nic.mac1609_4 	TimesIntoBackoff 	0
scalar IntersectionExampleScenario.node[34].nic.mac1609_4 	SlotsBackoff 	0
scalar IntersectionExampleScenario.node[34].nic.mac1609_4 	NumInternalContention 	0
scalar IntersectionExampleScenario.node[34].nic.mac1609_4 	totalBusyTime 	0
scalar IntersectionExampleScenario.node[34].veinsmobility 	startTime 	93.75
scalar IntersectionExampleScenario.node[34].veinsmobility 	totalTime 	57
scalar IntersectionExampleScenario.node[34].veinsmobility 	stopTime 	151
scalar IntersectionExampleScenario.node[34].veinsmobility 	minSpeed 	0
scalar IntersectionExampleScenario.node[34].veinsmobility 	maxSpeed 	15.875
scalar IntersectionExampleScenario.node[34].veinsmobility 	totalDistance 	544.9286982686
scalar IntersectionExampleScenario.node[34].veinsmobility 	totalCO2Emission 	150.12382817282
scalar IntersectionExampleScenario.node[37].appl 	VehicleRemoved 	0
scalar IntersectionExampleScenario.node[37].appl 	ArrivedAtDest 	1
scalar IntersectionExampleScenario.node[37].appl 	IntersectionEnterTime 	103.5
scalar IntersectionExampleScenario.node[37].appl 	IntersectionExitTime 	140.26442704661
scalar IntersectionExampleScenario.node[37].appl 	NumberOfCollisions 	0
scalar IntersectionExampleScenario.node[37].nic.phy80211p 	busyTime 	0
scalar IntersectionExampleScenario.node[37].nic.mac1609_4 	ReceivedUnicastPackets 	0
scalar IntersectionExampleScenario.node[37].nic.mac1609_4 	ReceivedBroadcasts 	0
scalar IntersectionExampleScenario.node[37].nic.mac1609_4 	SentPackets 	0
scalar IntersectionExampleScenario.node[37].nic.mac1609_4 	SNIRLostPackets 	0
scalar IntersectionExampleScenario.node[37].nic.mac1609_4 	RXTXLostPackets 	0
scalar IntersectionExampleScenario.node[37].nic.mac1609_4 	TotalLostPackets 	0
scalar IntersectionExampleScenario.node[37].nic.mac1609_4 	DroppedPacketsInMac 	0
scalar IntersectionExampleScenario.node[37].nic.mac1609_4 	TooLittleTime 	0
scalar IntersectionExampleScenario.node[37].nic.mac1609_4 	TimesIntoBackoff 	0
scalar IntersectionExampleScenario.node[37].nic.mac1609_4 	SlotsBackoff 	0
scalar IntersectionExampleScenario.node[37].nic.mac1609_4 	NumInternalContention 	0
scalar IntersectionExampleScenario.node[37].nic.mac1609_4 	totalBusyTime 	0
scalar IntersectionExampleScenario.node[37].veinsmobility 	startTime 	103.5
scalar IntersectionExampleScenario.node[37].veinsmobility 	totalTime 	52.25
scalar IntersectionExampleScenario.node[37].veinsmobility 	stopTime 	156
scalar IntersectionExampleScenario.node[37].veinsmobility 	minSpeed 	0
scalar IntersectionExampleScenario.node[37].veinsmobility 	maxSpeed 	16.27499961853
scalar IntersectionExampleScenario.node[37].veinsmobility 	totalDistance 	550.17155565372
scalar IntersectionExampleScenario.node[37].veinsmobility 	totalCO2Emission 	150.07682917297
scalar IntersectionExampleScenario.node[46].appl 	VehicleRemoved 	0
scalar IntersectionExampleScenario.node[46].appl 	ArrivedAtDest 	1
scalar IntersectionExampleScenario.node[46].appl 	IntersectionEnterTime 	121.25
scalar IntersectionExampleScenario.node[46].appl 	IntersectionExitTime 	144.0122920037
scalar IntersectionExampleScenario.node[46].appl 	NumberOfCollisions 	0
scalar IntersectionExampleScenario.node[46].nic.phy80211p 	busyTime 	0
scalar IntersectionExampleScenario.node[46].nic.mac1609_4 	ReceivedUnicastPackets 	0
scalar IntersectionExampleScenario.node[46].nic.mac1609_4 	ReceivedBroadcasts 	0
scalar IntersectionExampleScenario.node[46].nic.mac1609_4 	SentPackets 	0
scalar IntersectionExampleScenario.node[46].nic.mac1609_4 	SNIRLostPackets 	0
scalar IntersectionExampleScenario.node[46].nic.mac1609_4 	RXTXLostPackets 	0
scalar IntersectionExampleScenario.node[46].nic.mac1609_4 	TotalLostPackets 	0
scalar IntersectionExampleScenario.node[46].nic.mac1609_4 	DroppedPacketsInMac 	0
scalar IntersectionExampleScenario.node[46].nic.mac1609_4 	TooLittleTime 	0
scalar IntersectionExampleScenario.node[46].nic.mac1609_4 	TimesIntoBackoff 	0
scalar IntersectionExampleScenario.node[46].nic.mac1609_4 	SlotsBackoff 	0
scalar IntersectionExampleScenario.node[46].nic.mac1609_4 	NumInternalContention 	0
scalar IntersectionExampleScenario.node[46].nic.mac1609_4 	totalBusyTime 	0
scalar IntersectionExampleScenario.node[46].veinsmobility 	startTime 	121.25
scalar IntersectionExampleScenario.node[46].veinsmobility 	totalTime 	38.25
scalar IntersectionExampleScenario.node[46].veinsmobility 	stopTime 	159.75
scalar IntersectionExampleScenario.node[46].veinsmobility 	minSpeed 	5.6500000953674
scalar IntersectionExampleScenario.node[46].veinsmobility 	maxSpeed 	16.27499961853
scalar IntersectionExampleScenario.node[46].veinsmobility 	totalDistance 	552.22812652588
scalar IntersectionExampleScenario.node[46].veinsmobility 	totalCO2Emission 	130.2655579293
scalar IntersectionExampleScenario.node[23].appl 	VehicleRemoved 	0
scalar IntersectionExampleScenario.node[23].appl 	ArrivedAtDest 	1
scalar IntersectionExampleScenario.node[23].appl 	IntersectionEnterTime 	79.5
scalar IntersectionExampleScenario.node[23].appl 	IntersectionExitTime 	146.50982337643
scalar IntersectionExampleScenario.node[23].appl 	NumberOfCollisions 	0
scalar IntersectionExampleScenario.node[23].nic.phy80211p 	busyTime 	0
scalar IntersectionExampleScenario.node[23].nic.mac1609_4 	ReceivedUnicastPackets 	0
scalar IntersectionExampleScenario.node[23].nic.mac1609_4 	ReceivedBroadcasts 	0
scalar IntersectionExampleScenario.node[23].nic.mac1609_4 	SentPackets 	0
scalar IntersectionExampleScenario.node[23].nic.mac1609_4 	SNIRLostPackets 	0
scalar IntersectionExampleScenario.node[23].nic.mac1609_4 	RXTXLostPackets 	0
scalar IntersectionExampleScenario.node[23].nic.mac1609_4 	TotalLostPackets 	0
scalar IntersectionExampleScenario.node[23].nic.mac1609_4 	DroppedPacketsInMac 	0
scalar IntersectionExampleScenario.node[23].nic.mac1609_4 	TooLittleTime 	0
scalar IntersectionExampleScenario.node[23].nic.mac1609_4 	TimesIntoBackoff 	0
scalar IntersectionExampleScenario.node[23].nic.mac1609_4 	SlotsBackoff 	0
scalar IntersectionExampleScenario.node[23].nic.mac1609_4 	NumInternalContention 	0
scalar IntersectionExampleScenario.node[23].nic.mac1609_4 	totalBusyTime 	0
scalar IntersectionExampleScenario.node[23].veinsmobility 	startTime 	79.5
scalar IntersectionExampleScenario.node[23].veinsmobility 	totalTime 	84
scalar IntersectionExampleScenario.node[23].veinsmobility 	stopTime 	163.75
scalar IntersectionExampleScenario.node[23].veinsmobility 	minSpeed 	0
scalar IntersectionExampleScenario.node[23].veinsmobility 	maxSpeed 	15.25
scalar IntersectionExampleScenario.node[23].veinsmobility 	totalDistance 	545.00279904754
scalar IntersectionExampleScenario.node[23].veinsmobility 	totalCO2Emission 	176.26407666346
scalar IntersectionExampleScenario.node[27].appl 	VehicleRemoved 	0
scalar IntersectionExampleScenario.node[27].appl 	ArrivedAtDest 	1
scalar IntersectionExampleScenario.node[27].appl 	IntersectionEnterTime 	82.75
scalar IntersectionExampleScenario.node[27].appl 	IntersectionExitTime 	148.27356164914
scalar IntersectionExampleScenario.node[27].appl 	NumberOfCollisions 	0
scalar IntersectionExampleScenario.node[27].nic.phy80211p 	busyTime 	0
scalar IntersectionExampleScenario.node[27].nic.mac1609_4 	ReceivedUnicastPackets 	0
scalar IntersectionExampleScenario.node[27].nic.mac1609_4 	ReceivedBroadcasts 	0
scalar IntersectionExampleScenario.node[27].nic.mac1609_4 	SentPackets 	0
scalar IntersectionExampleScenario.node[27].nic.mac1609_4 	SNIRLostPackets 	0
scalar IntersectionExampleScenario.node[27].nic.mac1609_4 	RXTXLostPackets 	0
scalar IntersectionExampleScenario.node[27].nic.mac1609_4 	TotalLostPackets 	0
scalar IntersectionExampleScenario.node[27].nic.mac1609_4 	DroppedPacketsInMac 	0
scalar IntersectionExampleScenario.node[27].nic.mac1609_4 	TooLittleTime 	0
scalar IntersectionExampleScenario.node[27].nic.mac1609_4 	TimesIntoBackoff 	0
scalar IntersectionExampleScenario.node[27].nic.mac1609_4 	SlotsBackoff 	0
scalar IntersectionExampleScenario.node[27].nic.mac1609_4 	NumInternalContention 	0
scalar IntersectionExampleScenario.node[27].nic.mac1609_4 	totalBusyTime 	0
scalar IntersectionExampleScenario.node[27].veinsmobility 	startTime 	82.75
scalar IntersectionExampleScenario.node[27].veinsmobility 	totalTime 	81.25
scalar IntersectionExampleScenario.node[27].veinsmobility 	stopTime 	164.25
scalar IntersectionExampleScenario.node[27].veinsmobility 	minSpeed 	0
scalar IntersectionExampleScenario.node[27].veinsmobility 	maxSpeed 	16.125
scalar IntersectionExampleScenario.node[27].veinsmobility 	totalDistance 	565.61734008789
scalar IntersectionExampleScenario.node[27].veinsmobility 	totalCO2Emission 	181.92579376923
scalar IntersectionExampleScenario.node[30].appl 	VehicleRemoved 	0
scalar IntersectionExampleScenario.node[30].appl 	ArrivedAtDest 	1
scalar IntersectionExampleScenario.node[30].appl 	IntersectionEnterTime 	84.5
scalar IntersectionExampleScenario.node[30].appl 	IntersectionExitTime 	150.25971096178
scalar IntersectionExampleScenario.node[30].appl 	NumberOfCollisions 	0
scalar IntersectionExampleScenario.node[30].nic.phy80211p 	busyTime 	0
scalar IntersectionExampleScenario.node[30].nic.mac1609_4 	ReceivedUnicastPackets 	0
scalar IntersectionExampleScenario.node[30].nic.mac1609_4 	ReceivedBroadcasts 	0
scalar IntersectionExampleScenario.node[30].nic.mac1609_4 	SentPackets 	0
scalar IntersectionExampleScenario.node[30].nic.mac1609_4 	SNIRLostPackets 	0
scalar IntersectionExampleScenario.node[30].nic.mac1609_4 	RXTXLostPackets 	0
scalar IntersectionExampleScenario.node[30].nic.mac1609_4 	TotalLostPackets 	0
scalar IntersectionExampleScenario.node[30].nic.mac1609_4 	DroppedPacketsInMac 	0
scalar IntersectionExampleScenario.node[30].nic.mac1609_4 	TooLittleTime 	0
scalar IntersectionExampleScenario.node[30].nic.mac1609_4 	TimesIntoBackoff 	0
scalar IntersectionExampleScenario.node[30].nic.mac1609_4 	SlotsBackoff 	0
scalar IntersectionExampleScenario.node[30].nic.mac1609_4 	NumInternalContention 	0
scalar IntersectionExampleScenario.node[30].nic.mac1609_4 	totalBusyTime 	0
scalar IntersectionExampleScenario.node[30].veinsmobility 	startTime 	84.5
scalar IntersectionExampleScenario.node[30].veinsmobility 	totalTime 	83
scalar IntersectionExampleScenario.node[30].veinsmobility 	stopTime 	167.75
scalar IntersectionExampleScenario.node[30].veinsmobility 	minSpeed 	0
scalar IntersectionExampleScenario.node[30].veinsmobility 	maxSpeed 	15.25
scalar IntersectionExampleScenario.node[30].veinsmobility 	totalDistance 	570.83559819662
scalar IntersectionExampleScenario.node[30].veinsmobility 	totalCO2Emission 	172.75192763922
scalar IntersectionExampleScenario.node[32].appl 	VehicleRemoved 	0
scalar IntersectionExampleScenario.node[32].appl 	ArrivedAtDest 	1
scalar IntersectionExampleScenario.node[32].appl 	IntersectionEnterTime 	87
scalar IntersectionExampleScenario.node[32].appl 	IntersectionExitTime 	152.5422702333
scalar IntersectionExampleScenario.node[32].appl 	NumberOfCollisions 	0
scalar IntersectionExampleScenario.node[32].nic.phy80211p 	busyTime 	0
scalar IntersectionExampleScenario.node[32].nic.mac1609_4 	ReceivedUnicastPackets 	0
scalar IntersectionExampleScenario.node[32].nic.mac1609_4 	ReceivedBroadcasts 	0
scalar IntersectionExampleScenario.node[32].nic.mac1609_4 	SentPackets 	0
scalar IntersectionExampleScenario.node[32].nic.mac1609_4 	SNIRLostPackets 	0
scalar IntersectionExampleScenario.node[32].nic.mac1609_4 	RXTXLostPackets 	0
scalar IntersectionExampleScenario.node[32].nic.mac1609_4 	TotalLostPackets 	0
scalar IntersectionExampleScenario.node[32].nic.mac1609_4 	DroppedPacketsInMac 	0
scalar IntersectionExampleScenario.node[32].nic.mac1609_4 	TooLittleTime 	0
scalar IntersectionExampleScenario.node[32].nic.mac1609_4 	TimesIntoBackoff 	0
scalar IntersectionExampleScenario.node[32].nic.mac1609_4 	SlotsBackoff 	0
scalar IntersectionExampleScenario.node[32].nic.mac1609_4 	NumInternalContention 	0
scalar IntersectionExampleScenario.node[32].nic.mac1609_4 	totalBusyTime 	0
scalar IntersectionExampleScenario.node[32].veinsmobility 	startTime 	87
scalar IntersectionExampleScenario.node[32].veinsmobility 	totalTime 	81.25
scalar IntersectionExampleScenario.node[32].veinsmobility 	stopTime 	168.5
scalar IntersectionExampleScenario.node[32].veinsmobility 	minSpeed 	0
scalar IntersectionExampleScenario.node[32].veinsmobility 	maxSpeed 	16
scalar IntersectionExampleScenario.node[32].veinsmobility 	totalDistance 	578.8232674627
scalar IntersectionExampleScenario.node[32].veinsmobility 	totalCO2Emission 	185.52105395992
scalar IntersectionExampleScenario.node[38].appl 	VehicleRemoved 	0
scalar IntersectionExampleScenario.node[38].appl 	ArrivedAtDest 	1
scalar IntersectionExampleScenario.node[38].appl 	IntersectionEnterTime 	107.25
scalar IntersectionExampleScenario.node[38].appl 	IntersectionExitTime 	155.26159051902
scalar IntersectionExampleScenario.node[38].appl 	NumberOfCollisions 	0
scalar IntersectionExampleScenario.node[38].nic.phy80211p 	busyTime 	0
scalar IntersectionExampleScenario.node[38].nic.mac1609_4 	ReceivedUnicastPackets 	0
scalar IntersectionExampleScenario.node[38].nic.mac1609_4 	ReceivedBroadcasts 	0
scalar IntersectionExampleScenario.node[38].nic.mac1609_4 	SentPackets 	0
scalar IntersectionExampleScenario.node[38].nic.mac1609_4 	SNIRLostPackets 	0
scalar IntersectionExampleScenario.node[38].nic.mac1609_4 	RXTXLostPackets 	0
scalar IntersectionExampleScenario.node[38].nic.mac1609_4 	TotalLostPackets 	0
scalar IntersectionExampleScenario.node[38].nic.mac1609_4 	DroppedPacketsInMac 	0
scalar IntersectionExampleScenario.node[38].nic.mac1609_4 	TooLittleTime 	0
scalar IntersectionExampleScenario.node[38].nic.mac1609_4 	TimesIntoBackoff 	0
scalar IntersectionExampleScenario.node[38].nic.mac1609_4 	SlotsBackoff 	0
scalar IntersectionExampleScenario.node[38].nic.mac1609_4 	NumInternalContention 	0
scalar IntersectionExampleScenario.node[38].nic.mac1609_4 	totalBusyTime 	0
scalar IntersectionExampleScenario.node[38].veinsmobility 	startTime 	107.25
scalar IntersectionExampleScenario.node[38].veinsmobility 	totalTime 	64
scalar IntersectionExampleScenario.node[38].veinsmobility 	stopTime 	171.5
scalar IntersectionExampleScenario.node[38].veinsmobility 	minSpeed 	0
scalar IntersectionExampleScenario.node[38].veinsmobility 	maxSpeed 	15.64999961853
scalar IntersectionExampleScenario.node[38].veinsmobility 	totalDistance 	550.01063646426
scalar IntersectionExampleScenario.node[38].veinsmobility 	totalCO2Emission 	170.03843276997
scalar IntersectionExampleScenario.node[42].appl 	VehicleRemoved 	0
scalar IntersectionExampleScenario.node[42].appl 	ArrivedAtDest 	1
scalar IntersectionExampleScenario.node[42].appl 	IntersectionEnterTime 	116.25
scalar IntersectionExampleScenario.node[42].appl 	IntersectionExitTime 	156.35413258182
scalar IntersectionExampleScenario.node[42].appl 	NumberOfCollisions 	0
scalar IntersectionExampleScenario.node[42].nic.phy80211p 	busyTime 	0
scalar IntersectionExampleScenario.node[42].nic.mac1609_4 	ReceivedUnicastPackets 	0
scalar IntersectionExampleScenario.node[42].nic.mac1609_4 	ReceivedBroadcasts 	0
scalar IntersectionExampleScenario.node[42].nic.mac1609_4 	SentPackets 	0
scalar IntersectionExampleScenario.node[42].nic.mac1609_4 	SNIRLostPackets 	0
scalar IntersectionExampleScenario.node[42].nic.mac1609_4 	RXTXLostPackets 	0
scalar IntersectionExampleScenario.node[42].nic.mac1609_4 	TotalLostPackets 	0
scalar IntersectionExampleScenario.node[42].nic.mac1609_4 	DroppedPacketsInMac 	0
scalar IntersectionExampleScenario.node[42].nic.mac1609_4 	TooLittleTime 	0
scalar IntersectionExampleScenario.node[42].nic.mac1609_4 	TimesIntoBackoff 	0
scalar IntersectionExampleScenario.node[42].nic.mac1609_4 	SlotsBackoff 	0
scalar IntersectionExampleScenario.node[42].nic.mac1609_4 	NumInternalContention 	0
scalar IntersectionExampleScenario.node[42].nic.mac1609_4 	totalBusyTime 	0
[...]
scalar IntersectionExampleScenario.node[749].veinsmobility 	totalCO2Emission 	59.754410516688
scalar IntersectionExampleScenario.node[750].appl 	VehicleRemoved 	0
scalar IntersectionExampleScenario.node[750].appl 	ArrivedAtDest 	0
scalar IntersectionExampleScenario.node[750].appl 	IntersectionEnterTime 	1782
scalar IntersectionExampleScenario.node[750].appl 	IntersectionExitTime 	-1
scalar IntersectionExampleScenario.node[750].appl 	NumberOfCollisions 	0
scalar IntersectionExampleScenario.node[750].nic.phy80211p 	busyTime 	0
scalar IntersectionExampleScenario.node[750].nic.mac1609_4 	ReceivedUnicastPackets 	0
scalar IntersectionExampleScenario.node[750].nic.mac1609_4 	ReceivedBroadcasts 	0
scalar IntersectionExampleScenario.node[750].nic.mac1609_4 	SentPackets 	0
scalar IntersectionExampleScenario.node[750].nic.mac1609_4 	SNIRLostPackets 	0
scalar IntersectionExampleScenario.node[750].nic.mac1609_4 	RXTXLostPackets 	0
scalar IntersectionExampleScenario.node[750].nic.mac1609_4 	TotalLostPackets 	0
scalar IntersectionExampleScenario.node[750].nic.mac1609_4 	DroppedPacketsInMac 	0
scalar IntersectionExampleScenario.node[750].nic.mac1609_4 	TooLittleTime 	0
scalar IntersectionExampleScenario.node[750].nic.mac1609_4 	TimesIntoBackoff 	0
scalar IntersectionExampleScenario.node[750].nic.mac1609_4 	SlotsBackoff 	0
scalar IntersectionExampleScenario.node[750].nic.mac1609_4 	NumInternalContention 	0
scalar IntersectionExampleScenario.node[750].nic.mac1609_4 	totalBusyTime 	0
scalar IntersectionExampleScenario.node[750].veinsmobility 	startTime 	1782
scalar IntersectionExampleScenario.node[750].veinsmobility 	totalTime 	18
scalar IntersectionExampleScenario.node[750].veinsmobility 	stopTime 	1800
scalar IntersectionExampleScenario.node[750].veinsmobility 	minSpeed 	5.6500000953674
scalar IntersectionExampleScenario.node[750].veinsmobility 	maxSpeed 	15.64999961853
scalar IntersectionExampleScenario.node[750].veinsmobility 	totalDistance 	228.86576080322
scalar IntersectionExampleScenario.node[750].veinsmobility 	totalCO2Emission 	56.842120501121
scalar IntersectionExampleScenario.node[751].appl 	VehicleRemoved 	0
scalar IntersectionExampleScenario.node[751].appl 	ArrivedAtDest 	0
scalar IntersectionExampleScenario.node[751].appl 	IntersectionEnterTime 	1786.25
scalar IntersectionExampleScenario.node[751].appl 	IntersectionExitTime 	-1
scalar IntersectionExampleScenario.node[751].appl 	NumberOfCollisions 	0
scalar IntersectionExampleScenario.node[751].nic.phy80211p 	busyTime 	0
scalar IntersectionExampleScenario.node[751].nic.mac1609_4 	ReceivedUnicastPackets 	0
scalar IntersectionExampleScenario.node[751].nic.mac1609_4 	ReceivedBroadcasts 	0
scalar IntersectionExampleScenario.node[751].nic.mac1609_4 	SentPackets 	0
scalar IntersectionExampleScenario.node[751].nic.mac1609_4 	SNIRLostPackets 	0
scalar IntersectionExampleScenario.node[751].nic.mac1609_4 	RXTXLostPackets 	0
scalar IntersectionExampleScenario.node[751].nic.mac1609_4 	TotalLostPackets 	0
scalar IntersectionExampleScenario.node[751].nic.mac1609_4 	DroppedPacketsInMac 	0
scalar IntersectionExampleScenario.node[751].nic.mac1609_4 	TooLittleTime 	0
scalar IntersectionExampleScenario.node[751].nic.mac1609_4 	TimesIntoBackoff 	0
scalar IntersectionExampleScenario.node[751].nic.mac1609_4 	SlotsBackoff 	0
scalar IntersectionExampleScenario.node[751].nic.mac1609_4 	NumInternalContention 	0
scalar IntersectionExampleScenario.node[751].nic.mac1609_4 	totalBusyTime 	0
scalar IntersectionExampleScenario.node[751].veinsmobility 	startTime 	1786.25
scalar IntersectionExampleScenario.node[751].veinsmobility 	totalTime 	13.75
scalar IntersectionExampleScenario.node[751].veinsmobility 	stopTime 	1800
scalar IntersectionExampleScenario.node[751].veinsmobility 	minSpeed 	5.6500000953674
scalar IntersectionExampleScenario.node[751].veinsmobility 	maxSpeed 	15.03115940094
scalar IntersectionExampleScenario.node[751].veinsmobility 	totalDistance 	185.39726257324
scalar IntersectionExampleScenario.node[751].veinsmobility 	totalCO2Emission 	48.911184866848
scalar IntersectionExampleScenario.node[752].appl 	VehicleRemoved 	0
scalar IntersectionExampleScenario.node[752].appl 	ArrivedAtDest 	0
scalar IntersectionExampleScenario.node[752].appl 	IntersectionEnterTime 	1787
scalar IntersectionExampleScenario.node[752].appl 	IntersectionExitTime 	-1
scalar IntersectionExampleScenario.node[752].appl 	NumberOfCollisions 	0
scalar IntersectionExampleScenario.node[752].nic.phy80211p 	busyTime 	0
scalar IntersectionExampleScenario.node[752].nic.mac1609_4 	ReceivedUnicastPackets 	0
scalar IntersectionExampleScenario.node[752].nic.mac1609_4 	ReceivedBroadcasts 	0
scalar IntersectionExampleScenario.node[752].nic.mac1609_4 	SentPackets 	0
scalar IntersectionExampleScenario.node[752].nic.mac1609_4 	SNIRLostPackets 	0
scalar IntersectionExampleScenario.node[752].nic.mac1609_4 	RXTXLostPackets 	0
scalar IntersectionExampleScenario.node[752].nic.mac1609_4 	TotalLostPackets 	0
scalar IntersectionExampleScenario.node[752].nic.mac1609_4 	DroppedPacketsInMac 	0
scalar IntersectionExampleScenario.node[752].nic.mac1609_4 	TooLittleTime 	0
scalar IntersectionExampleScenario.node[752].nic.mac1609_4 	TimesIntoBackoff 	0
scalar IntersectionExampleScenario.node[752].nic.mac1609_4 	SlotsBackoff 	0
scalar IntersectionExampleScenario.node[752].nic.mac1609_4 	NumInternalContention 	0
scalar IntersectionExampleScenario.node[752].nic.mac1609_4 	totalBusyTime 	0
scalar IntersectionExampleScenario.node[752].veinsmobility 	startTime 	1787
scalar IntersectionExampleScenario.node[752].veinsmobility 	totalTime 	13
scalar IntersectionExampleScenario.node[752].veinsmobility 	stopTime 	1800
scalar IntersectionExampleScenario.node[752].veinsmobility 	minSpeed 	5.6500000953674
scalar IntersectionExampleScenario.node[752].veinsmobility 	maxSpeed 	15.64999961853
scalar IntersectionExampleScenario.node[752].veinsmobility 	totalDistance 	162.66448974609
scalar IntersectionExampleScenario.node[752].veinsmobility 	totalCO2Emission 	47.225338287353
scalar IntersectionExampleScenario.node[753].appl 	VehicleRemoved 	0
scalar IntersectionExampleScenario.node[753].appl 	ArrivedAtDest 	0
scalar IntersectionExampleScenario.node[753].appl 	IntersectionEnterTime 	1790.75
scalar IntersectionExampleScenario.node[753].appl 	IntersectionExitTime 	-1
scalar IntersectionExampleScenario.node[753].appl 	NumberOfCollisions 	0
scalar IntersectionExampleScenario.node[753].nic.phy80211p 	busyTime 	0
scalar IntersectionExampleScenario.node[753].nic.mac1609_4 	ReceivedUnicastPackets 	0
scalar IntersectionExampleScenario.node[753].nic.mac1609_4 	ReceivedBroadcasts 	0
scalar IntersectionExampleScenario.node[753].nic.mac1609_4 	SentPackets 	0
scalar IntersectionExampleScenario.node[753].nic.mac1609_4 	SNIRLostPackets 	0
scalar IntersectionExampleScenario.node[753].nic.mac1609_4 	RXTXLostPackets 	0
scalar IntersectionExampleScenario.node[753].nic.mac1609_4 	TotalLostPackets 	0
scalar IntersectionExampleScenario.node[753].nic.mac1609_4 	DroppedPacketsInMac 	0
scalar IntersectionExampleScenario.node[753].nic.mac1609_4 	TooLittleTime 	0
scalar IntersectionExampleScenario.node[753].nic.mac1609_4 	TimesIntoBackoff 	0
scalar IntersectionExampleScenario.node[753].nic.mac1609_4 	SlotsBackoff 	0
scalar IntersectionExampleScenario.node[753].nic.mac1609_4 	NumInternalContention 	0
scalar IntersectionExampleScenario.node[753].nic.mac1609_4 	totalBusyTime 	0
scalar IntersectionExampleScenario.node[753].veinsmobility 	startTime 	1790.75
scalar IntersectionExampleScenario.node[753].veinsmobility 	totalTime 	9.25
scalar IntersectionExampleScenario.node[753].veinsmobility 	stopTime 	1800
scalar IntersectionExampleScenario.node[753].veinsmobility 	minSpeed 	5.6500000953674
scalar IntersectionExampleScenario.node[753].veinsmobility 	maxSpeed 	15.02499961853
scalar IntersectionExampleScenario.node[753].veinsmobility 	totalDistance 	114.43965911865
scalar IntersectionExampleScenario.node[753].veinsmobility 	totalCO2Emission 	38.558747782733
scalar IntersectionExampleScenario.node[754].appl 	VehicleRemoved 	0
scalar IntersectionExampleScenario.node[754].appl 	ArrivedAtDest 	0
scalar IntersectionExampleScenario.node[754].appl 	IntersectionEnterTime 	1791.25
scalar IntersectionExampleScenario.node[754].appl 	IntersectionExitTime 	-1
scalar IntersectionExampleScenario.node[754].appl 	NumberOfCollisions 	0
scalar IntersectionExampleScenario.node[754].nic.phy80211p 	busyTime 	0
scalar IntersectionExampleScenario.node[754].nic.mac1609_4 	ReceivedUnicastPackets 	0
scalar IntersectionExampleScenario.node[754].nic.mac1609_4 	ReceivedBroadcasts 	0
scalar IntersectionExampleScenario.node[754].nic.mac1609_4 	SentPackets 	0
scalar IntersectionExampleScenario.node[754].nic.mac1609_4 	SNIRLostPackets 	0
scalar IntersectionExampleScenario.node[754].nic.mac1609_4 	RXTXLostPackets 	0
scalar IntersectionExampleScenario.node[754].nic.mac1609_4 	TotalLostPackets 	0
scalar IntersectionExampleScenario.node[754].nic.mac1609_4 	DroppedPacketsInMac 	0
scalar IntersectionExampleScenario.node[754].nic.mac1609_4 	TooLittleTime 	0
scalar IntersectionExampleScenario.node[754].nic.mac1609_4 	TimesIntoBackoff 	0
scalar IntersectionExampleScenario.node[754].nic.mac1609_4 	SlotsBackoff 	0
scalar IntersectionExampleScenario.node[754].nic.mac1609_4 	NumInternalContention 	0
scalar IntersectionExampleScenario.node[754].nic.mac1609_4 	totalBusyTime 	0
scalar IntersectionExampleScenario.node[754].veinsmobility 	startTime 	1791.25
scalar IntersectionExampleScenario.node[754].veinsmobility 	totalTime 	8.75
scalar IntersectionExampleScenario.node[754].veinsmobility 	stopTime 	1800
scalar IntersectionExampleScenario.node[754].veinsmobility 	minSpeed 	5.6500000953674
scalar IntersectionExampleScenario.node[754].veinsmobility 	maxSpeed 	15.02499961853
scalar IntersectionExampleScenario.node[754].veinsmobility 	totalDistance 	111.43218994141
scalar IntersectionExampleScenario.node[754].veinsmobility 	totalCO2Emission 	40.512138469153
scalar IntersectionExampleScenario.node[755].appl 	VehicleRemoved 	0
scalar IntersectionExampleScenario.node[755].appl 	ArrivedAtDest 	0
scalar IntersectionExampleScenario.node[755].appl 	IntersectionEnterTime 	1793
scalar IntersectionExampleScenario.node[755].appl 	IntersectionExitTime 	-1
scalar IntersectionExampleScenario.node[755].appl 	NumberOfCollisions 	0
scalar IntersectionExampleScenario.node[755].nic.phy80211p 	busyTime 	0
scalar IntersectionExampleScenario.node[755].nic.mac1609_4 	ReceivedUnicastPackets 	0
scalar IntersectionExampleScenario.node[755].nic.mac1609_4 	ReceivedBroadcasts 	0
scalar IntersectionExampleScenario.node[755].nic.mac1609_4 	SentPackets 	0
scalar IntersectionExampleScenario.node[755].nic.mac1609_4 	SNIRLostPackets 	0
scalar IntersectionExampleScenario.node[755].nic.mac1609_4 	RXTXLostPackets 	0
scalar IntersectionExampleScenario.node[755].nic.mac1609_4 	TotalLostPackets 	0
scalar IntersectionExampleScenario.node[755].nic.mac1609_4 	DroppedPacketsInMac 	0
scalar IntersectionExampleScenario.node[755].nic.mac1609_4 	TooLittleTime 	0
scalar IntersectionExampleScenario.node[755].nic.mac1609_4 	TimesIntoBackoff 	0
scalar IntersectionExampleScenario.node[755].nic.mac1609_4 	SlotsBackoff 	0
scalar IntersectionExampleScenario.node[755].nic.mac1609_4 	NumInternalContention 	0
scalar IntersectionExampleScenario.node[755].nic.mac1609_4 	totalBusyTime 	0
scalar IntersectionExampleScenario.node[755].veinsmobility 	startTime 	1793
scalar IntersectionExampleScenario.node[755].veinsmobility 	totalTime 	7
scalar IntersectionExampleScenario.node[755].veinsmobility 	stopTime 	1800
scalar IntersectionExampleScenario.node[755].veinsmobility 	minSpeed 	5.6500000953674
scalar IntersectionExampleScenario.node[755].veinsmobility 	maxSpeed 	15.02499961853
scalar IntersectionExampleScenario.node[755].veinsmobility 	totalDistance 	84.889930725098
scalar IntersectionExampleScenario.node[755].veinsmobility 	totalCO2Emission 	36.6118915079
scalar IntersectionExampleScenario.node[756].appl 	VehicleRemoved 	0
scalar IntersectionExampleScenario.node[756].appl 	ArrivedAtDest 	0
scalar IntersectionExampleScenario.node[756].appl 	IntersectionEnterTime 	1793.25
scalar IntersectionExampleScenario.node[756].appl 	IntersectionExitTime 	-1
scalar IntersectionExampleScenario.node[756].appl 	NumberOfCollisions 	0
scalar IntersectionExampleScenario.node[756].nic.phy80211p 	busyTime 	0
scalar IntersectionExampleScenario.node[756].nic.mac1609_4 	ReceivedUnicastPackets 	0
scalar IntersectionExampleScenario.node[756].nic.mac1609_4 	ReceivedBroadcasts 	0
scalar IntersectionExampleScenario.node[756].nic.mac1609_4 	SentPackets 	0
scalar IntersectionExampleScenario.node[756].nic.mac1609_4 	SNIRLostPackets 	0
scalar IntersectionExampleScenario.node[756].nic.mac1609_4 	RXTXLostPackets 	0
scalar IntersectionExampleScenario.node[756].nic.mac1609_4 	TotalLostPackets 	0
scalar IntersectionExampleScenario.node[756].nic.mac1609_4 	DroppedPacketsInMac 	0
scalar IntersectionExampleScenario.node[756].nic.mac1609_4 	TooLittleTime 	0
scalar IntersectionExampleScenario.node[756].nic.mac1609_4 	TimesIntoBackoff 	0
scalar IntersectionExampleScenario.node[756].nic.mac1609_4 	SlotsBackoff 	0
scalar IntersectionExampleScenario.node[756].nic.mac1609_4 	NumInternalContention 	0
scalar IntersectionExampleScenario.node[756].nic.mac1609_4 	totalBusyTime 	0
scalar IntersectionExampleScenario.node[756].veinsmobility 	startTime 	1793.25
scalar IntersectionExampleScenario.node[756].veinsmobility 	totalTime 	6.75
scalar IntersectionExampleScenario.node[756].veinsmobility 	stopTime 	1800
scalar IntersectionExampleScenario.node[756].veinsmobility 	minSpeed 	5.6500000953674
scalar IntersectionExampleScenario.node[756].veinsmobility 	maxSpeed 	15.614009857178
scalar IntersectionExampleScenario.node[756].veinsmobility 	totalDistance 	82.437835693359
scalar IntersectionExampleScenario.node[756].veinsmobility 	totalCO2Emission 	38.819425869994
scalar IntersectionExampleScenario.node[757].appl 	VehicleRemoved 	0
scalar IntersectionExampleScenario.node[757].appl 	ArrivedAtDest 	0
scalar IntersectionExampleScenario.node[757].appl 	IntersectionEnterTime 	1794.75
scalar IntersectionExampleScenario.node[757].appl 	IntersectionExitTime 	-1
scalar IntersectionExampleScenario.node[757].appl 	NumberOfCollisions 	0
scalar IntersectionExampleScenario.node[757].nic.phy80211p 	busyTime 	0
scalar IntersectionExampleScenario.node[757].nic.mac1609_4 	ReceivedUnicastPackets 	0
scalar IntersectionExampleScenario.node[757].nic.mac1609_4 	ReceivedBroadcasts 	0
scalar IntersectionExampleScenario.node[757].nic.mac1609_4 	SentPackets 	0
scalar IntersectionExampleScenario.node[757].nic.mac1609_4 	SNIRLostPackets 	0
scalar IntersectionExampleScenario.node[757].nic.mac1609_4 	RXTXLostPackets 	0
scalar IntersectionExampleScenario.node[757].nic.mac1609_4 	TotalLostPackets 	0
scalar IntersectionExampleScenario.node[757].nic.mac1609_4 	DroppedPacketsInMac 	0
scalar IntersectionExampleScenario.node[757].nic.mac1609_4 	TooLittleTime 	0
scalar IntersectionExampleScenario.node[757].nic.mac1609_4 	TimesIntoBackoff 	0
scalar IntersectionExampleScenario.node[757].nic.mac1609_4 	SlotsBackoff 	0
scalar IntersectionExampleScenario.node[757].nic.mac1609_4 	NumInternalContention 	0
scalar IntersectionExampleScenario.node[757].nic.mac1609_4 	totalBusyTime 	0
scalar IntersectionExampleScenario.node[757].veinsmobility 	startTime 	1794.75
scalar IntersectionExampleScenario.node[757].veinsmobility 	totalTime 	5.25
scalar IntersectionExampleScenario.node[757].veinsmobility 	stopTime 	1800
scalar IntersectionExampleScenario.node[757].veinsmobility 	minSpeed 	5.6500000953674
scalar IntersectionExampleScenario.node[757].veinsmobility 	maxSpeed 	14.39999961853
scalar IntersectionExampleScenario.node[757].veinsmobility 	totalDistance 	57.978240966797
scalar IntersectionExampleScenario.node[757].veinsmobility 	totalCO2Emission 	30.806895013762
scalar IntersectionExampleScenario.node[758].appl 	VehicleRemoved 	0
scalar IntersectionExampleScenario.node[758].appl 	ArrivedAtDest 	0
scalar IntersectionExampleScenario.node[758].appl 	IntersectionEnterTime 	1797.5
scalar IntersectionExampleScenario.node[758].appl 	IntersectionExitTime 	-1
scalar IntersectionExampleScenario.node[758].appl 	NumberOfCollisions 	0
scalar IntersectionExampleScenario.node[758].nic.phy80211p 	busyTime 	0
scalar IntersectionExampleScenario.node[758].nic.mac1609_4 	ReceivedUnicastPackets 	0
scalar IntersectionExampleScenario.node[758].nic.mac1609_4 	ReceivedBroadcasts 	0
scalar IntersectionExampleScenario.node[758].nic.mac1609_4 	SentPackets 	0
scalar IntersectionExampleScenario.node[758].nic.mac1609_4 	SNIRLostPackets 	0
scalar IntersectionExampleScenario.node[758].nic.mac1609_4 	RXTXLostPackets 	0
scalar IntersectionExampleScenario.node[758].nic.mac1609_4 	TotalLostPackets 	0
scalar IntersectionExampleScenario.node[758].nic.mac1609_4 	DroppedPacketsInMac 	0
scalar IntersectionExampleScenario.node[758].nic.mac1609_4 	TooLittleTime 	0
scalar IntersectionExampleScenario.node[758].nic.mac1609_4 	TimesIntoBackoff 	0
scalar IntersectionExampleScenario.node[758].nic.mac1609_4 	SlotsBackoff 	0
scalar IntersectionExampleScenario.node[758].nic.mac1609_4 	NumInternalContention 	0
scalar IntersectionExampleScenario.node[758].nic.mac1609_4 	totalBusyTime 	0
scalar IntersectionExampleScenario.node[758].veinsmobility 	startTime 	1797.5
scalar IntersectionExampleScenario.node[758].veinsmobility 	totalTime 	2.5
scalar IntersectionExampleScenario.node[758].veinsmobility 	stopTime 	1800
scalar IntersectionExampleScenario.node[758].veinsmobility 	minSpeed 	5.6500000953674
scalar IntersectionExampleScenario.node[758].veinsmobility 	maxSpeed 	8.419771194458
scalar IntersectionExampleScenario.node[758].veinsmobility 	totalDistance 	16.464546203613
scalar IntersectionExampleScenario.node[758].veinsmobility 	totalCO2Emission 	8.8989485259126
scalar IntersectionExampleScenario.node[759].appl 	VehicleRemoved 	0
scalar IntersectionExampleScenario.node[759].appl 	ArrivedAtDest 	0
scalar IntersectionExampleScenario.node[759].appl 	IntersectionEnterTime 	1798.25
scalar IntersectionExampleScenario.node[759].appl 	IntersectionExitTime 	-1
scalar IntersectionExampleScenario.node[759].appl 	NumberOfCollisions 	0
scalar IntersectionExampleScenario.node[759].nic.phy80211p 	busyTime 	0
scalar IntersectionExampleScenario.node[759].nic.mac1609_4 	ReceivedUnicastPackets 	0
scalar IntersectionExampleScenario.node[759].nic.mac1609_4 	ReceivedBroadcasts 	0
scalar IntersectionExampleScenario.node[759].nic.mac1609_4 	SentPackets 	0
scalar IntersectionExampleScenario.node[759].nic.mac1609_4 	SNIRLostPackets 	0
scalar IntersectionExampleScenario.node[759].nic.mac1609_4 	RXTXLostPackets 	0
scalar IntersectionExampleScenario.node[759].nic.mac1609_4 	TotalLostPackets 	0
scalar IntersectionExampleScenario.node[759].nic.mac1609_4 	DroppedPacketsInMac 	0
scalar IntersectionExampleScenario.node[759].nic.mac1609_4 	TooLittleTime 	0
scalar IntersectionExampleScenario.node[759].nic.mac1609_4 	TimesIntoBackoff 	0
scalar IntersectionExampleScenario.node[759].nic.mac1609_4 	SlotsBackoff 	0
scalar IntersectionExampleScenario.node[759].nic.mac1609_4 	NumInternalContention 	0
scalar IntersectionExampleScenario.node[759].nic.mac1609_4 	totalBusyTime 	0
scalar IntersectionExampleScenario.node[759].veinsmobility 	startTime 	1798.25
scalar IntersectionExampleScenario.node[759].veinsmobility 	totalTime 	1.75
scalar IntersectionExampleScenario.node[759].veinsmobility 	stopTime 	1800
scalar IntersectionExampleScenario.node[759].veinsmobility 	minSpeed 	5.6500000953674
scalar IntersectionExampleScenario.node[759].veinsmobility 	maxSpeed 	9.3999996185303
scalar IntersectionExampleScenario.node[759].veinsmobility 	totalDistance 	12.621879577637
scalar IntersectionExampleScenario.node[759].veinsmobility 	totalCO2Emission 	9.3856839288341
