version 2
run nodebug-8-20200606-14:06:38-18812
attr configname nodebug
attr datetime 20200606-14:06:38
attr experiment nodebug
attr inifile omnetpp.ini
attr iterationvars ""
attr iterationvars2 $repetition=8
attr measurement ""
attr network "\"org.car2x.veins.modules.application.ExtTraCIScenarioManagerLaunchd.IntersectionExampleScenario\""
attr processid 18812
attr repetition 8
attr replication #8
attr resultdir results
attr runnumber 8
attr seedset 8
param **.coreDebug false
param **.debug false
param *.**.nic.mac1609_4.bitrate 18Mbps
param *.**.nic.mac1609_4.txPower 20mW
param *.**.nic.mac1609_4.useServiceChannel false
param *.**.nic.phy80211p.analogueModels "xmldoc(\"config.xml\")"
param *.**.nic.phy80211p.decider "xmldoc(\"config.xml\")"
param *.**.nic.phy80211p.sensitivity -89dBm
param *.**.nic.phy80211p.thermalNoise -110dBm
param *.**.nic.phy80211p.usePropagationDelay true
param *.**.nic.phy80211p.useThermalNoise true
param *.annotations.draw false
param *.connectionManager.alpha 2.0
param *.connectionManager.carrierFrequency "5.890e9 Hz"
param *.connectionManager.pMax 20mW
param *.connectionManager.sat -89dBm
param *.connectionManager.sendDirect true
param *.manager.autoShutdown true
param *.manager.host "\"localhost\""
param *.manager.launchConfig "xmldoc(\"paramics.launchd.xml\")"
param *.manager.margin 25
param *.manager.moduleDisplayString "\"\""
param *.manager.moduleName "\"node\""
param *.manager.moduleType "\"org.car2x.veins.nodes.Car\""
param *.manager.port 9999
param *.manager.updateInterval 250ms
param *.node[*0].veinsmobility.accidentCount 0
param *.node[*0].veinsmobility.accidentDuration 30s
param *.node[*0].veinsmobility.accidentStart 75s
param *.node[*].appl.LiderSelectZoneRadio 55.0
param *.node[*].appl.ShareDataZoneRadio 110.0
param *.node[*].appl.TiempoSemaforo 30.0
param *.node[*].appl.beaconInterval 1s
param *.node[*].appl.beaconPriority 3
param *.node[*].appl.dataOnSch false
param *.node[*].appl.dataPriority 2
param *.node[*].appl.debug false
param *.node[*].appl.headerLength "256 bit"
param *.node[*].appl.maxOffset 0.005s
param *.node[*].appl.sendBeacons false
param *.node[*].appl.sendData true
param *.node[*].applType "\"Dummy\""
param *.node[*].mobilityType "\"TraCIMobility\""
param *.node[*].mobilityType.debug true
param *.node[*].veinsmobility.x 0
param *.node[*].veinsmobility.y 0
param *.node[*].veinsmobility.z 1.895
param *.node[*].veinsmobilityType "\"org.car2x.veins.modules.mobility.traci.TraCIMobility\""
param *.node[*].veinsmobilityType.debug true
param *.playgroundSizeX 8500m
param *.playgroundSizeY 8500m
param *.playgroundSizeZ 50m
param *.world.use2D false
param *.world.useTorus false

scalar IntersectionExampleScenario.node[4].appl 	VehicleRemoved 	0
scalar IntersectionExampleScenario.node[4].appl 	ArrivedAtDest 	1
scalar IntersectionExampleScenario.node[4].appl 	IntersectionEnterTime 	11.25
scalar IntersectionExampleScenario.node[4].appl 	IntersectionExitTime 	34.527350132645
scalar IntersectionExampleScenario.node[4].appl 	NumberOfCollisions 	0
scalar IntersectionExampleScenario.node[4].nic.phy80211p 	busyTime 	0
scalar IntersectionExampleScenario.node[4].nic.mac1609_4 	ReceivedUnicastPackets 	0
scalar IntersectionExampleScenario.node[4].nic.mac1609_4 	ReceivedBroadcasts 	0
scalar IntersectionExampleScenario.node[4].nic.mac1609_4 	SentPackets 	0
scalar IntersectionExampleScenario.node[4].nic.mac1609_4 	SNIRLostPackets 	0
scalar IntersectionExampleScenario.node[4].nic.mac1609_4 	RXTXLostPackets 	0
scalar IntersectionExampleScenario.node[4].nic.mac1609_4 	TotalLostPackets 	0
scalar IntersectionExampleScenario.node[4].nic.mac1609_4 	DroppedPacketsInMac 	0
scalar IntersectionExampleScenario.node[4].nic.mac1609_4 	TooLittleTime 	0
scalar IntersectionExampleScenario.node[4].nic.mac1609_4 	TimesIntoBackoff 	0
scalar IntersectionExampleScenario.node[4].nic.mac1609_4 	SlotsBackoff 	0
scalar IntersectionExampleScenario.node[4].nic.mac1609_4 	NumInternalContention 	0
scalar IntersectionExampleScenario.node[4].nic.mac1609_4 	totalBusyTime 	0
scalar IntersectionExampleScenario.node[4].veinsmobility 	startTime 	11.25
scalar IntersectionExampleScenario.node[4].veinsmobility 	totalTime 	39.5
scalar IntersectionExampleScenario.node[4].veinsmobility 	stopTime 	51
scalar IntersectionExampleScenario.node[4].veinsmobility 	minSpeed 	5.6500000953674
scalar IntersectionExampleScenario.node[4].veinsmobility 	maxSpeed 	15.5
scalar IntersectionExampleScenario.node[4].veinsmobility 	totalDistance 	553.66056060791
scalar IntersectionExampleScenario.node[4].veinsmobility 	totalCO2Emission 	116.12893195025
scalar IntersectionExampleScenario.node[0].appl 	VehicleRemoved 	0
scalar IntersectionExampleScenario.node[0].appl 	ArrivedAtDest 	1
scalar IntersectionExampleScenario.node[0].appl 	IntersectionEnterTime 	4
scalar IntersectionExampleScenario.node[0].appl 	IntersectionExitTime 	37.566356960917
scalar IntersectionExampleScenario.node[0].appl 	NumberOfCollisions 	0
scalar IntersectionExampleScenario.node[0].nic.phy80211p 	busyTime 	0
scalar IntersectionExampleScenario.node[0].nic.mac1609_4 	ReceivedUnicastPackets 	0
scalar IntersectionExampleScenario.node[0].nic.mac1609_4 	ReceivedBroadcasts 	0
scalar IntersectionExampleScenario.node[0].nic.mac1609_4 	SentPackets 	0
scalar IntersectionExampleScenario.node[0].nic.mac1609_4 	SNIRLostPackets 	0
scalar IntersectionExampleScenario.node[0].nic.mac1609_4 	RXTXLostPackets 	0
scalar IntersectionExampleScenario.node[0].nic.mac1609_4 	TotalLostPackets 	0
scalar IntersectionExampleScenario.node[0].nic.mac1609_4 	DroppedPacketsInMac 	0
scalar IntersectionExampleScenario.node[0].nic.mac1609_4 	TooLittleTime 	0
scalar IntersectionExampleScenario.node[0].nic.mac1609_4 	TimesIntoBackoff 	0
scalar IntersectionExampleScenario.node[0].nic.mac1609_4 	SlotsBackoff 	0
scalar IntersectionExampleScenario.node[0].nic.mac1609_4 	NumInternalContention 	0
scalar IntersectionExampleScenario.node[0].nic.mac1609_4 	totalBusyTime 	0
scalar IntersectionExampleScenario.node[0].veinsmobility 	startTime 	4
scalar IntersectionExampleScenario.node[0].veinsmobility 	totalTime 	48.75
scalar IntersectionExampleScenario.node[0].veinsmobility 	stopTime 	53
scalar IntersectionExampleScenario.node[0].veinsmobility 	minSpeed 	0
scalar IntersectionExampleScenario.node[0].veinsmobility 	maxSpeed 	16.275363922119
scalar IntersectionExampleScenario.node[0].veinsmobility 	totalDistance 	548.94190374307
scalar IntersectionExampleScenario.node[0].veinsmobility 	totalCO2Emission 	149.47380766392
scalar IntersectionExampleScenario.node[3].appl 	VehicleRemoved 	0
scalar IntersectionExampleScenario.node[3].appl 	ArrivedAtDest 	1
scalar IntersectionExampleScenario.node[3].appl 	IntersectionEnterTime 	8.75
scalar IntersectionExampleScenario.node[3].appl 	IntersectionExitTime 	38.553261471679
scalar IntersectionExampleScenario.node[3].appl 	NumberOfCollisions 	0
scalar IntersectionExampleScenario.node[3].nic.phy80211p 	busyTime 	0
scalar IntersectionExampleScenario.node[3].nic.mac1609_4 	ReceivedUnicastPackets 	0
scalar IntersectionExampleScenario.node[3].nic.mac1609_4 	ReceivedBroadcasts 	0
scalar IntersectionExampleScenario.node[3].nic.mac1609_4 	SentPackets 	0
scalar IntersectionExampleScenario.node[3].nic.mac1609_4 	SNIRLostPackets 	0
scalar IntersectionExampleScenario.node[3].nic.mac1609_4 	RXTXLostPackets 	0
scalar IntersectionExampleScenario.node[3].nic.mac1609_4 	TotalLostPackets 	0
scalar IntersectionExampleScenario.node[3].nic.mac1609_4 	DroppedPacketsInMac 	0
scalar IntersectionExampleScenario.node[3].nic.mac1609_4 	TooLittleTime 	0
scalar IntersectionExampleScenario.node[3].nic.mac1609_4 	TimesIntoBackoff 	0
scalar IntersectionExampleScenario.node[3].nic.mac1609_4 	SlotsBackoff 	0
scalar IntersectionExampleScenario.node[3].nic.mac1609_4 	NumInternalContention 	0
scalar IntersectionExampleScenario.node[3].nic.mac1609_4 	totalBusyTime 	0
scalar IntersectionExampleScenario.node[3].veinsmobility 	startTime 	8.75
scalar IntersectionExampleScenario.node[3].veinsmobility 	totalTime 	45.25
scalar IntersectionExampleScenario.node[3].veinsmobility 	stopTime 	54.25
scalar IntersectionExampleScenario.node[3].veinsmobility 	minSpeed 	1.3039770126343
scalar IntersectionExampleScenario.node[3].veinsmobility 	maxSpeed 	16.27499961853
scalar IntersectionExampleScenario.node[3].veinsmobility 	totalDistance 	554.94621276855
scalar IntersectionExampleScenario.node[3].veinsmobility 	totalCO2Emission 	141.27463566132
scalar IntersectionExampleScenario.node[1].appl 	VehicleRemoved 	0
scalar IntersectionExampleScenario.node[1].appl 	ArrivedAtDest 	1
scalar IntersectionExampleScenario.node[1].appl 	IntersectionEnterTime 	5
scalar IntersectionExampleScenario.node[1].appl 	IntersectionExitTime 	51.300293920125
scalar IntersectionExampleScenario.node[1].appl 	NumberOfCollisions 	0
scalar IntersectionExampleScenario.node[1].nic.phy80211p 	busyTime 	0
scalar IntersectionExampleScenario.node[1].nic.mac1609_4 	ReceivedUnicastPackets 	0
scalar IntersectionExampleScenario.node[1].nic.mac1609_4 	ReceivedBroadcasts 	0
scalar IntersectionExampleScenario.node[1].nic.mac1609_4 	SentPackets 	0
scalar IntersectionExampleScenario.node[1].nic.mac1609_4 	SNIRLostPackets 	0
scalar IntersectionExampleScenario.node[1].nic.mac1609_4 	RXTXLostPackets 	0
scalar IntersectionExampleScenario.node[1].nic.mac1609_4 	TotalLostPackets 	0
scalar IntersectionExampleScenario.node[1].nic.mac1609_4 	DroppedPacketsInMac 	0
scalar IntersectionExampleScenario.node[1].nic.mac1609_4 	TooLittleTime 	0
scalar IntersectionExampleScenario.node[1].nic.mac1609_4 	TimesIntoBackoff 	0
scalar IntersectionExampleScenario.node[1].nic.mac1609_4 	SlotsBackoff 	0
scalar IntersectionExampleScenario.node[1].nic.mac1609_4 	NumInternalContention 	0
scalar IntersectionExampleScenario.node[1].nic.mac1609_4 	totalBusyTime 	0
scalar IntersectionExampleScenario.node[1].veinsmobility 	startTime 	5
scalar IntersectionExampleScenario.node[1].veinsmobility 	totalTime 	62.25
scalar IntersectionExampleScenario.node[1].veinsmobility 	stopTime 	67.5
scalar IntersectionExampleScenario.node[1].veinsmobility 	minSpeed 	0
scalar IntersectionExampleScenario.node[1].veinsmobility 	maxSpeed 	15.64999961853
scalar IntersectionExampleScenario.node[1].veinsmobility 	totalDistance 	552.47970581055
scalar IntersectionExampleScenario.node[1].veinsmobility 	totalCO2Emission 	154.68570161211
scalar IntersectionExampleScenario.node[2].appl 	VehicleRemoved 	0
scalar IntersectionExampleScenario.node[2].appl 	ArrivedAtDest 	1
scalar IntersectionExampleScenario.node[2].appl 	IntersectionEnterTime 	8.25
scalar IntersectionExampleScenario.node[2].appl 	IntersectionExitTime 	53.817923251976
scalar IntersectionExampleScenario.node[2].appl 	NumberOfCollisions 	0
scalar IntersectionExampleScenario.node[2].nic.phy80211p 	busyTime 	0
scalar IntersectionExampleScenario.node[2].nic.mac1609_4 	ReceivedUnicastPackets 	0
scalar IntersectionExampleScenario.node[2].nic.mac1609_4 	ReceivedBroadcasts 	0
scalar IntersectionExampleScenario.node[2].nic.mac1609_4 	SentPackets 	0
scalar IntersectionExampleScenario.node[2].nic.mac1609_4 	SNIRLostPackets 	0
scalar IntersectionExampleScenario.node[2].nic.mac1609_4 	RXTXLostPackets 	0
scalar IntersectionExampleScenario.node[2].nic.mac1609_4 	TotalLostPackets 	0
scalar IntersectionExampleScenario.node[2].nic.mac1609_4 	DroppedPacketsInMac 	0
scalar IntersectionExampleScenario.node[2].nic.mac1609_4 	TooLittleTime 	0
scalar IntersectionExampleScenario.node[2].nic.mac1609_4 	TimesIntoBackoff 	0
scalar IntersectionExampleScenario.node[2].nic.mac1609_4 	SlotsBackoff 	0
scalar IntersectionExampleScenario.node[2].nic.mac1609_4 	NumInternalContention 	0
scalar IntersectionExampleScenario.node[2].nic.mac1609_4 	totalBusyTime 	0
scalar IntersectionExampleScenario.node[2].veinsmobility 	startTime 	8.25
scalar IntersectionExampleScenario.node[2].veinsmobility 	totalTime 	62
scalar IntersectionExampleScenario.node[2].veinsmobility 	stopTime 	70.5
scalar IntersectionExampleScenario.node[2].veinsmobility 	minSpeed 	0
scalar IntersectionExampleScenario.node[2].veinsmobility 	maxSpeed 	15.02499961853
scalar IntersectionExampleScenario.node[2].veinsmobility 	totalDistance 	565.92810058594
scalar IntersectionExampleScenario.node[2].veinsmobility 	totalCO2Emission 	151.94331442212
scalar IntersectionExampleScenario.node[7].appl 	VehicleRemoved 	0
scalar IntersectionExampleScenario.node[7].appl 	ArrivedAtDest 	1
scalar IntersectionExampleScenario.node[7].appl 	IntersectionEnterTime 	16.75
scalar IntersectionExampleScenario.node[7].appl 	IntersectionExitTime 	56.29396059268
scalar IntersectionExampleScenario.node[7].appl 	NumberOfCollisions 	0
scalar IntersectionExampleScenario.node[7].nic.phy80211p 	busyTime 	0
scalar IntersectionExampleScenario.node[7].nic.mac1609_4 	ReceivedUnicastPackets 	0
scalar IntersectionExampleScenario.node[7].nic.mac1609_4 	ReceivedBroadcasts 	0
scalar IntersectionExampleScenario.node[7].nic.mac1609_4 	SentPackets 	0
scalar IntersectionExampleScenario.node[7].nic.mac1609_4 	SNIRLostPackets 	0
scalar IntersectionExampleScenario.node[7].nic.mac1609_4 	RXTXLostPackets 	0
scalar IntersectionExampleScenario.node[7].nic.mac1609_4 	TotalLostPackets 	0
scalar IntersectionExampleScenario.node[7].nic.mac1609_4 	DroppedPacketsInMac 	0
scalar IntersectionExampleScenario.node[7].nic.mac1609_4 	TooLittleTime 	0
scalar IntersectionExampleScenario.node[7].nic.mac1609_4 	TimesIntoBackoff 	0
scalar IntersectionExampleScenario.node[7].nic.mac1609_4 	SlotsBackoff 	0
scalar IntersectionExampleScenario.node[7].nic.mac1609_4 	NumInternalContention 	0
scalar IntersectionExampleScenario.node[7].nic.mac1609_4 	totalBusyTime 	0
scalar IntersectionExampleScenario.node[7].veinsmobility 	startTime 	16.75
scalar IntersectionExampleScenario.node[7].veinsmobility 	totalTime 	56.25
scalar IntersectionExampleScenario.node[7].veinsmobility 	stopTime 	73.25
scalar IntersectionExampleScenario.node[7].veinsmobility 	minSpeed 	0
scalar IntersectionExampleScenario.node[7].veinsmobility 	maxSpeed 	15.64999961853
scalar IntersectionExampleScenario.node[7].veinsmobility 	totalDistance 	543.3635151009
scalar IntersectionExampleScenario.node[7].veinsmobility 	totalCO2Emission 	144.9290017258
scalar IntersectionExampleScenario.node[5].appl 	VehicleRemoved 	0
scalar IntersectionExampleScenario.node[5].appl 	ArrivedAtDest 	1
scalar IntersectionExampleScenario.node[5].appl 	IntersectionEnterTime 	13.75
scalar IntersectionExampleScenario.node[5].appl 	IntersectionExitTime 	58.540266349388
scalar IntersectionExampleScenario.node[5].appl 	NumberOfCollisions 	0
scalar IntersectionExampleScenario.node[5].nic.phy80211p 	busyTime 	0
scalar IntersectionExampleScenario.node[5].nic.mac1609_4 	ReceivedUnicastPackets 	0
scalar IntersectionExampleScenario.node[5].nic.mac1609_4 	ReceivedBroadcasts 	0
scalar IntersectionExampleScenario.node[5].nic.mac1609_4 	SentPackets 	0
scalar IntersectionExampleScenario.node[5].nic.mac1609_4 	SNIRLostPackets 	0
scalar IntersectionExampleScenario.node[5].nic.mac1609_4 	RXTXLostPackets 	0
scalar IntersectionExampleScenario.node[5].nic.mac1609_4 	TotalLostPackets 	0
scalar IntersectionExampleScenario.node[5].nic.mac1609_4 	DroppedPacketsInMac 	0
scalar IntersectionExampleScenario.node[5].nic.mac1609_4 	TooLittleTime 	0
scalar IntersectionExampleScenario.node[5].nic.mac1609_4 	TimesIntoBackoff 	0
scalar IntersectionExampleScenario.node[5].nic.mac1609_4 	SlotsBackoff 	0
scalar IntersectionExampleScenario.node[5].nic.mac1609_4 	NumInternalContention 	0
scalar IntersectionExampleScenario.node[5].nic.mac1609_4 	totalBusyTime 	0
scalar IntersectionExampleScenario.node[5].veinsmobility 	startTime 	13.75
scalar IntersectionExampleScenario.node[5].veinsmobility 	totalTime 	61.25
scalar IntersectionExampleScenario.node[5].veinsmobility 	stopTime 	75.25
scalar IntersectionExampleScenario.node[5].veinsmobility 	minSpeed 	0
scalar IntersectionExampleScenario.node[5].veinsmobility 	maxSpeed 	15.875
scalar IntersectionExampleScenario.node[5].veinsmobility 	totalDistance 	561.4409093991
scalar IntersectionExampleScenario.node[5].veinsmobility 	totalCO2Emission 	158.02794119677
scalar IntersectionExampleScenario.node[6].appl 	VehicleRemoved 	0
scalar IntersectionExampleScenario.node[6].appl 	ArrivedAtDest 	1
scalar IntersectionExampleScenario.node[6].appl 	IntersectionEnterTime 	16.5
scalar IntersectionExampleScenario.node[6].appl 	IntersectionExitTime 	60.362018125772
scalar IntersectionExampleScenario.node[6].appl 	NumberOfCollisions 	0
scalar IntersectionExampleScenario.node[6].nic.phy80211p 	busyTime 	0
scalar IntersectionExampleScenario.node[6].nic.mac1609_4 	ReceivedUnicastPackets 	0
scalar IntersectionExampleScenario.node[6].nic.mac1609_4 	ReceivedBroadcasts 	0
scalar IntersectionExampleScenario.node[6].nic.mac1609_4 	SentPackets 	0
scalar IntersectionExampleScenario.node[6].nic.mac1609_4 	SNIRLostPackets 	0
scalar IntersectionExampleScenario.node[6].nic.mac1609_4 	RXTXLostPackets 	0
scalar IntersectionExampleScenario.node[6].nic.mac1609_4 	TotalLostPackets 	0
scalar IntersectionExampleScenario.node[6].nic.mac1609_4 	DroppedPacketsInMac 	0
scalar IntersectionExampleScenario.node[6].nic.mac1609_4 	TooLittleTime 	0
scalar IntersectionExampleScenario.node[6].nic.mac1609_4 	TimesIntoBackoff 	0
scalar IntersectionExampleScenario.node[6].nic.mac1609_4 	SlotsBackoff 	0
scalar IntersectionExampleScenario.node[6].nic.mac1609_4 	NumInternalContention 	0
scalar IntersectionExampleScenario.node[6].nic.mac1609_4 	totalBusyTime 	0
scalar IntersectionExampleScenario.node[6].veinsmobility 	startTime 	16.5
scalar IntersectionExampleScenario.node[6].veinsmobility 	totalTime 	60.75
scalar IntersectionExampleScenario.node[6].veinsmobility 	stopTime 	77.5
scalar IntersectionExampleScenario.node[6].veinsmobility 	minSpeed 	0
scalar IntersectionExampleScenario.node[6].veinsmobility 	maxSpeed 	14.875
scalar IntersectionExampleScenario.node[6].veinsmobility 	totalDistance 	574.69254302979
scalar IntersectionExampleScenario.node[6].veinsmobility 	totalCO2Emission 	146.39479366807
scalar IntersectionExampleScenario.node[11].appl 	VehicleRemoved 	0
scalar IntersectionExampleScenario.node[11].appl 	ArrivedAtDest 	1
scalar IntersectionExampleScenario.node[11].appl 	IntersectionEnterTime 	27.25
scalar IntersectionExampleScenario.node[11].appl 	IntersectionExitTime 	63.071241949685
scalar IntersectionExampleScenario.node[11].appl 	NumberOfCollisions 	0
scalar IntersectionExampleScenario.node[11].nic.phy80211p 	busyTime 	0
scalar IntersectionExampleScenario.node[11].nic.mac1609_4 	ReceivedUnicastPackets 	0
scalar IntersectionExampleScenario.node[11].nic.mac1609_4 	ReceivedBroadcasts 	0
scalar IntersectionExampleScenario.node[11].nic.mac1609_4 	SentPackets 	0
scalar IntersectionExampleScenario.node[11].nic.mac1609_4 	SNIRLostPackets 	0
scalar IntersectionExampleScenario.node[11].nic.mac1609_4 	RXTXLostPackets 	0
scalar IntersectionExampleScenario.node[11].nic.mac1609_4 	TotalLostPackets 	0
scalar IntersectionExampleScenario.node[11].nic.mac1609_4 	DroppedPacketsInMac 	0
scalar IntersectionExampleScenario.node[11].nic.mac1609_4 	TooLittleTime 	0
scalar IntersectionExampleScenario.node[11].nic.mac1609_4 	TimesIntoBackoff 	0
scalar IntersectionExampleScenario.node[11].nic.mac1609_4 	SlotsBackoff 	0
scalar IntersectionExampleScenario.node[11].nic.mac1609_4 	NumInternalContention 	0
scalar IntersectionExampleScenario.node[11].nic.mac1609_4 	totalBusyTime 	0
scalar IntersectionExampleScenario.node[11].veinsmobility 	startTime 	27.25
scalar IntersectionExampleScenario.node[11].veinsmobility 	totalTime 	52.25
scalar IntersectionExampleScenario.node[11].veinsmobility 	stopTime 	79.75
scalar IntersectionExampleScenario.node[11].veinsmobility 	minSpeed 	0
scalar IntersectionExampleScenario.node[11].veinsmobility 	maxSpeed 	15.02499961853
scalar IntersectionExampleScenario.node[11].veinsmobility 	totalDistance 	552.02756500244
scalar IntersectionExampleScenario.node[11].veinsmobility 	totalCO2Emission 	136.33457762354
scalar IntersectionExampleScenario.node[12].appl 	VehicleRemoved 	0
scalar IntersectionExampleScenario.node[12].appl 	ArrivedAtDest 	1
scalar IntersectionExampleScenario.node[12].appl 	IntersectionEnterTime 	30.5
scalar IntersectionExampleScenario.node[12].appl 	IntersectionExitTime 	65.05933923769
scalar IntersectionExampleScenario.node[12].appl 	NumberOfCollisions 	0
scalar IntersectionExampleScenario.node[12].nic.phy80211p 	busyTime 	0
scalar IntersectionExampleScenario.node[12].nic.mac1609_4 	ReceivedUnicastPackets 	0
scalar IntersectionExampleScenario.node[12].nic.mac1609_4 	ReceivedBroadcasts 	0
scalar IntersectionExampleScenario.node[12].nic.mac1609_4 	SentPackets 	0
scalar IntersectionExampleScenario.node[12].nic.mac1609_4 	SNIRLostPackets 	0
scalar IntersectionExampleScenario.node[12].nic.mac1609_4 	RXTXLostPackets 	0
scalar IntersectionExampleScenario.node[12].nic.mac1609_4 	TotalLostPackets 	0
scalar IntersectionExampleScenario.node[12].nic.mac1609_4 	DroppedPacketsInMac 	0
scalar IntersectionExampleScenario.node[12].nic.mac1609_4 	TooLittleTime 	0
scalar IntersectionExampleScenario.node[12].nic.mac1609_4 	TimesIntoBackoff 	0
scalar IntersectionExampleScenario.node[12].nic.mac1609_4 	SlotsBackoff 	0
scalar IntersectionExampleScenario.node[12].nic.mac1609_4 	NumInternalContention 	0
scalar IntersectionExampleScenario.node[12].nic.mac1609_4 	totalBusyTime 	0
scalar IntersectionExampleScenario.node[12].veinsmobility 	startTime 	30.5
scalar IntersectionExampleScenario.node[12].veinsmobility 	totalTime 	51.5
scalar IntersectionExampleScenario.node[12].veinsmobility 	stopTime 	82.25
scalar IntersectionExampleScenario.node[12].veinsmobility 	minSpeed 	3.2018399238586
scalar IntersectionExampleScenario.node[12].veinsmobility 	maxSpeed 	15.25
scalar IntersectionExampleScenario.node[12].veinsmobility 	totalDistance 	557.31879665607
scalar IntersectionExampleScenario.node[12].veinsmobility 	totalCO2Emission 	143.76044681909
scalar IntersectionExampleScenario.node[9].appl 	VehicleRemoved 	0
scalar IntersectionExampleScenario.node[9].appl 	ArrivedAtDest 	1
scalar IntersectionExampleScenario.node[9].appl 	IntersectionEnterTime 	21.5
scalar IntersectionExampleScenario.node[9].appl 	IntersectionExitTime 	68.329779851105
scalar IntersectionExampleScenario.node[9].appl 	NumberOfCollisions 	0
scalar IntersectionExampleScenario.node[9].nic.phy80211p 	busyTime 	0
scalar IntersectionExampleScenario.node[9].nic.mac1609_4 	ReceivedUnicastPackets 	0
scalar IntersectionExampleScenario.node[9].nic.mac1609_4 	ReceivedBroadcasts 	0
scalar IntersectionExampleScenario.node[9].nic.mac1609_4 	SentPackets 	0
scalar IntersectionExampleScenario.node[9].nic.mac1609_4 	SNIRLostPackets 	0
scalar IntersectionExampleScenario.node[9].nic.mac1609_4 	RXTXLostPackets 	0
scalar IntersectionExampleScenario.node[9].nic.mac1609_4 	TotalLostPackets 	0
scalar IntersectionExampleScenario.node[9].nic.mac1609_4 	DroppedPacketsInMac 	0
scalar IntersectionExampleScenario.node[9].nic.mac1609_4 	TooLittleTime 	0
scalar IntersectionExampleScenario.node[9].nic.mac1609_4 	TimesIntoBackoff 	0
scalar IntersectionExampleScenario.node[9].nic.mac1609_4 	SlotsBackoff 	0
scalar IntersectionExampleScenario.node[9].nic.mac1609_4 	NumInternalContention 	0
scalar IntersectionExampleScenario.node[9].nic.mac1609_4 	totalBusyTime 	0
scalar IntersectionExampleScenario.node[9].veinsmobility 	startTime 	21.5
scalar IntersectionExampleScenario.node[9].veinsmobility 	totalTime 	62.75
scalar IntersectionExampleScenario.node[9].veinsmobility 	stopTime 	84.5
scalar IntersectionExampleScenario.node[9].veinsmobility 	minSpeed 	0
scalar IntersectionExampleScenario.node[9].veinsmobility 	maxSpeed 	15.64999961853
scalar IntersectionExampleScenario.node[9].veinsmobility 	totalDistance 	551.07663835635
scalar IntersectionExampleScenario.node[9].veinsmobility 	totalCO2Emission 	159.43446158622
scalar IntersectionExampleScenario.node[10].appl 	VehicleRemoved 	0
scalar IntersectionExampleScenario.node[10].appl 	ArrivedAtDest 	1
scalar IntersectionExampleScenario.node[10].appl 	IntersectionEnterTime 	25.25
scalar IntersectionExampleScenario.node[10].appl 	IntersectionExitTime 	69.085867562972
scalar IntersectionExampleScenario.node[10].appl 	NumberOfCollisions 	0
scalar IntersectionExampleScenario.node[10].nic.phy80211p 	busyTime 	0
scalar IntersectionExampleScenario.node[10].nic.mac1609_4 	ReceivedUnicastPackets 	0
scalar IntersectionExampleScenario.node[10].nic.mac1609_4 	ReceivedBroadcasts 	0
scalar IntersectionExampleScenario.node[10].nic.mac1609_4 	SentPackets 	0
scalar IntersectionExampleScenario.node[10].nic.mac1609_4 	SNIRLostPackets 	0
scalar IntersectionExampleScenario.node[10].nic.mac1609_4 	RXTXLostPackets 	0
scalar IntersectionExampleScenario.node[10].nic.mac1609_4 	TotalLostPackets 	0
scalar IntersectionExampleScenario.node[10].nic.mac1609_4 	DroppedPacketsInMac 	0
scalar IntersectionExampleScenario.node[10].nic.mac1609_4 	TooLittleTime 	0
scalar IntersectionExampleScenario.node[10].nic.mac1609_4 	TimesIntoBackoff 	0
scalar IntersectionExampleScenario.node[10].nic.mac1609_4 	SlotsBackoff 	0
scalar IntersectionExampleScenario.node[10].nic.mac1609_4 	NumInternalContention 	0
scalar IntersectionExampleScenario.node[10].nic.mac1609_4 	totalBusyTime 	0
scalar IntersectionExampleScenario.node[10].veinsmobility 	startTime 	25.25
scalar IntersectionExampleScenario.node[10].veinsmobility 	totalTime 	60.5
scalar IntersectionExampleScenario.node[10].veinsmobility 	stopTime 	86
scalar IntersectionExampleScenario.node[10].veinsmobility 	minSpeed 	0
scalar IntersectionExampleScenario.node[10].veinsmobility 	maxSpeed 	15.64999961853
scalar IntersectionExampleScenario.node[10].veinsmobility 	totalDistance 	552.65638594826
scalar IntersectionExampleScenario.node[10].veinsmobility 	totalCO2Emission 	152.88592655841
scalar IntersectionExampleScenario.node[14].appl 	VehicleRemoved 	0
scalar IntersectionExampleScenario.node[14].appl 	ArrivedAtDest 	1
scalar IntersectionExampleScenario.node[14].appl 	IntersectionEnterTime 	31
scalar IntersectionExampleScenario.node[14].appl 	IntersectionExitTime 	71.562466981879
scalar IntersectionExampleScenario.node[14].appl 	NumberOfCollisions 	0
scalar IntersectionExampleScenario.node[14].nic.phy80211p 	busyTime 	0
scalar IntersectionExampleScenario.node[14].nic.mac1609_4 	ReceivedUnicastPackets 	0
scalar IntersectionExampleScenario.node[14].nic.mac1609_4 	ReceivedBroadcasts 	0
scalar IntersectionExampleScenario.node[14].nic.mac1609_4 	SentPackets 	0
scalar IntersectionExampleScenario.node[14].nic.mac1609_4 	SNIRLostPackets 	0
scalar IntersectionExampleScenario.node[14].nic.mac1609_4 	RXTXLostPackets 	0
scalar IntersectionExampleScenario.node[14].nic.mac1609_4 	TotalLostPackets 	0
scalar IntersectionExampleScenario.node[14].nic.mac1609_4 	DroppedPacketsInMac 	0
scalar IntersectionExampleScenario.node[14].nic.mac1609_4 	TooLittleTime 	0
scalar IntersectionExampleScenario.node[14].nic.mac1609_4 	TimesIntoBackoff 	0
scalar IntersectionExampleScenario.node[14].nic.mac1609_4 	SlotsBackoff 	0
scalar IntersectionExampleScenario.node[14].nic.mac1609_4 	NumInternalContention 	0
scalar IntersectionExampleScenario.node[14].nic.mac1609_4 	totalBusyTime 	0
scalar IntersectionExampleScenario.node[14].veinsmobility 	startTime 	31
scalar IntersectionExampleScenario.node[14].veinsmobility 	totalTime 	56.25
scalar IntersectionExampleScenario.node[14].veinsmobility 	stopTime 	87.5
scalar IntersectionExampleScenario.node[14].veinsmobility 	minSpeed 	0
scalar IntersectionExampleScenario.node[14].veinsmobility 	maxSpeed 	15.64999961853
scalar IntersectionExampleScenario.node[14].veinsmobility 	totalDistance 	551.43254089355
scalar IntersectionExampleScenario.node[14].veinsmobility 	totalCO2Emission 	146.9501098389
scalar IntersectionExampleScenario.node[16].appl 	VehicleRemoved 	0
scalar IntersectionExampleScenario.node[16].appl 	ArrivedAtDest 	1
scalar IntersectionExampleScenario.node[16].appl 	IntersectionEnterTime 	33.25
scalar IntersectionExampleScenario.node[16].appl 	IntersectionExitTime 	73.783896801731
scalar IntersectionExampleScenario.node[16].appl 	NumberOfCollisions 	0
scalar IntersectionExampleScenario.node[16].nic.phy80211p 	busyTime 	0
scalar IntersectionExampleScenario.node[16].nic.mac1609_4 	ReceivedUnicastPackets 	0
scalar IntersectionExampleScenario.node[16].nic.mac1609_4 	ReceivedBroadcasts 	0
scalar IntersectionExampleScenario.node[16].nic.mac1609_4 	SentPackets 	0
scalar IntersectionExampleScenario.node[16].nic.mac1609_4 	SNIRLostPackets 	0
scalar IntersectionExampleScenario.node[16].nic.mac1609_4 	RXTXLostPackets 	0
scalar IntersectionExampleScenario.node[16].nic.mac1609_4 	TotalLostPackets 	0
scalar IntersectionExampleScenario.node[16].nic.mac1609_4 	DroppedPacketsInMac 	0
scalar IntersectionExampleScenario.node[16].nic.mac1609_4 	TooLittleTime 	0
scalar IntersectionExampleScenario.node[16].nic.mac1609_4 	TimesIntoBackoff 	0
scalar IntersectionExampleScenario.node[16].nic.mac1609_4 	SlotsBackoff 	0
scalar IntersectionExampleScenario.node[16].nic.mac1609_4 	NumInternalContention 	0
scalar IntersectionExampleScenario.node[16].nic.mac1609_4 	totalBusyTime 	0
scalar IntersectionExampleScenario.node[16].veinsmobility 	startTime 	33.25
scalar IntersectionExampleScenario.node[16].veinsmobility 	totalTime 	57
scalar IntersectionExampleScenario.node[16].veinsmobility 	stopTime 	90.5
scalar IntersectionExampleScenario.node[16].veinsmobility 	minSpeed 	0
scalar IntersectionExampleScenario.node[16].veinsmobility 	maxSpeed 	15.685419082642
scalar IntersectionExampleScenario.node[16].veinsmobility 	totalDistance 	563.04419867031
scalar IntersectionExampleScenario.node[16].veinsmobility 	totalCO2Emission 	154.16545846661
scalar IntersectionExampleScenario.node[8].appl 	VehicleRemoved 	0
scalar IntersectionExampleScenario.node[8].appl 	ArrivedAtDest 	1
scalar IntersectionExampleScenario.node[8].appl 	IntersectionEnterTime 	17
scalar IntersectionExampleScenario.node[8].appl 	IntersectionExitTime 	82.539961224626
scalar IntersectionExampleScenario.node[8].appl 	NumberOfCollisions 	0
scalar IntersectionExampleScenario.node[8].nic.phy80211p 	busyTime 	0
scalar IntersectionExampleScenario.node[8].nic.mac1609_4 	ReceivedUnicastPackets 	0
scalar IntersectionExampleScenario.node[8].nic.mac1609_4 	ReceivedBroadcasts 	0
scalar IntersectionExampleScenario.node[8].nic.mac1609_4 	SentPackets 	0
scalar IntersectionExampleScenario.node[8].nic.mac1609_4 	SNIRLostPackets 	0
scalar IntersectionExampleScenario.node[8].nic.mac1609_4 	RXTXLostPackets 	0
scalar IntersectionExampleScenario.node[8].nic.mac1609_4 	TotalLostPackets 	0
scalar IntersectionExampleScenario.node[8].nic.mac1609_4 	DroppedPacketsInMac 	0
scalar IntersectionExampleScenario.node[8].nic.mac1609_4 	TooLittleTime 	0
scalar IntersectionExampleScenario.node[8].nic.mac1609_4 	TimesIntoBackoff 	0
scalar IntersectionExampleScenario.node[8].nic.mac1609_4 	SlotsBackoff 	0
scalar IntersectionExampleScenario.node[8].nic.mac1609_4 	NumInternalContention 	0
scalar IntersectionExampleScenario.node[8].nic.mac1609_4 	totalBusyTime 	0
scalar IntersectionExampleScenario.node[8].veinsmobility 	startTime 	17
scalar IntersectionExampleScenario.node[8].veinsmobility 	totalTime 	82.25
scalar IntersectionExampleScenario.node[8].veinsmobility 	stopTime 	99.5
scalar IntersectionExampleScenario.node[8].veinsmobility 	minSpeed 	0
scalar IntersectionExampleScenario.node[8].veinsmobility 	maxSpeed 	15.875
scalar IntersectionExampleScenario.node[8].veinsmobility 	totalDistance 	570.55840207488
scalar IntersectionExampleScenario.node[8].veinsmobility 	totalCO2Emission 	181.92414767716
scalar IntersectionExampleScenario.node[13].appl 	VehicleRemoved 	0
scalar IntersectionExampleScenario.node[13].appl 	ArrivedAtDest 	1
scalar IntersectionExampleScenario.node[13].appl 	IntersectionEnterTime 	30.75
scalar IntersectionExampleScenario.node[13].appl 	IntersectionExitTime 	84.340333465196
scalar IntersectionExampleScenario.node[13].appl 	NumberOfCollisions 	0
scalar IntersectionExampleScenario.node[13].nic.phy80211p 	busyTime 	0
scalar IntersectionExampleScenario.node[13].nic.mac1609_4 	ReceivedUnicastPackets 	0
scalar IntersectionExampleScenario.node[13].nic.mac1609_4 	ReceivedBroadcasts 	0
scalar IntersectionExampleScenario.node[13].nic.mac1609_4 	SentPackets 	0
scalar IntersectionExampleScenario.node[13].nic.mac1609_4 	SNIRLostPackets 	0
scalar IntersectionExampleScenario.node[13].nic.mac1609_4 	RXTXLostPackets 	0
scalar IntersectionExampleScenario.node[13].nic.mac1609_4 	TotalLostPackets 	0
scalar IntersectionExampleScenario.node[13].nic.mac1609_4 	DroppedPacketsInMac 	0
scalar IntersectionExampleScenario.node[13].nic.mac1609_4 	TooLittleTime 	0
scalar IntersectionExampleScenario.node[13].nic.mac1609_4 	TimesIntoBackoff 	0
scalar IntersectionExampleScenario.node[13].nic.mac1609_4 	SlotsBackoff 	0
scalar IntersectionExampleScenario.node[13].nic.mac1609_4 	NumInternalContention 	0
scalar IntersectionExampleScenario.node[13].nic.mac1609_4 	totalBusyTime 	0
scalar IntersectionExampleScenario.node[13].veinsmobility 	startTime 	30.75
scalar IntersectionExampleScenario.node[13].veinsmobility 	totalTime 	70
scalar IntersectionExampleScenario.node[13].veinsmobility 	stopTime 	101
scalar IntersectionExampleScenario.node[13].veinsmobility 	minSpeed 	0
scalar IntersectionExampleScenario.node[13].veinsmobility 	maxSpeed 	15.02499961853
scalar IntersectionExampleScenario.node[13].veinsmobility 	totalDistance 	551.51976013184
scalar IntersectionExampleScenario.node[13].veinsmobility 	totalCO2Emission 	160.48168268599
scalar IntersectionExampleScenario.node[17].appl 	VehicleRemoved 	0
scalar IntersectionExampleScenario.node[17].appl 	ArrivedAtDest 	1
scalar IntersectionExampleScenario.node[17].appl 	IntersectionEnterTime 	35
scalar IntersectionExampleScenario.node[17].appl 	IntersectionExitTime 	86.593207355123
scalar IntersectionExampleScenario.node[17].appl 	NumberOfCollisions 	0
scalar IntersectionExampleScenario.node[17].nic.phy80211p 	busyTime 	0
scalar IntersectionExampleScenario.node[17].nic.mac1609_4 	ReceivedUnicastPackets 	0
scalar IntersectionExampleScenario.node[17].nic.mac1609_4 	ReceivedBroadcasts 	0
scalar IntersectionExampleScenario.node[17].nic.mac1609_4 	SentPackets 	0
scalar IntersectionExampleScenario.node[17].nic.mac1609_4 	SNIRLostPackets 	0
scalar IntersectionExampleScenario.node[17].nic.mac1609_4 	RXTXLostPackets 	0
scalar IntersectionExampleScenario.node[17].nic.mac1609_4 	TotalLostPackets 	0
scalar IntersectionExampleScenario.node[17].nic.mac1609_4 	DroppedPacketsInMac 	0
scalar IntersectionExampleScenario.node[17].nic.mac1609_4 	TooLittleTime 	0
scalar IntersectionExampleScenario.node[17].nic.mac1609_4 	TimesIntoBackoff 	0
scalar IntersectionExampleScenario.node[17].nic.mac1609_4 	SlotsBackoff 	0
scalar IntersectionExampleScenario.node[17].nic.mac1609_4 	NumInternalContention 	0
scalar IntersectionExampleScenario.node[17].nic.mac1609_4 	totalBusyTime 	0
scalar IntersectionExampleScenario.node[17].veinsmobility 	startTime 	35
scalar IntersectionExampleScenario.node[17].veinsmobility 	totalTime 	67.5
scalar IntersectionExampleScenario.node[17].veinsmobility 	stopTime 	102.75
scalar IntersectionExampleScenario.node[17].veinsmobility 	minSpeed 	0
scalar IntersectionExampleScenario.node[17].veinsmobility 	maxSpeed 	15.382864952087
scalar IntersectionExampleScenario.node[17].veinsmobility 	totalDistance 	558.9972076416
scalar IntersectionExampleScenario.node[17].veinsmobility 	totalCO2Emission 	158.00021257764
scalar IntersectionExampleScenario.node[26].appl 	VehicleRemoved 	0
scalar IntersectionExampleScenario.node[26].appl 	ArrivedAtDest 	1
scalar IntersectionExampleScenario.node[26].appl 	IntersectionEnterTime 	46.5
scalar IntersectionExampleScenario.node[26].appl 	IntersectionExitTime 	88.279516795825
scalar IntersectionExampleScenario.node[26].appl 	NumberOfCollisions 	0
scalar IntersectionExampleScenario.node[26].nic.phy80211p 	busyTime 	0
scalar IntersectionExampleScenario.node[26].nic.mac1609_4 	ReceivedUnicastPackets 	0
scalar IntersectionExampleScenario.node[26].nic.mac1609_4 	ReceivedBroadcasts 	0
scalar IntersectionExampleScenario.node[26].nic.mac1609_4 	SentPackets 	0
scalar IntersectionExampleScenario.node[26].nic.mac1609_4 	SNIRLostPackets 	0
scalar IntersectionExampleScenario.node[26].nic.mac1609_4 	RXTXLostPackets 	0
scalar IntersectionExampleScenario.node[26].nic.mac1609_4 	TotalLostPackets 	0
scalar IntersectionExampleScenario.node[26].nic.mac1609_4 	DroppedPacketsInMac 	0
scalar IntersectionExampleScenario.node[26].nic.mac1609_4 	TooLittleTime 	0
scalar IntersectionExampleScenario.node[26].nic.mac1609_4 	TimesIntoBackoff 	0
scalar IntersectionExampleScenario.node[26].nic.mac1609_4 	SlotsBackoff 	0
scalar IntersectionExampleScenario.node[26].nic.mac1609_4 	NumInternalContention 	0
scalar IntersectionExampleScenario.node[26].nic.mac1609_4 	totalBusyTime 	0
scalar IntersectionExampleScenario.node[26].veinsmobility 	startTime 	46.5
scalar IntersectionExampleScenario.node[26].veinsmobility 	totalTime 	57.5
scalar IntersectionExampleScenario.node[26].veinsmobility 	stopTime 	104.25
scalar IntersectionExampleScenario.node[26].veinsmobility 	minSpeed 	0
scalar IntersectionExampleScenario.node[26].veinsmobility 	maxSpeed 	16.27499961853
scalar IntersectionExampleScenario.node[26].veinsmobility 	totalDistance 	553.51623535156
scalar IntersectionExampleScenario.node[26].veinsmobility 	totalCO2Emission 	150.18979503998
scalar IntersectionExampleScenario.node[15].appl 	VehicleRemoved 	0
scalar IntersectionExampleScenario.node[15].appl 	ArrivedAtDest 	1
scalar IntersectionExampleScenario.node[15].appl 	IntersectionEnterTime 	32.25
scalar IntersectionExampleScenario.node[15].appl 	IntersectionExitTime 	91.333162451221
scalar IntersectionExampleScenario.node[15].appl 	NumberOfCollisions 	0
scalar IntersectionExampleScenario.node[15].nic.phy80211p 	busyTime 	0
scalar IntersectionExampleScenario.node[15].nic.mac1609_4 	ReceivedUnicastPackets 	0
scalar IntersectionExampleScenario.node[15].nic.mac1609_4 	ReceivedBroadcasts 	0
scalar IntersectionExampleScenario.node[15].nic.mac1609_4 	SentPackets 	0
scalar IntersectionExampleScenario.node[15].nic.mac1609_4 	SNIRLostPackets 	0
scalar IntersectionExampleScenario.node[15].nic.mac1609_4 	RXTXLostPackets 	0
scalar IntersectionExampleScenario.node[15].nic.mac1609_4 	TotalLostPackets 	0
scalar IntersectionExampleScenario.node[15].nic.mac1609_4 	DroppedPacketsInMac 	0
scalar IntersectionExampleScenario.node[15].nic.mac1609_4 	TooLittleTime 	0
scalar IntersectionExampleScenario.node[15].nic.mac1609_4 	TimesIntoBackoff 	0
scalar IntersectionExampleScenario.node[15].nic.mac1609_4 	SlotsBackoff 	0
scalar IntersectionExampleScenario.node[15].nic.mac1609_4 	NumInternalContention 	0
scalar IntersectionExampleScenario.node[15].nic.mac1609_4 	totalBusyTime 	0
scalar IntersectionExampleScenario.node[15].veinsmobility 	startTime 	32.25
scalar IntersectionExampleScenario.node[15].veinsmobility 	totalTime 	75.25
scalar IntersectionExampleScenario.node[15].veinsmobility 	stopTime 	107.75
scalar IntersectionExampleScenario.node[15].veinsmobility 	minSpeed 	0
scalar IntersectionExampleScenario.node[15].veinsmobility 	maxSpeed 	15.375
scalar IntersectionExampleScenario.node[15].veinsmobility 	totalDistance 	575.9354019165
scalar IntersectionExampleScenario.node[15].veinsmobility 	totalCO2Emission 	172.17860546481
scalar IntersectionExampleScenario.node[19].appl 	VehicleRemoved 	0
scalar IntersectionExampleScenario.node[19].appl 	ArrivedAtDest 	1
scalar IntersectionExampleScenario.node[19].appl 	IntersectionEnterTime 	38
scalar IntersectionExampleScenario.node[19].appl 	IntersectionExitTime 	93.279800309043
scalar IntersectionExampleScenario.node[19].appl 	NumberOfCollisions 	0
scalar IntersectionExampleScenario.node[19].nic.phy80211p 	busyTime 	0
scalar IntersectionExampleScenario.node[19].nic.mac1609_4 	ReceivedUnicastPackets 	0
scalar IntersectionExampleScenario.node[19].nic.mac1609_4 	ReceivedBroadcasts 	0
scalar IntersectionExampleScenario.node[19].nic.mac1609_4 	SentPackets 	0
scalar IntersectionExampleScenario.node[19].nic.mac1609_4 	SNIRLostPackets 	0
scalar IntersectionExampleScenario.node[19].nic.mac1609_4 	RXTXLostPackets 	0
scalar IntersectionExampleScenario.node[19].nic.mac1609_4 	TotalLostPackets 	0
scalar IntersectionExampleScenario.node[19].nic.mac1609_4 	DroppedPacketsInMac 	0
scalar IntersectionExampleScenario.node[19].nic.mac1609_4 	TooLittleTime 	0
scalar IntersectionExampleScenario.node[19].nic.mac1609_4 	TimesIntoBackoff 	0
scalar IntersectionExampleScenario.node[19].nic.mac1609_4 	SlotsBackoff 	0
scalar IntersectionExampleScenario.node[19].nic.mac1609_4 	NumInternalContention 	0
scalar IntersectionExampleScenario.node[19].nic.mac1609_4 	totalBusyTime 	0
scalar IntersectionExampleScenario.node[19].veinsmobility 	startTime 	38
scalar IntersectionExampleScenario.node[19].veinsmobility 	totalTime 	71.25
scalar IntersectionExampleScenario.node[19].veinsmobility 	stopTime 	109.5
scalar IntersectionExampleScenario.node[19].veinsmobility 	minSpeed 	0
scalar IntersectionExampleScenario.node[19].veinsmobility 	maxSpeed 	15.336164474487
scalar IntersectionExampleScenario.node[19].veinsmobility 	totalDistance 	557.90396881104
scalar IntersectionExampleScenario.node[19].veinsmobility 	totalCO2Emission 	164.81936837961
scalar IntersectionExampleScenario.node[24].appl 	VehicleRemoved 	0
scalar IntersectionExampleScenario.node[24].appl 	ArrivedAtDest 	1
scalar IntersectionExampleScenario.node[24].appl 	IntersectionEnterTime 	43.5
scalar IntersectionExampleScenario.node[24].appl 	IntersectionExitTime 	95.751038547576
scalar IntersectionExampleScenario.node[24].appl 	NumberOfCollisions 	0
scalar IntersectionExampleScenario.node[24].nic.phy80211p 	busyTime 	0
scalar IntersectionExampleScenario.node[24].nic.mac1609_4 	ReceivedUnicastPackets 	0
scalar IntersectionExampleScenario.node[24].nic.mac1609_4 	ReceivedBroadcasts 	0
scalar IntersectionExampleScenario.node[24].nic.mac1609_4 	SentPackets 	0
scalar IntersectionExampleScenario.node[24].nic.mac1609_4 	SNIRLostPackets 	0
scalar IntersectionExampleScenario.node[24].nic.mac1609_4 	RXTXLostPackets 	0
scalar IntersectionExampleScenario.node[24].nic.mac1609_4 	TotalLostPackets 	0
scalar IntersectionExampleScenario.node[24].nic.mac1609_4 	DroppedPacketsInMac 	0
scalar IntersectionExampleScenario.node[24].nic.mac1609_4 	TooLittleTime 	0
scalar IntersectionExampleScenario.node[24].nic.mac1609_4 	TimesIntoBackoff 	0
scalar IntersectionExampleScenario.node[24].nic.mac1609_4 	SlotsBackoff 	0
scalar IntersectionExampleScenario.node[24].nic.mac1609_4 	NumInternalContention 	0
scalar IntersectionExampleScenario.node[24].nic.mac1609_4 	totalBusyTime 	0
scalar IntersectionExampleScenario.node[24].veinsmobility 	startTime 	43.5
scalar IntersectionExampleScenario.node[24].veinsmobility 	totalTime 	68.75
scalar IntersectionExampleScenario.node[24].veinsmobility 	stopTime 	112.5
scalar IntersectionExampleScenario.node[24].veinsmobility 	minSpeed 	0
scalar IntersectionExampleScenario.node[24].veinsmobility 	maxSpeed 	15.02499961853
scalar IntersectionExampleScenario.node[24].veinsmobility 	totalDistance 	518.9621887207
scalar IntersectionExampleScenario.node[24].veinsmobility 	totalCO2Emission 	153.52672021569
scalar IntersectionExampleScenario.node[20].appl 	VehicleRemoved 	0
scalar IntersectionExampleScenario.node[20].appl 	ArrivedAtDest 	1
scalar IntersectionExampleScenario.node[20].appl 	IntersectionEnterTime 	39.5
scalar IntersectionExampleScenario.node[20].appl 	IntersectionExitTime 	98.037316856353
scalar IntersectionExampleScenario.node[20].appl 	NumberOfCollisions 	0
scalar IntersectionExampleScenario.node[20].nic.phy80211p 	busyTime 	0
scalar IntersectionExampleScenario.node[20].nic.mac1609_4 	ReceivedUnicastPackets 	0
scalar IntersectionExampleScenario.node[20].nic.mac1609_4 	ReceivedBroadcasts 	0
scalar IntersectionExampleScenario.node[20].nic.mac1609_4 	SentPackets 	0
scalar IntersectionExampleScenario.node[20].nic.mac1609_4 	SNIRLostPackets 	0
scalar IntersectionExampleScenario.node[20].nic.mac1609_4 	RXTXLostPackets 	0
scalar IntersectionExampleScenario.node[20].nic.mac1609_4 	TotalLostPackets 	0
scalar IntersectionExampleScenario.node[20].nic.mac1609_4 	DroppedPacketsInMac 	0
scalar IntersectionExampleScenario.node[20].nic.mac1609_4 	TooLittleTime 	0
scalar IntersectionExampleScenario.node[20].nic.mac1609_4 	TimesIntoBackoff 	0
scalar IntersectionExampleScenario.node[20].nic.mac1609_4 	SlotsBackoff 	0
scalar IntersectionExampleScenario.node[20].nic.mac1609_4 	NumInternalContention 	0
scalar IntersectionExampleScenario.node[20].nic.mac1609_4 	totalBusyTime 	0
scalar IntersectionExampleScenario.node[20].veinsmobility 	startTime 	39.5
scalar IntersectionExampleScenario.node[20].veinsmobility 	totalTime 	75
scalar IntersectionExampleScenario.node[20].veinsmobility 	stopTime 	114.75
scalar IntersectionExampleScenario.node[20].veinsmobility 	minSpeed 	0
scalar IntersectionExampleScenario.node[20].veinsmobility 	maxSpeed 	15.375
scalar IntersectionExampleScenario.node[20].veinsmobility 	totalDistance 	572.57110454929
scalar IntersectionExampleScenario.node[20].veinsmobility 	totalCO2Emission 	185.82985074987
scalar IntersectionExampleScenario.node[18].appl 	VehicleRemoved 	0
scalar IntersectionExampleScenario.node[18].appl 	ArrivedAtDest 	1
scalar IntersectionExampleScenario.node[18].appl 	IntersectionEnterTime 	37
scalar IntersectionExampleScenario.node[18].appl 	IntersectionExitTime 	100.26468983013
scalar IntersectionExampleScenario.node[18].appl 	NumberOfCollisions 	0
scalar IntersectionExampleScenario.node[18].nic.phy80211p 	busyTime 	0
scalar IntersectionExampleScenario.node[18].nic.mac1609_4 	ReceivedUnicastPackets 	0
scalar IntersectionExampleScenario.node[18].nic.mac1609_4 	ReceivedBroadcasts 	0
scalar IntersectionExampleScenario.node[18].nic.mac1609_4 	SentPackets 	0
scalar IntersectionExampleScenario.node[18].nic.mac1609_4 	SNIRLostPackets 	0
scalar IntersectionExampleScenario.node[18].nic.mac1609_4 	RXTXLostPackets 	0
scalar IntersectionExampleScenario.node[18].nic.mac1609_4 	TotalLostPackets 	0
scalar IntersectionExampleScenario.node[18].nic.mac1609_4 	DroppedPacketsInMac 	0
scalar IntersectionExampleScenario.node[18].nic.mac1609_4 	TooLittleTime 	0
scalar IntersectionExampleScenario.node[18].nic.mac1609_4 	TimesIntoBackoff 	0
scalar IntersectionExampleScenario.node[18].nic.mac1609_4 	SlotsBackoff 	0
scalar IntersectionExampleScenario.node[18].nic.mac1609_4 	NumInternalContention 	0
scalar IntersectionExampleScenario.node[18].nic.mac1609_4 	totalBusyTime 	0
scalar IntersectionExampleScenario.node[18].veinsmobility 	startTime 	37
scalar IntersectionExampleScenario.node[18].veinsmobility 	totalTime 	79
scalar IntersectionExampleScenario.node[18].veinsmobility 	stopTime 	116.25
scalar IntersectionExampleScenario.node[18].veinsmobility 	minSpeed 	0
scalar IntersectionExampleScenario.node[18].veinsmobility 	maxSpeed 	16
scalar IntersectionExampleScenario.node[18].veinsmobility 	totalDistance 	570.11071777344
scalar IntersectionExampleScenario.node[18].veinsmobility 	totalCO2Emission 	182.10665254977
scalar IntersectionExampleScenario.node[21].appl 	VehicleRemoved 	0
scalar IntersectionExampleScenario.node[21].appl 	ArrivedAtDest 	1
scalar IntersectionExampleScenario.node[21].appl 	IntersectionEnterTime 	40
scalar IntersectionExampleScenario.node[21].appl 	IntersectionExitTime 	101.10236694748
scalar IntersectionExampleScenario.node[21].appl 	NumberOfCollisions 	0
scalar IntersectionExampleScenario.node[21].nic.phy80211p 	busyTime 	0
scalar IntersectionExampleScenario.node[21].nic.mac1609_4 	ReceivedUnicastPackets 	0
scalar IntersectionExampleScenario.node[21].nic.mac1609_4 	ReceivedBroadcasts 	0
scalar IntersectionExampleScenario.node[21].nic.mac1609_4 	SentPackets 	0
scalar IntersectionExampleScenario.node[21].nic.mac1609_4 	SNIRLostPackets 	0
scalar IntersectionExampleScenario.node[21].nic.mac1609_4 	RXTXLostPackets 	0
scalar IntersectionExampleScenario.node[21].nic.mac1609_4 	TotalLostPackets 	0
scalar IntersectionExampleScenario.node[21].nic.mac1609_4 	DroppedPacketsInMac 	0
scalar IntersectionExampleScenario.node[21].nic.mac1609_4 	TooLittleTime 	0
scalar IntersectionExampleScenario.node[21].nic.mac1609_4 	TimesIntoBackoff 	0
scalar IntersectionExampleScenario.node[21].nic.mac1609_4 	SlotsBackoff 	0
scalar IntersectionExampleScenario.node[21].nic.mac1609_4 	NumInternalContention 	0
scalar IntersectionExampleScenario.node[21].nic.mac1609_4 	totalBusyTime 	0
scalar IntersectionExampleScenario.node[21].veinsmobility 	startTime 	40
scalar IntersectionExampleScenario.node[21].veinsmobility 	totalTime 	77.25
scalar IntersectionExampleScenario.node[21].veinsmobility 	stopTime 	117.5
scalar IntersectionExampleScenario.node[21].veinsmobility 	minSpeed 	0
scalar IntersectionExampleScenario.node[21].veinsmobility 	maxSpeed 	16.5
scalar IntersectionExampleScenario.node[21].veinsmobility 	totalDistance 	567.32739553611
scalar IntersectionExampleScenario.node[21].veinsmobility 	totalCO2Emission 	182.76017164672
scalar IntersectionExampleScenario.node[22].appl 	VehicleRemoved 	0
scalar IntersectionExampleScenario.node[22].appl 	ArrivedAtDest 	1
scalar IntersectionExampleScenario.node[22].appl 	IntersectionEnterTime 	41
scalar IntersectionExampleScenario.node[22].appl 	IntersectionExitTime 	103.52234462718
scalar IntersectionExampleScenario.node[22].appl 	NumberOfCollisions 	0
scalar IntersectionExampleScenario.node[22].nic.phy80211p 	busyTime 	0
scalar IntersectionExampleScenario.node[22].nic.mac1609_4 	ReceivedUnicastPackets 	0
scalar IntersectionExampleScenario.node[22].nic.mac1609_4 	ReceivedBroadcasts 	0
scalar IntersectionExampleScenario.node[22].nic.mac1609_4 	SentPackets 	0
scalar IntersectionExampleScenario.node[22].nic.mac1609_4 	SNIRLostPackets 	0
scalar IntersectionExampleScenario.node[22].nic.mac1609_4 	RXTXLostPackets 	0
scalar IntersectionExampleScenario.node[22].nic.mac1609_4 	TotalLostPackets 	0
scalar IntersectionExampleScenario.node[22].nic.mac1609_4 	DroppedPacketsInMac 	0
scalar IntersectionExampleScenario.node[22].nic.mac1609_4 	TooLittleTime 	0
scalar IntersectionExampleScenario.node[22].nic.mac1609_4 	TimesIntoBackoff 	0
scalar IntersectionExampleScenario.node[22].nic.mac1609_4 	SlotsBackoff 	0
scalar IntersectionExampleScenario.node[22].nic.mac1609_4 	NumInternalContention 	0
scalar IntersectionExampleScenario.node[22].nic.mac1609_4 	totalBusyTime 	0
scalar IntersectionExampleScenario.node[22].veinsmobility 	startTime 	41
scalar IntersectionExampleScenario.node[22].veinsmobility 	totalTime 	78.75
scalar IntersectionExampleScenario.node[22].veinsmobility 	stopTime 	120
scalar IntersectionExampleScenario.node[22].veinsmobility 	minSpeed 	0
scalar IntersectionExampleScenario.node[22].veinsmobility 	maxSpeed 	15.5
scalar IntersectionExampleScenario.node[22].veinsmobility 	totalDistance 	586.93565369764
scalar IntersectionExampleScenario.node[22].veinsmobility 	totalCO2Emission 	172.77261728888
scalar IntersectionExampleScenario.node[25].appl 	VehicleRemoved 	0
scalar IntersectionExampleScenario.node[25].appl 	ArrivedAtDest 	1
scalar IntersectionExampleScenario.node[25].appl 	IntersectionEnterTime 	43.75
scalar IntersectionExampleScenario.node[25].appl 	IntersectionExitTime 	105.8730050805
scalar IntersectionExampleScenario.node[25].appl 	NumberOfCollisions 	0
scalar IntersectionExampleScenario.node[25].nic.phy80211p 	busyTime 	0
scalar IntersectionExampleScenario.node[25].nic.mac1609_4 	ReceivedUnicastPackets 	0
scalar IntersectionExampleScenario.node[25].nic.mac1609_4 	ReceivedBroadcasts 	0
scalar IntersectionExampleScenario.node[25].nic.mac1609_4 	SentPackets 	0
scalar IntersectionExampleScenario.node[25].nic.mac1609_4 	SNIRLostPackets 	0
scalar IntersectionExampleScenario.node[25].nic.mac1609_4 	RXTXLostPackets 	0
scalar IntersectionExampleScenario.node[25].nic.mac1609_4 	TotalLostPackets 	0
scalar IntersectionExampleScenario.node[25].nic.mac1609_4 	DroppedPacketsInMac 	0
scalar IntersectionExampleScenario.node[25].nic.mac1609_4 	TooLittleTime 	0
scalar IntersectionExampleScenario.node[25].nic.mac1609_4 	TimesIntoBackoff 	0
scalar IntersectionExampleScenario.node[25].nic.mac1609_4 	SlotsBackoff 	0
scalar IntersectionExampleScenario.node[25].nic.mac1609_4 	NumInternalContention 	0
scalar IntersectionExampleScenario.node[25].nic.mac1609_4 	totalBusyTime 	0
scalar IntersectionExampleScenario.node[25].veinsmobility 	startTime 	43.75
scalar IntersectionExampleScenario.node[25].veinsmobility 	totalTime 	78.25
scalar IntersectionExampleScenario.node[25].veinsmobility 	stopTime 	122.25
scalar IntersectionExampleScenario.node[25].veinsmobility 	minSpeed 	0
scalar IntersectionExampleScenario.node[25].veinsmobility 	maxSpeed 	15.400576591492
scalar IntersectionExampleScenario.node[25].veinsmobility 	totalDistance 	582.6133422868
scalar IntersectionExampleScenario.node[25].veinsmobility 	totalCO2Emission 	171.12376399737
scalar IntersectionExampleScenario.node[34].appl 	VehicleRemoved 	0
scalar IntersectionExampleScenario.node[34].appl 	ArrivedAtDest 	1
scalar IntersectionExampleScenario.node[34].appl 	IntersectionEnterTime 	60
scalar IntersectionExampleScenario.node[34].appl 	IntersectionExitTime 	107.51581621799
scalar IntersectionExampleScenario.node[34].appl 	NumberOfCollisions 	0
scalar IntersectionExampleScenario.node[34].nic.phy80211p 	busyTime 	0
scalar IntersectionExampleScenario.node[34].nic.mac1609_4 	ReceivedUnicastPackets 	0
scalar IntersectionExampleScenario.node[34].nic.mac1609_4 	ReceivedBroadcasts 	0
scalar IntersectionExampleScenario.node[34].nic.mac1609_4 	SentPackets 	0
scalar IntersectionExampleScenario.node[34].nic.mac1609_4 	SNIRLostPackets 	0
scalar IntersectionExampleScenario.node[34].nic.mac1609_4 	RXTXLostPackets 	0
scalar IntersectionExampleScenario.node[34].nic.mac1609_4 	TotalLostPackets 	0
scalar IntersectionExampleScenario.node[34].nic.mac1609_4 	DroppedPacketsInMac 	0
scalar IntersectionExampleScenario.node[34].nic.mac1609_4 	TooLittleTime 	0
scalar IntersectionExampleScenario.node[34].nic.mac1609_4 	TimesIntoBackoff 	0
scalar IntersectionExampleScenario.node[34].nic.mac1609_4 	SlotsBackoff 	0
scalar IntersectionExampleScenario.node[34].nic.mac1609_4 	NumInternalContention 	0
scalar IntersectionExampleScenario.node[34].nic.mac1609_4 	totalBusyTime 	0
scalar IntersectionExampleScenario.node[34].veinsmobility 	startTime 	60
scalar IntersectionExampleScenario.node[34].veinsmobility 	totalTime 	64
scalar IntersectionExampleScenario.node[34].veinsmobility 	stopTime 	124.25
scalar IntersectionExampleScenario.node[34].veinsmobility 	minSpeed 	0
scalar IntersectionExampleScenario.node[34].veinsmobility 	maxSpeed 	15.875
scalar IntersectionExampleScenario.node[34].veinsmobility 	totalDistance 	545.84707547576
scalar IntersectionExampleScenario.node[34].veinsmobility 	totalCO2Emission 	159.35235835091
scalar IntersectionExampleScenario.node[36].appl 	VehicleRemoved 	0
scalar IntersectionExampleScenario.node[36].appl 	ArrivedAtDest 	1
scalar IntersectionExampleScenario.node[36].appl 	IntersectionEnterTime 	68
scalar IntersectionExampleScenario.node[36].appl 	IntersectionExitTime 	109.26084590744
scalar IntersectionExampleScenario.node[36].appl 	NumberOfCollisions 	0
scalar IntersectionExampleScenario.node[36].nic.phy80211p 	busyTime 	0
scalar IntersectionExampleScenario.node[36].nic.mac1609_4 	ReceivedUnicastPackets 	0
scalar IntersectionExampleScenario.node[36].nic.mac1609_4 	ReceivedBroadcasts 	0
scalar IntersectionExampleScenario.node[36].nic.mac1609_4 	SentPackets 	0
scalar IntersectionExampleScenario.node[36].nic.mac1609_4 	SNIRLostPackets 	0
scalar IntersectionExampleScenario.node[36].nic.mac1609_4 	RXTXLostPackets 	0
scalar IntersectionExampleScenario.node[36].nic.mac1609_4 	TotalLostPackets 	0
scalar IntersectionExampleScenario.node[36].nic.mac1609_4 	DroppedPacketsInMac 	0
scalar IntersectionExampleScenario.node[36].nic.mac1609_4 	TooLittleTime 	0
scalar IntersectionExampleScenario.node[36].nic.mac1609_4 	TimesIntoBackoff 	0
scalar IntersectionExampleScenario.node[36].nic.mac1609_4 	SlotsBackoff 	0
scalar IntersectionExampleScenario.node[36].nic.mac1609_4 	NumInternalContention 	0
scalar IntersectionExampleScenario.node[36].nic.mac1609_4 	totalBusyTime 	0
scalar IntersectionExampleScenario.node[36].veinsmobility 	startTime 	68
scalar IntersectionExampleScenario.node[36].veinsmobility 	totalTime 	57.25
scalar IntersectionExampleScenario.node[36].veinsmobility 	stopTime 	125.5
scalar IntersectionExampleScenario.node[36].veinsmobility 	minSpeed 	0
scalar IntersectionExampleScenario.node[36].veinsmobility 	maxSpeed 	16
scalar IntersectionExampleScenario.node[36].veinsmobility 	totalDistance 	549.38370534538
scalar IntersectionExampleScenario.node[36].veinsmobility 	totalCO2Emission 	148.62673088488
scalar IntersectionExampleScenario.node[41].appl 	VehicleRemoved 	0
scalar IntersectionExampleScenario.node[41].appl 	ArrivedAtDest 	1
scalar IntersectionExampleScenario.node[41].appl 	IntersectionEnterTime 	74.25
scalar IntersectionExampleScenario.node[41].appl 	IntersectionExitTime 	111.77549919358
scalar IntersectionExampleScenario.node[41].appl 	NumberOfCollisions 	0
scalar IntersectionExampleScenario.node[41].nic.phy80211p 	busyTime 	0
scalar IntersectionExampleScenario.node[41].nic.mac1609_4 	ReceivedUnicastPackets 	0
scalar IntersectionExampleScenario.node[41].nic.mac1609_4 	ReceivedBroadcasts 	0
scalar IntersectionExampleScenario.node[41].nic.mac1609_4 	SentPackets 	0
scalar IntersectionExampleScenario.node[41].nic.mac1609_4 	SNIRLostPackets 	0
scalar IntersectionExampleScenario.node[41].nic.mac1609_4 	RXTXLostPackets 	0
scalar IntersectionExampleScenario.node[41].nic.mac1609_4 	TotalLostPackets 	0
scalar IntersectionExampleScenario.node[41].nic.mac1609_4 	DroppedPacketsInMac 	0
scalar IntersectionExampleScenario.node[41].nic.mac1609_4 	TooLittleTime 	0
scalar IntersectionExampleScenario.node[41].nic.mac1609_4 	TimesIntoBackoff 	0
scalar IntersectionExampleScenario.node[41].nic.mac1609_4 	SlotsBackoff 	0
scalar IntersectionExampleScenario.node[41].nic.mac1609_4 	NumInternalContention 	0
scalar IntersectionExampleScenario.node[41].nic.mac1609_4 	totalBusyTime 	0
scalar IntersectionExampleScenario.node[41].veinsmobility 	startTime 	74.25
scalar IntersectionExampleScenario.node[41].veinsmobility 	totalTime 	53.75
scalar IntersectionExampleScenario.node[41].veinsmobility 	stopTime 	128.25
scalar IntersectionExampleScenario.node[41].veinsmobility 	minSpeed 	0
scalar IntersectionExampleScenario.node[41].veinsmobility 	maxSpeed 	15.64999961853
scalar IntersectionExampleScenario.node[41].veinsmobility 	totalDistance 	549.39400376931
scalar IntersectionExampleScenario.node[41].veinsmobility 	totalCO2Emission 	141.93837973971
scalar IntersectionExampleScenario.node[27].appl 	VehicleRemoved 	0
scalar IntersectionExampleScenario.node[27].appl 	ArrivedAtDest 	1
scalar IntersectionExampleScenario.node[27].appl 	IntersectionEnterTime 	47.5
scalar IntersectionExampleScenario.node[27].appl 	IntersectionExitTime 	114.7619535457
scalar IntersectionExampleScenario.node[27].appl 	NumberOfCollisions 	0
scalar IntersectionExampleScenario.node[27].nic.phy80211p 	busyTime 	0
scalar IntersectionExampleScenario.node[27].nic.mac1609_4 	ReceivedUnicastPackets 	0
scalar IntersectionExampleScenario.node[27].nic.mac1609_4 	ReceivedBroadcasts 	0
scalar IntersectionExampleScenario.node[27].nic.mac1609_4 	SentPackets 	0
scalar IntersectionExampleScenario.node[27].nic.mac1609_4 	SNIRLostPackets 	0
scalar IntersectionExampleScenario.node[27].nic.mac1609_4 	RXTXLostPackets 	0
scalar IntersectionExampleScenario.node[27].nic.mac1609_4 	TotalLostPackets 	0
scalar IntersectionExampleScenario.node[27].nic.mac1609_4 	DroppedPacketsInMac 	0
scalar IntersectionExampleScenario.node[27].nic.mac1609_4 	TooLittleTime 	0
scalar IntersectionExampleScenario.node[27].nic.mac1609_4 	TimesIntoBackoff 	0
scalar IntersectionExampleScenario.node[27].nic.mac1609_4 	SlotsBackoff 	0
scalar IntersectionExampleScenario.node[27].nic.mac1609_4 	NumInternalContention 	0
scalar IntersectionExampleScenario.node[27].nic.mac1609_4 	totalBusyTime 	0
scalar IntersectionExampleScenario.node[27].veinsmobility 	startTime 	47.5
scalar IntersectionExampleScenario.node[27].veinsmobility 	totalTime 	84.25
scalar IntersectionExampleScenario.node[27].veinsmobility 	stopTime 	132
scalar IntersectionExampleScenario.node[27].veinsmobility 	minSpeed 	0
scalar IntersectionExampleScenario.node[27].veinsmobility 	maxSpeed 	14.75
scalar IntersectionExampleScenario.node[27].veinsmobility 	totalDistance 	574.20031099748
scalar IntersectionExampleScenario.node[27].veinsmobility 	totalCO2Emission 	179.1276041889
scalar IntersectionExampleScenario.node[32].appl 	VehicleRemoved 	0
scalar IntersectionExampleScenario.node[32].appl 	ArrivedAtDest 	1
scalar IntersectionExampleScenario.node[32].appl 	IntersectionEnterTime 	53.75
scalar IntersectionExampleScenario.node[32].appl 	IntersectionExitTime 	116.02456782572
scalar IntersectionExampleScenario.node[32].appl 	NumberOfCollisions 	0
scalar IntersectionExampleScenario.node[32].nic.phy80211p 	busyTime 	0
scalar IntersectionExampleScenario.node[32].nic.mac1609_4 	ReceivedUnicastPackets 	0
scalar IntersectionExampleScenario.node[32].nic.mac1609_4 	ReceivedBroadcasts 	0
scalar IntersectionExampleScenario.node[32].nic.mac1609_4 	SentPackets 	0
scalar IntersectionExampleScenario.node[32].nic.mac1609_4 	SNIRLostPackets 	0
scalar IntersectionExampleScenario.node[32].nic.mac1609_4 	RXTXLostPackets 	0
scalar IntersectionExampleScenario.node[32].nic.mac1609_4 	TotalLostPackets 	0
scalar IntersectionExampleScenario.node[32].nic.mac1609_4 	DroppedPacketsInMac 	0
scalar IntersectionExampleScenario.node[32].nic.mac1609_4 	TooLittleTime 	0
scalar IntersectionExampleScenario.node[32].nic.mac1609_4 	TimesIntoBackoff 	0
scalar IntersectionExampleScenario.node[32].nic.mac1609_4 	SlotsBackoff 	0
scalar IntersectionExampleScenario.node[32].nic.mac1609_4 	NumInternalContention 	0
scalar IntersectionExampleScenario.node[32].nic.mac1609_4 	totalBusyTime 	0
scalar IntersectionExampleScenario.node[32].veinsmobility 	startTime 	53.75
scalar IntersectionExampleScenario.node[32].veinsmobility 	totalTime 	79.75
scalar IntersectionExampleScenario.node[32].veinsmobility 	stopTime 	133.75
scalar IntersectionExampleScenario.node[32].veinsmobility 	minSpeed 	0
scalar IntersectionExampleScenario.node[32].veinsmobility 	maxSpeed 	15.02499961853
scalar IntersectionExampleScenario.node[32].veinsmobility 	totalDistance 	546.45747637038
scalar IntersectionExampleScenario.node[32].veinsmobility 	totalCO2Emission 	168.93872058286
scalar IntersectionExampleScenario.node[38].appl 	VehicleRemoved 	0
scalar IntersectionExampleScenario.node[38].appl 	ArrivedAtDest 	1
scalar IntersectionExampleScenario.node[38].appl 	IntersectionEnterTime 	70.75
scalar IntersectionExampleScenario.node[38].appl 	IntersectionExitTime 	118.58848780516
scalar IntersectionExampleScenario.node[38].appl 	NumberOfCollisions 	0
scalar IntersectionExampleScenario.node[38].nic.phy80211p 	busyTime 	0
scalar IntersectionExampleScenario.node[38].nic.mac1609_4 	ReceivedUnicastPackets 	0
scalar IntersectionExampleScenario.node[38].nic.mac1609_4 	ReceivedBroadcasts 	0
scalar IntersectionExampleScenario.node[38].nic.mac1609_4 	SentPackets 	0
scalar IntersectionExampleScenario.node[38].nic.mac1609_4 	SNIRLostPackets 	0
scalar IntersectionExampleScenario.node[38].nic.mac1609_4 	RXTXLostPackets 	0
scalar IntersectionExampleScenario.node[38].nic.mac1609_4 	TotalLostPackets 	0
scalar IntersectionExampleScenario.node[38].nic.mac1609_4 	DroppedPacketsInMac 	0
scalar IntersectionExampleScenario.node[38].nic.mac1609_4 	TooLittleTime 	0
scalar IntersectionExampleScenario.node[38].nic.mac1609_4 	TimesIntoBackoff 	0
scalar IntersectionExampleScenario.node[38].nic.mac1609_4 	SlotsBackoff 	0
scalar IntersectionExampleScenario.node[38].nic.mac1609_4 	NumInternalContention 	0
scalar IntersectionExampleScenario.node[38].nic.mac1609_4 	totalBusyTime 	0
scalar IntersectionExampleScenario.node[38].veinsmobility 	startTime 	70.75
scalar IntersectionExampleScenario.node[38].veinsmobility 	totalTime 	64.5
scalar IntersectionExampleScenario.node[38].veinsmobility 	stopTime 	135.5
scalar IntersectionExampleScenario.node[38].veinsmobility 	minSpeed 	0
scalar IntersectionExampleScenario.node[38].veinsmobility 	maxSpeed 	15.64999961853
scalar IntersectionExampleScenario.node[38].veinsmobility 	totalDistance 	545.72099226004
scalar IntersectionExampleScenario.node[38].veinsmobility 	totalCO2Emission 	166.70466171576
scalar IntersectionExampleScenario.node[40].appl 	VehicleRemoved 	0
scalar IntersectionExampleScenario.node[40].appl 	ArrivedAtDest 	1
scalar IntersectionExampleScenario.node[40].appl 	IntersectionEnterTime 	71.25
scalar IntersectionExampleScenario.node[40].appl 	IntersectionExitTime 	121.05952798936
scalar IntersectionExampleScenario.node[40].appl 	NumberOfCollisions 	0
scalar IntersectionExampleScenario.node[40].nic.phy80211p 	busyTime 	0
scalar IntersectionExampleScenario.node[40].nic.mac1609_4 	ReceivedUnicastPackets 	0
scalar IntersectionExampleScenario.node[40].nic.mac1609_4 	ReceivedBroadcasts 	0
scalar IntersectionExampleScenario.node[40].nic.mac1609_4 	SentPackets 	0
scalar IntersectionExampleScenario.node[40].nic.mac1609_4 	SNIRLostPackets 	0
scalar IntersectionExampleScenario.node[40].nic.mac1609_4 	RXTXLostPackets 	0
scalar IntersectionExampleScenario.node[40].nic.mac1609_4 	TotalLostPackets 	0
scalar IntersectionExampleScenario.node[40].nic.mac1609_4 	DroppedPacketsInMac 	0
scalar IntersectionExampleScenario.node[40].nic.mac1609_4 	TooLittleTime 	0
scalar IntersectionExampleScenario.node[40].nic.mac1609_4 	TimesIntoBackoff 	0
scalar IntersectionExampleScenario.node[40].nic.mac1609_4 	SlotsBackoff 	0
scalar IntersectionExampleScenario.node[40].nic.mac1609_4 	NumInternalContention 	0
scalar IntersectionExampleScenario.node[40].nic.mac1609_4 	totalBusyTime 	0
scalar IntersectionExampleScenario.node[40].veinsmobility 	startTime 	71.25
scalar IntersectionExampleScenario.node[40].veinsmobility 	totalTime 	66.5
scalar IntersectionExampleScenario.node[40].veinsmobility 	stopTime 	138
scalar IntersectionExampleScenario.node[40].veinsmobility 	minSpeed 	0
scalar IntersectionExampleScenario.node[40].veinsmobility 	maxSpeed 	15.420751571655
scalar IntersectionExampleScenario.node[40].veinsmobility 	totalDistance 	570.16946514831
scalar IntersectionExampleScenario.node[40].veinsmobility 	totalCO2Emission 	163.93653439506
scalar IntersectionExampleScenario.node[23].appl 	VehicleRemoved 	0
scalar IntersectionExampleScenario.node[23].appl 	ArrivedAtDest 	1
scalar IntersectionExampleScenario.node[23].appl 	IntersectionEnterTime 	41.75
scalar IntersectionExampleScenario.node[23].appl 	IntersectionExitTime 	122.60083079213
scalar IntersectionExampleScenario.node[23].appl 	NumberOfCollisions 	0
scalar IntersectionExampleScenario.node[23].nic.phy80211p 	busyTime 	0
scalar IntersectionExampleScenario.node[23].nic.mac1609_4 	ReceivedUnicastPackets 	0
scalar IntersectionExampleScenario.node[23].nic.mac1609_4 	ReceivedBroadcasts 	0
scalar IntersectionExampleScenario.node[23].nic.mac1609_4 	SentPackets 	0
scalar IntersectionExampleScenario.node[23].nic.mac1609_4 	SNIRLostPackets 	0
scalar IntersectionExampleScenario.node[23].nic.mac1609_4 	RXTXLostPackets 	0
scalar IntersectionExampleScenario.node[23].nic.mac1609_4 	TotalLostPackets 	0
scalar IntersectionExampleScenario.node[23].nic.mac1609_4 	DroppedPacketsInMac 	0
scalar IntersectionExampleScenario.node[23].nic.mac1609_4 	TooLittleTime 	0
scalar IntersectionExampleScenario.node[23].nic.mac1609_4 	TimesIntoBackoff 	0
scalar IntersectionExampleScenario.node[23].nic.mac1609_4 	SlotsBackoff 	0
scalar IntersectionExampleScenario.node[23].nic.mac1609_4 	NumInternalContention 	0
scalar IntersectionExampleScenario.node[23].nic.mac1609_4 	totalBusyTime 	0
scalar IntersectionExampleScenario.node[23].veinsmobility 	startTime 	41.75
scalar IntersectionExampleScenario.node[23].veinsmobility 	totalTime 	97.5
scalar IntersectionExampleScenario.node[23].veinsmobility 	stopTime 	139.5
scalar IntersectionExampleScenario.node[23].veinsmobility 	minSpeed 	0
scalar IntersectionExampleScenario.node[23].veinsmobility 	maxSpeed 	15.875
scalar IntersectionExampleScenario.node[23].veinsmobility 	totalDistance 	574.58170987517
scalar IntersectionExampleScenario.node[23].veinsmobility 	totalCO2Emission 	194.7012524174
scalar IntersectionExampleScenario.node[31].appl 	VehicleRemoved 	0
scalar IntersectionExampleScenario.node[31].appl 	ArrivedAtDest 	1
scalar IntersectionExampleScenario.node[31].appl 	IntersectionEnterTime 	50.75
scalar IntersectionExampleScenario.node[31].appl 	IntersectionExitTime 	124.30222284284
scalar IntersectionExampleScenario.node[31].appl 	NumberOfCollisions 	0
scalar IntersectionExampleScenario.node[31].nic.phy80211p 	busyTime 	0
scalar IntersectionExampleScenario.node[31].nic.mac1609_4 	ReceivedUnicastPackets 	0
scalar IntersectionExampleScenario.node[31].nic.mac1609_4 	ReceivedBroadcasts 	0
scalar IntersectionExampleScenario.node[31].nic.mac1609_4 	SentPackets 	0
scalar IntersectionExampleScenario.node[31].nic.mac1609_4 	SNIRLostPackets 	0
scalar IntersectionExampleScenario.node[31].nic.mac1609_4 	RXTXLostPackets 	0
scalar IntersectionExampleScenario.node[31].nic.mac1609_4 	TotalLostPackets 	0
scalar IntersectionExampleScenario.node[31].nic.mac1609_4 	DroppedPacketsInMac 	0
scalar IntersectionExampleScenario.node[31].nic.mac1609_4 	TooLittleTime 	0
scalar IntersectionExampleScenario.node[31].nic.mac1609_4 	TimesIntoBackoff 	0
scalar IntersectionExampleScenario.node[31].nic.mac1609_4 	SlotsBackoff 	0
scalar IntersectionExampleScenario.node[31].nic.mac1609_4 	NumInternalContention 	0
scalar IntersectionExampleScenario.node[31].nic.mac1609_4 	totalBusyTime 	0
scalar IntersectionExampleScenario.node[31].veinsmobility 	startTime 	50.75
scalar IntersectionExampleScenario.node[31].veinsmobility 	totalTime 	89.5
scalar IntersectionExampleScenario.node[31].veinsmobility 	stopTime 	140.5
scalar IntersectionExampleScenario.node[31].veinsmobility 	minSpeed 	0
scalar IntersectionExampleScenario.node[31].veinsmobility 	maxSpeed 	15.5
scalar IntersectionExampleScenario.node[31].veinsmobility 	totalDistance 	522.4002532959
scalar IntersectionExampleScenario.node[31].veinsmobility 	totalCO2Emission 	182.78201911158
scalar IntersectionExampleScenario.node[28].appl 	VehicleRemoved 	0
scalar IntersectionExampleScenario.node[28].appl 	ArrivedAtDest 	1
scalar IntersectionExampleScenario.node[28].appl 	IntersectionEnterTime 	48.25
scalar IntersectionExampleScenario.node[28].appl 	IntersectionExitTime 	126.87361736735
scalar IntersectionExampleScenario.node[28].appl 	NumberOfCollisions 	0
scalar IntersectionExampleScenario.node[28].nic.phy80211p 	busyTime 	0
scalar IntersectionExampleScenario.node[28].nic.mac1609_4 	ReceivedUnicastPackets 	0
scalar IntersectionExampleScenario.node[28].nic.mac1609_4 	ReceivedBroadcasts 	0
scalar IntersectionExampleScenario.node[28].nic.mac1609_4 	SentPackets 	0
scalar IntersectionExampleScenario.node[28].nic.mac1609_4 	SNIRLostPackets 	0
scalar IntersectionExampleScenario.node[28].nic.mac1609_4 	RXTXLostPackets 	0
scalar IntersectionExampleScenario.node[28].nic.mac1609_4 	TotalLostPackets 	0
scalar IntersectionExampleScenario.node[28].nic.mac1609_4 	DroppedPacketsInMac 	0
scalar IntersectionExampleScenario.node[28].nic.mac1609_4 	TooLittleTime 	0
scalar IntersectionExampleScenario.node[28].nic.mac1609_4 	TimesIntoBackoff 	0
scalar IntersectionExampleScenario.node[28].nic.mac1609_4 	SlotsBackoff 	0
scalar IntersectionExampleScenario.node[28].nic.mac1609_4 	NumInternalContention 	0
scalar IntersectionExampleScenario.node[28].nic.mac1609_4 	totalBusyTime 	0
scalar IntersectionExampleScenario.node[28].veinsmobility 	startTime 	48.25
scalar IntersectionExampleScenario.node[28].veinsmobility 	totalTime 	95.25
scalar IntersectionExampleScenario.node[28].veinsmobility 	stopTime 	143.75
scalar IntersectionExampleScenario.node[28].veinsmobility 	minSpeed 	0
scalar IntersectionExampleScenario.node[28].veinsmobility 	maxSpeed 	14.875
scalar IntersectionExampleScenario.node[28].veinsmobility 	totalDistance 	562.63590240479
scalar IntersectionExampleScenario.node[28].veinsmobility 	totalCO2Emission 	196.97689450778
scalar IntersectionExampleScenario.node[30].appl 	VehicleRemoved 	0
scalar IntersectionExampleScenario.node[30].appl 	ArrivedAtDest 	1
scalar IntersectionExampleScenario.node[30].appl 	IntersectionEnterTime 	49.75
scalar IntersectionExampleScenario.node[30].appl 	IntersectionExitTime 	129.5797329841
scalar IntersectionExampleScenario.node[30].appl 	NumberOfCollisions 	0
scalar IntersectionExampleScenario.node[30].nic.phy80211p 	busyTime 	0
scalar IntersectionExampleScenario.node[30].nic.mac1609_4 	ReceivedUnicastPackets 	0
scalar IntersectionExampleScenario.node[30].nic.mac1609_4 	ReceivedBroadcasts 	0
scalar IntersectionExampleScenario.node[30].nic.mac1609_4 	SentPackets 	0
scalar IntersectionExampleScenario.node[30].nic.mac1609_4 	SNIRLostPackets 	0
scalar IntersectionExampleScenario.node[30].nic.mac1609_4 	RXTXLostPackets 	0
scalar IntersectionExampleScenario.node[30].nic.mac1609_4 	TotalLostPackets 	0
scalar IntersectionExampleScenario.node[30].nic.mac1609_4 	DroppedPacketsInMac 	0
scalar IntersectionExampleScenario.node[30].nic.mac1609_4 	TooLittleTime 	0
scalar IntersectionExampleScenario.node[30].nic.mac1609_4 	TimesIntoBackoff 	0
scalar IntersectionExampleScenario.node[30].nic.mac1609_4 	SlotsBackoff 	0
scalar IntersectionExampleScenario.node[30].nic.mac1609_4 	NumInternalContention 	0
scalar IntersectionExampleScenario.node[30].nic.mac1609_4 	totalBusyTime 	0
scalar IntersectionExampleScenario.node[30].veinsmobility 	startTime 	49.75
scalar IntersectionExampleScenario.node[30].veinsmobility 	totalTime 	96.25
scalar IntersectionExampleScenario.node[30].veinsmobility 	stopTime 	146.25
scalar IntersectionExampleScenario.node[30].veinsmobility 	minSpeed 	0
scalar IntersectionExampleScenario.node[30].veinsmobility 	maxSpeed 	15.875
scalar IntersectionExampleScenario.node[30].veinsmobility 	totalDistance 	568.44742185048
scalar IntersectionExampleScenario.node[30].veinsmobility 	totalCO2Emission 	202.10092941412
scalar IntersectionExampleScenario.node[29].appl 	VehicleRemoved 	0
scalar IntersectionExampleScenario.node[29].appl 	ArrivedAtDest 	1
scalar IntersectionExampleScenario.node[29].appl 	IntersectionEnterTime 	49.5
scalar IntersectionExampleScenario.node[29].appl 	IntersectionExitTime 	132.30899413963
scalar IntersectionExampleScenario.node[29].appl 	NumberOfCollisions 	0
scalar IntersectionExampleScenario.node[29].nic.phy80211p 	busyTime 	0
scalar IntersectionExampleScenario.node[29].nic.mac1609_4 	ReceivedUnicastPackets 	0
scalar IntersectionExampleScenario.node[29].nic.mac1609_4 	ReceivedBroadcasts 	0
scalar IntersectionExampleScenario.node[29].nic.mac1609_4 	SentPackets 	0
scalar IntersectionExampleScenario.node[29].nic.mac1609_4 	SNIRLostPackets 	0
scalar IntersectionExampleScenario.node[29].nic.mac1609_4 	RXTXLostPackets 	0
scalar IntersectionExampleScenario.node[29].nic.mac1609_4 	TotalLostPackets 	0
scalar IntersectionExampleScenario.node[29].nic.mac1609_4 	DroppedPacketsInMac 	0
scalar IntersectionExampleScenario.node[29].nic.mac1609_4 	TooLittleTime 	0
scalar IntersectionExampleScenario.node[29].nic.mac1609_4 	TimesIntoBackoff 	0
scalar IntersectionExampleScenario.node[29].nic.mac1609_4 	SlotsBackoff 	0
scalar IntersectionExampleScenario.node[29].nic.mac1609_4 	NumInternalContention 	0
scalar IntersectionExampleScenario.node[29].nic.mac1609_4 	totalBusyTime 	0
scalar IntersectionExampleScenario.node[29].veinsmobility 	startTime 	49.5
scalar IntersectionExampleScenario.node[29].veinsmobility 	totalTime 	98.75
scalar IntersectionExampleScenario.node[29].veinsmobility 	stopTime 	148.5
scalar IntersectionExampleScenario.node[29].veinsmobility 	minSpeed 	0
scalar IntersectionExampleScenario.node[29].veinsmobility 	maxSpeed 	15.385362625122
scalar IntersectionExampleScenario.node[29].veinsmobility 	totalDistance 	558.78165545406
scalar IntersectionExampleScenario.node[29].veinsmobility 	totalCO2Emission 	197.17086920522
scalar IntersectionExampleScenario.node[33].appl 	VehicleRemoved 	0
scalar IntersectionExampleScenario.node[33].appl 	ArrivedAtDest 	1
scalar IntersectionExampleScenario.node[33].appl 	IntersectionEnterTime 	58.5
scalar IntersectionExampleScenario.node[33].appl 	IntersectionExitTime 	133.32305459899
scalar IntersectionExampleScenario.node[33].appl 	NumberOfCollisions 	0
scalar IntersectionExampleScenario.node[33].nic.phy80211p 	busyTime 	0
scalar IntersectionExampleScenario.node[33].nic.mac1609_4 	ReceivedUnicastPackets 	0
scalar IntersectionExampleScenario.node[33].nic.mac1609_4 	ReceivedBroadcasts 	0
scalar IntersectionExampleScenario.node[33].nic.mac1609_4 	SentPackets 	0
scalar IntersectionExampleScenario.node[33].nic.mac1609_4 	SNIRLostPackets 	0
scalar IntersectionExampleScenario.node[33].nic.mac1609_4 	RXTXLostPackets 	0
scalar IntersectionExampleScenario.node[33].nic.mac1609_4 	TotalLostPackets 	0
scalar IntersectionExampleScenario.node[33].nic.mac1609_4 	DroppedPacketsInMac 	0
scalar IntersectionExampleScenario.node[33].nic.mac1609_4 	TooLittleTime 	0
scalar IntersectionExampleScenario.node[33].nic.mac1609_4 	TimesIntoBackoff 	0
scalar IntersectionExampleScenario.node[33].nic.mac1609_4 	SlotsBackoff 	0
scalar IntersectionExampleScenario.node[33].nic.mac1609_4 	NumInternalContention 	0
scalar IntersectionExampleScenario.node[33].nic.mac1609_4 	totalBusyTime 	0
scalar IntersectionExampleScenario.node[33].veinsmobility 	startTime 	58.5
scalar IntersectionExampleScenario.node[33].veinsmobility 	totalTime 	90.75
scalar IntersectionExampleScenario.node[33].veinsmobility 	stopTime 	149.5
scalar IntersectionExampleScenario.node[33].veinsmobility 	minSpeed 	0
scalar IntersectionExampleScenario.node[33].veinsmobility 	maxSpeed 	15.64999961853
scalar IntersectionExampleScenario.node[33].veinsmobility 	totalDistance 	553.76118470631
scalar IntersectionExampleScenario.node[33].veinsmobility 	totalCO2Emission 	185.3413928499
scalar IntersectionExampleScenario.node[37].appl 	VehicleRemoved 	0
scalar IntersectionExampleScenario.node[37].appl 	ArrivedAtDest 	1
scalar IntersectionExampleScenario.node[37].appl 	IntersectionEnterTime 	70
scalar IntersectionExampleScenario.node[37].appl 	IntersectionExitTime 	135.80978215154
scalar IntersectionExampleScenario.node[37].appl 	NumberOfCollisions 	0
scalar IntersectionExampleScenario.node[37].nic.phy80211p 	busyTime 	0
scalar IntersectionExampleScenario.node[37].nic.mac1609_4 	ReceivedUnicastPackets 	0
scalar IntersectionExampleScenario.node[37].nic.mac1609_4 	ReceivedBroadcasts 	0
scalar IntersectionExampleScenario.node[37].nic.mac1609_4 	SentPackets 	0
scalar IntersectionExampleScenario.node[37].nic.mac1609_4 	SNIRLostPackets 	0
scalar IntersectionExampleScenario.node[37].nic.mac1609_4 	RXTXLostPackets 	0
scalar IntersectionExampleScenario.node[37].nic.mac1609_4 	TotalLostPackets 	0
scalar IntersectionExampleScenario.node[37].nic.mac1609_4 	DroppedPacketsInMac 	0
scalar IntersectionExampleScenario.node[37].nic.mac1609_4 	TooLittleTime 	0
scalar IntersectionExampleScenario.node[37].nic.mac1609_4 	TimesIntoBackoff 	0
scalar IntersectionExampleScenario.node[37].nic.mac1609_4 	SlotsBackoff 	0
scalar IntersectionExampleScenario.node[37].nic.mac1609_4 	NumInternalContention 	0
scalar IntersectionExampleScenario.node[37].nic.mac1609_4 	totalBusyTime 	0
scalar IntersectionExampleScenario.node[37].veinsmobility 	startTime 	70
[...]
scalar IntersectionExampleScenario.node[791].veinsmobility 	totalDistance 	144.63062286377
scalar IntersectionExampleScenario.node[791].veinsmobility 	totalCO2Emission 	38.021723737881
scalar IntersectionExampleScenario.node[792].appl 	VehicleRemoved 	0
scalar IntersectionExampleScenario.node[792].appl 	ArrivedAtDest 	0
scalar IntersectionExampleScenario.node[792].appl 	IntersectionEnterTime 	1782
scalar IntersectionExampleScenario.node[792].appl 	IntersectionExitTime 	-1
scalar IntersectionExampleScenario.node[792].appl 	NumberOfCollisions 	0
scalar IntersectionExampleScenario.node[792].nic.phy80211p 	busyTime 	0
scalar IntersectionExampleScenario.node[792].nic.mac1609_4 	ReceivedUnicastPackets 	0
scalar IntersectionExampleScenario.node[792].nic.mac1609_4 	ReceivedBroadcasts 	0
scalar IntersectionExampleScenario.node[792].nic.mac1609_4 	SentPackets 	0
scalar IntersectionExampleScenario.node[792].nic.mac1609_4 	SNIRLostPackets 	0
scalar IntersectionExampleScenario.node[792].nic.mac1609_4 	RXTXLostPackets 	0
scalar IntersectionExampleScenario.node[792].nic.mac1609_4 	TotalLostPackets 	0
scalar IntersectionExampleScenario.node[792].nic.mac1609_4 	DroppedPacketsInMac 	0
scalar IntersectionExampleScenario.node[792].nic.mac1609_4 	TooLittleTime 	0
scalar IntersectionExampleScenario.node[792].nic.mac1609_4 	TimesIntoBackoff 	0
scalar IntersectionExampleScenario.node[792].nic.mac1609_4 	SlotsBackoff 	0
scalar IntersectionExampleScenario.node[792].nic.mac1609_4 	NumInternalContention 	0
scalar IntersectionExampleScenario.node[792].nic.mac1609_4 	totalBusyTime 	0
scalar IntersectionExampleScenario.node[792].veinsmobility 	startTime 	1782
scalar IntersectionExampleScenario.node[792].veinsmobility 	totalTime 	18
scalar IntersectionExampleScenario.node[792].veinsmobility 	stopTime 	1800
scalar IntersectionExampleScenario.node[792].veinsmobility 	minSpeed 	5.6500000953674
scalar IntersectionExampleScenario.node[792].veinsmobility 	maxSpeed 	16.27499961853
scalar IntersectionExampleScenario.node[792].veinsmobility 	totalDistance 	239.46802520752
scalar IntersectionExampleScenario.node[792].veinsmobility 	totalCO2Emission 	60.465598197285
scalar IntersectionExampleScenario.node[793].appl 	VehicleRemoved 	0
scalar IntersectionExampleScenario.node[793].appl 	ArrivedAtDest 	0
scalar IntersectionExampleScenario.node[793].appl 	IntersectionEnterTime 	1783.5
scalar IntersectionExampleScenario.node[793].appl 	IntersectionExitTime 	-1
scalar IntersectionExampleScenario.node[793].appl 	NumberOfCollisions 	0
scalar IntersectionExampleScenario.node[793].nic.phy80211p 	busyTime 	0
scalar IntersectionExampleScenario.node[793].nic.mac1609_4 	ReceivedUnicastPackets 	0
scalar IntersectionExampleScenario.node[793].nic.mac1609_4 	ReceivedBroadcasts 	0
scalar IntersectionExampleScenario.node[793].nic.mac1609_4 	SentPackets 	0
scalar IntersectionExampleScenario.node[793].nic.mac1609_4 	SNIRLostPackets 	0
scalar IntersectionExampleScenario.node[793].nic.mac1609_4 	RXTXLostPackets 	0
scalar IntersectionExampleScenario.node[793].nic.mac1609_4 	TotalLostPackets 	0
scalar IntersectionExampleScenario.node[793].nic.mac1609_4 	DroppedPacketsInMac 	0
scalar IntersectionExampleScenario.node[793].nic.mac1609_4 	TooLittleTime 	0
scalar IntersectionExampleScenario.node[793].nic.mac1609_4 	TimesIntoBackoff 	0
scalar IntersectionExampleScenario.node[793].nic.mac1609_4 	SlotsBackoff 	0
scalar IntersectionExampleScenario.node[793].nic.mac1609_4 	NumInternalContention 	0
scalar IntersectionExampleScenario.node[793].nic.mac1609_4 	totalBusyTime 	0
scalar IntersectionExampleScenario.node[793].veinsmobility 	startTime 	1783.5
scalar IntersectionExampleScenario.node[793].veinsmobility 	totalTime 	16.5
scalar IntersectionExampleScenario.node[793].veinsmobility 	stopTime 	1800
scalar IntersectionExampleScenario.node[793].veinsmobility 	minSpeed 	4.0097832679749
scalar IntersectionExampleScenario.node[793].veinsmobility 	maxSpeed 	15.02499961853
scalar IntersectionExampleScenario.node[793].veinsmobility 	totalDistance 	175.55392456055
scalar IntersectionExampleScenario.node[793].veinsmobility 	totalCO2Emission 	44.979499652552
scalar IntersectionExampleScenario.node[794].appl 	VehicleRemoved 	0
scalar IntersectionExampleScenario.node[794].appl 	ArrivedAtDest 	0
scalar IntersectionExampleScenario.node[794].appl 	IntersectionEnterTime 	1784
scalar IntersectionExampleScenario.node[794].appl 	IntersectionExitTime 	-1
scalar IntersectionExampleScenario.node[794].appl 	NumberOfCollisions 	0
scalar IntersectionExampleScenario.node[794].nic.phy80211p 	busyTime 	0
scalar IntersectionExampleScenario.node[794].nic.mac1609_4 	ReceivedUnicastPackets 	0
scalar IntersectionExampleScenario.node[794].nic.mac1609_4 	ReceivedBroadcasts 	0
scalar IntersectionExampleScenario.node[794].nic.mac1609_4 	SentPackets 	0
scalar IntersectionExampleScenario.node[794].nic.mac1609_4 	SNIRLostPackets 	0
scalar IntersectionExampleScenario.node[794].nic.mac1609_4 	RXTXLostPackets 	0
scalar IntersectionExampleScenario.node[794].nic.mac1609_4 	TotalLostPackets 	0
scalar IntersectionExampleScenario.node[794].nic.mac1609_4 	DroppedPacketsInMac 	0
scalar IntersectionExampleScenario.node[794].nic.mac1609_4 	TooLittleTime 	0
scalar IntersectionExampleScenario.node[794].nic.mac1609_4 	TimesIntoBackoff 	0
scalar IntersectionExampleScenario.node[794].nic.mac1609_4 	SlotsBackoff 	0
scalar IntersectionExampleScenario.node[794].nic.mac1609_4 	NumInternalContention 	0
scalar IntersectionExampleScenario.node[794].nic.mac1609_4 	totalBusyTime 	0
scalar IntersectionExampleScenario.node[794].veinsmobility 	startTime 	1784
scalar IntersectionExampleScenario.node[794].veinsmobility 	totalTime 	16
scalar IntersectionExampleScenario.node[794].veinsmobility 	stopTime 	1800
scalar IntersectionExampleScenario.node[794].veinsmobility 	minSpeed 	4.9081964492798
scalar IntersectionExampleScenario.node[794].veinsmobility 	maxSpeed 	9.4530267715454
scalar IntersectionExampleScenario.node[794].veinsmobility 	totalDistance 	114.79109191895
scalar IntersectionExampleScenario.node[794].veinsmobility 	totalCO2Emission 	31.809740002236
scalar IntersectionExampleScenario.node[795].appl 	VehicleRemoved 	0
scalar IntersectionExampleScenario.node[795].appl 	ArrivedAtDest 	0
scalar IntersectionExampleScenario.node[795].appl 	IntersectionEnterTime 	1784.5
scalar IntersectionExampleScenario.node[795].appl 	IntersectionExitTime 	-1
scalar IntersectionExampleScenario.node[795].appl 	NumberOfCollisions 	0
scalar IntersectionExampleScenario.node[795].nic.phy80211p 	busyTime 	0
scalar IntersectionExampleScenario.node[795].nic.mac1609_4 	ReceivedUnicastPackets 	0
scalar IntersectionExampleScenario.node[795].nic.mac1609_4 	ReceivedBroadcasts 	0
scalar IntersectionExampleScenario.node[795].nic.mac1609_4 	SentPackets 	0
scalar IntersectionExampleScenario.node[795].nic.mac1609_4 	SNIRLostPackets 	0
scalar IntersectionExampleScenario.node[795].nic.mac1609_4 	RXTXLostPackets 	0
scalar IntersectionExampleScenario.node[795].nic.mac1609_4 	TotalLostPackets 	0
scalar IntersectionExampleScenario.node[795].nic.mac1609_4 	DroppedPacketsInMac 	0
scalar IntersectionExampleScenario.node[795].nic.mac1609_4 	TooLittleTime 	0
scalar IntersectionExampleScenario.node[795].nic.mac1609_4 	TimesIntoBackoff 	0
scalar IntersectionExampleScenario.node[795].nic.mac1609_4 	SlotsBackoff 	0
scalar IntersectionExampleScenario.node[795].nic.mac1609_4 	NumInternalContention 	0
scalar IntersectionExampleScenario.node[795].nic.mac1609_4 	totalBusyTime 	0
scalar IntersectionExampleScenario.node[795].veinsmobility 	startTime 	1784.5
scalar IntersectionExampleScenario.node[795].veinsmobility 	totalTime 	15.5
scalar IntersectionExampleScenario.node[795].veinsmobility 	stopTime 	1800
scalar IntersectionExampleScenario.node[795].veinsmobility 	minSpeed 	5.6500000953674
scalar IntersectionExampleScenario.node[795].veinsmobility 	maxSpeed 	14.91707611084
scalar IntersectionExampleScenario.node[795].veinsmobility 	totalDistance 	190.12919616699
scalar IntersectionExampleScenario.node[795].veinsmobility 	totalCO2Emission 	51.65380075748
scalar IntersectionExampleScenario.node[796].appl 	VehicleRemoved 	0
scalar IntersectionExampleScenario.node[796].appl 	ArrivedAtDest 	0
scalar IntersectionExampleScenario.node[796].appl 	IntersectionEnterTime 	1785
scalar IntersectionExampleScenario.node[796].appl 	IntersectionExitTime 	-1
scalar IntersectionExampleScenario.node[796].appl 	NumberOfCollisions 	0
scalar IntersectionExampleScenario.node[796].nic.phy80211p 	busyTime 	0
scalar IntersectionExampleScenario.node[796].nic.mac1609_4 	ReceivedUnicastPackets 	0
scalar IntersectionExampleScenario.node[796].nic.mac1609_4 	ReceivedBroadcasts 	0
scalar IntersectionExampleScenario.node[796].nic.mac1609_4 	SentPackets 	0
scalar IntersectionExampleScenario.node[796].nic.mac1609_4 	SNIRLostPackets 	0
scalar IntersectionExampleScenario.node[796].nic.mac1609_4 	RXTXLostPackets 	0
scalar IntersectionExampleScenario.node[796].nic.mac1609_4 	TotalLostPackets 	0
scalar IntersectionExampleScenario.node[796].nic.mac1609_4 	DroppedPacketsInMac 	0
scalar IntersectionExampleScenario.node[796].nic.mac1609_4 	TooLittleTime 	0
scalar IntersectionExampleScenario.node[796].nic.mac1609_4 	TimesIntoBackoff 	0
scalar IntersectionExampleScenario.node[796].nic.mac1609_4 	SlotsBackoff 	0
scalar IntersectionExampleScenario.node[796].nic.mac1609_4 	NumInternalContention 	0
scalar IntersectionExampleScenario.node[796].nic.mac1609_4 	totalBusyTime 	0
scalar IntersectionExampleScenario.node[796].veinsmobility 	startTime 	1785
scalar IntersectionExampleScenario.node[796].veinsmobility 	totalTime 	15
scalar IntersectionExampleScenario.node[796].veinsmobility 	stopTime 	1800
scalar IntersectionExampleScenario.node[796].veinsmobility 	minSpeed 	3.7666816711426
scalar IntersectionExampleScenario.node[796].veinsmobility 	maxSpeed 	9.0179834365845
scalar IntersectionExampleScenario.node[796].veinsmobility 	totalDistance 	91.444816589355
scalar IntersectionExampleScenario.node[796].veinsmobility 	totalCO2Emission 	28.536374361067
scalar IntersectionExampleScenario.node[797].appl 	VehicleRemoved 	0
scalar IntersectionExampleScenario.node[797].appl 	ArrivedAtDest 	0
scalar IntersectionExampleScenario.node[797].appl 	IntersectionEnterTime 	1785.5
scalar IntersectionExampleScenario.node[797].appl 	IntersectionExitTime 	-1
scalar IntersectionExampleScenario.node[797].appl 	NumberOfCollisions 	0
scalar IntersectionExampleScenario.node[797].nic.phy80211p 	busyTime 	0
scalar IntersectionExampleScenario.node[797].nic.mac1609_4 	ReceivedUnicastPackets 	0
scalar IntersectionExampleScenario.node[797].nic.mac1609_4 	ReceivedBroadcasts 	0
scalar IntersectionExampleScenario.node[797].nic.mac1609_4 	SentPackets 	0
scalar IntersectionExampleScenario.node[797].nic.mac1609_4 	SNIRLostPackets 	0
scalar IntersectionExampleScenario.node[797].nic.mac1609_4 	RXTXLostPackets 	0
scalar IntersectionExampleScenario.node[797].nic.mac1609_4 	TotalLostPackets 	0
scalar IntersectionExampleScenario.node[797].nic.mac1609_4 	DroppedPacketsInMac 	0
scalar IntersectionExampleScenario.node[797].nic.mac1609_4 	TooLittleTime 	0
scalar IntersectionExampleScenario.node[797].nic.mac1609_4 	TimesIntoBackoff 	0
scalar IntersectionExampleScenario.node[797].nic.mac1609_4 	SlotsBackoff 	0
scalar IntersectionExampleScenario.node[797].nic.mac1609_4 	NumInternalContention 	0
scalar IntersectionExampleScenario.node[797].nic.mac1609_4 	totalBusyTime 	0
scalar IntersectionExampleScenario.node[797].veinsmobility 	startTime 	1785.5
scalar IntersectionExampleScenario.node[797].veinsmobility 	totalTime 	14.5
scalar IntersectionExampleScenario.node[797].veinsmobility 	stopTime 	1800
scalar IntersectionExampleScenario.node[797].veinsmobility 	minSpeed 	5.6500000953674
scalar IntersectionExampleScenario.node[797].veinsmobility 	maxSpeed 	15.64999961853
scalar IntersectionExampleScenario.node[797].veinsmobility 	totalDistance 	199.07691955566
scalar IntersectionExampleScenario.node[797].veinsmobility 	totalCO2Emission 	53.901440414789
scalar IntersectionExampleScenario.node[798].appl 	VehicleRemoved 	0
scalar IntersectionExampleScenario.node[798].appl 	ArrivedAtDest 	0
scalar IntersectionExampleScenario.node[798].appl 	IntersectionEnterTime 	1791.25
scalar IntersectionExampleScenario.node[798].appl 	IntersectionExitTime 	-1
scalar IntersectionExampleScenario.node[798].appl 	NumberOfCollisions 	0
scalar IntersectionExampleScenario.node[798].nic.phy80211p 	busyTime 	0
scalar IntersectionExampleScenario.node[798].nic.mac1609_4 	ReceivedUnicastPackets 	0
scalar IntersectionExampleScenario.node[798].nic.mac1609_4 	ReceivedBroadcasts 	0
scalar IntersectionExampleScenario.node[798].nic.mac1609_4 	SentPackets 	0
scalar IntersectionExampleScenario.node[798].nic.mac1609_4 	SNIRLostPackets 	0
scalar IntersectionExampleScenario.node[798].nic.mac1609_4 	RXTXLostPackets 	0
scalar IntersectionExampleScenario.node[798].nic.mac1609_4 	TotalLostPackets 	0
scalar IntersectionExampleScenario.node[798].nic.mac1609_4 	DroppedPacketsInMac 	0
scalar IntersectionExampleScenario.node[798].nic.mac1609_4 	TooLittleTime 	0
scalar IntersectionExampleScenario.node[798].nic.mac1609_4 	TimesIntoBackoff 	0
scalar IntersectionExampleScenario.node[798].nic.mac1609_4 	SlotsBackoff 	0
scalar IntersectionExampleScenario.node[798].nic.mac1609_4 	NumInternalContention 	0
scalar IntersectionExampleScenario.node[798].nic.mac1609_4 	totalBusyTime 	0
scalar IntersectionExampleScenario.node[798].veinsmobility 	startTime 	1791.25
scalar IntersectionExampleScenario.node[798].veinsmobility 	totalTime 	8.75
scalar IntersectionExampleScenario.node[798].veinsmobility 	stopTime 	1800
scalar IntersectionExampleScenario.node[798].veinsmobility 	minSpeed 	5.6500000953674
scalar IntersectionExampleScenario.node[798].veinsmobility 	maxSpeed 	15.02499961853
scalar IntersectionExampleScenario.node[798].veinsmobility 	totalDistance 	110.96076202393
scalar IntersectionExampleScenario.node[798].veinsmobility 	totalCO2Emission 	40.333787136171
scalar IntersectionExampleScenario.node[799].appl 	VehicleRemoved 	0
scalar IntersectionExampleScenario.node[799].appl 	ArrivedAtDest 	0
scalar IntersectionExampleScenario.node[799].appl 	IntersectionEnterTime 	1794
scalar IntersectionExampleScenario.node[799].appl 	IntersectionExitTime 	-1
scalar IntersectionExampleScenario.node[799].appl 	NumberOfCollisions 	0
scalar IntersectionExampleScenario.node[799].nic.phy80211p 	busyTime 	0
scalar IntersectionExampleScenario.node[799].nic.mac1609_4 	ReceivedUnicastPackets 	0
scalar IntersectionExampleScenario.node[799].nic.mac1609_4 	ReceivedBroadcasts 	0
scalar IntersectionExampleScenario.node[799].nic.mac1609_4 	SentPackets 	0
scalar IntersectionExampleScenario.node[799].nic.mac1609_4 	SNIRLostPackets 	0
scalar IntersectionExampleScenario.node[799].nic.mac1609_4 	RXTXLostPackets 	0
scalar IntersectionExampleScenario.node[799].nic.mac1609_4 	TotalLostPackets 	0
scalar IntersectionExampleScenario.node[799].nic.mac1609_4 	DroppedPacketsInMac 	0
scalar IntersectionExampleScenario.node[799].nic.mac1609_4 	TooLittleTime 	0
scalar IntersectionExampleScenario.node[799].nic.mac1609_4 	TimesIntoBackoff 	0
scalar IntersectionExampleScenario.node[799].nic.mac1609_4 	SlotsBackoff 	0
scalar IntersectionExampleScenario.node[799].nic.mac1609_4 	NumInternalContention 	0
scalar IntersectionExampleScenario.node[799].nic.mac1609_4 	totalBusyTime 	0
scalar IntersectionExampleScenario.node[799].veinsmobility 	startTime 	1794
scalar IntersectionExampleScenario.node[799].veinsmobility 	totalTime 	6
scalar IntersectionExampleScenario.node[799].veinsmobility 	stopTime 	1800
scalar IntersectionExampleScenario.node[799].veinsmobility 	minSpeed 	5.6500000953674
scalar IntersectionExampleScenario.node[799].veinsmobility 	maxSpeed 	16.27499961853
scalar IntersectionExampleScenario.node[799].veinsmobility 	totalDistance 	72.114318847656
scalar IntersectionExampleScenario.node[799].veinsmobility 	totalCO2Emission 	38.863265324291
scalar IntersectionExampleScenario.node[800].appl 	VehicleRemoved 	0
scalar IntersectionExampleScenario.node[800].appl 	ArrivedAtDest 	0
scalar IntersectionExampleScenario.node[800].appl 	IntersectionEnterTime 	1797.5
scalar IntersectionExampleScenario.node[800].appl 	IntersectionExitTime 	-1
scalar IntersectionExampleScenario.node[800].appl 	NumberOfCollisions 	0
scalar IntersectionExampleScenario.node[800].nic.phy80211p 	busyTime 	0
scalar IntersectionExampleScenario.node[800].nic.mac1609_4 	ReceivedUnicastPackets 	0
scalar IntersectionExampleScenario.node[800].nic.mac1609_4 	ReceivedBroadcasts 	0
scalar IntersectionExampleScenario.node[800].nic.mac1609_4 	SentPackets 	0
scalar IntersectionExampleScenario.node[800].nic.mac1609_4 	SNIRLostPackets 	0
scalar IntersectionExampleScenario.node[800].nic.mac1609_4 	RXTXLostPackets 	0
scalar IntersectionExampleScenario.node[800].nic.mac1609_4 	TotalLostPackets 	0
scalar IntersectionExampleScenario.node[800].nic.mac1609_4 	DroppedPacketsInMac 	0
scalar IntersectionExampleScenario.node[800].nic.mac1609_4 	TooLittleTime 	0
scalar IntersectionExampleScenario.node[800].nic.mac1609_4 	TimesIntoBackoff 	0
scalar IntersectionExampleScenario.node[800].nic.mac1609_4 	SlotsBackoff 	0
scalar IntersectionExampleScenario.node[800].nic.mac1609_4 	NumInternalContention 	0
scalar IntersectionExampleScenario.node[800].nic.mac1609_4 	totalBusyTime 	0
scalar IntersectionExampleScenario.node[800].veinsmobility 	startTime 	1797.5
scalar IntersectionExampleScenario.node[800].veinsmobility 	totalTime 	2.5
scalar IntersectionExampleScenario.node[800].veinsmobility 	stopTime 	1800
scalar IntersectionExampleScenario.node[800].veinsmobility 	minSpeed 	5.6500000953674
scalar IntersectionExampleScenario.node[800].veinsmobility 	maxSpeed 	11.27499961853
scalar IntersectionExampleScenario.node[800].veinsmobility 	totalDistance 	20.375
scalar IntersectionExampleScenario.node[800].veinsmobility 	totalCO2Emission 	15.500237724595
scalar IntersectionExampleScenario.node[801].appl 	VehicleRemoved 	0
scalar IntersectionExampleScenario.node[801].appl 	ArrivedAtDest 	0
scalar IntersectionExampleScenario.node[801].appl 	IntersectionEnterTime 	1798.5
scalar IntersectionExampleScenario.node[801].appl 	IntersectionExitTime 	-1
scalar IntersectionExampleScenario.node[801].appl 	NumberOfCollisions 	0
scalar IntersectionExampleScenario.node[801].nic.phy80211p 	busyTime 	0
scalar IntersectionExampleScenario.node[801].nic.mac1609_4 	ReceivedUnicastPackets 	0
scalar IntersectionExampleScenario.node[801].nic.mac1609_4 	ReceivedBroadcasts 	0
scalar IntersectionExampleScenario.node[801].nic.mac1609_4 	SentPackets 	0
scalar IntersectionExampleScenario.node[801].nic.mac1609_4 	SNIRLostPackets 	0
scalar IntersectionExampleScenario.node[801].nic.mac1609_4 	RXTXLostPackets 	0
scalar IntersectionExampleScenario.node[801].nic.mac1609_4 	TotalLostPackets 	0
scalar IntersectionExampleScenario.node[801].nic.mac1609_4 	DroppedPacketsInMac 	0
scalar IntersectionExampleScenario.node[801].nic.mac1609_4 	TooLittleTime 	0
scalar IntersectionExampleScenario.node[801].nic.mac1609_4 	TimesIntoBackoff 	0
scalar IntersectionExampleScenario.node[801].nic.mac1609_4 	SlotsBackoff 	0
scalar IntersectionExampleScenario.node[801].nic.mac1609_4 	NumInternalContention 	0
scalar IntersectionExampleScenario.node[801].nic.mac1609_4 	totalBusyTime 	0
scalar IntersectionExampleScenario.node[801].veinsmobility 	startTime 	1798.5
scalar IntersectionExampleScenario.node[801].veinsmobility 	totalTime 	1.5
scalar IntersectionExampleScenario.node[801].veinsmobility 	stopTime 	1800
scalar IntersectionExampleScenario.node[801].veinsmobility 	minSpeed 	5.6500000953674
scalar IntersectionExampleScenario.node[801].veinsmobility 	maxSpeed 	8.7749996185303
scalar IntersectionExampleScenario.node[801].veinsmobility 	totalDistance 	10.349990844727
scalar IntersectionExampleScenario.node[801].veinsmobility 	totalCO2Emission 	7.5597628883124
