version 2
run nodebug-24-20200606-15:18:13-18812
attr configname nodebug
attr datetime 20200606-15:18:13
attr experiment nodebug
attr inifile omnetpp.ini
attr iterationvars ""
attr iterationvars2 $repetition=24
attr measurement ""
attr network "\"org.car2x.veins.modules.application.ExtTraCIScenarioManagerLaunchd.IntersectionExampleScenario\""
attr processid 18812
attr repetition 24
attr replication #24
attr resultdir results
attr runnumber 24
attr seedset 24
param **.coreDebug false
param **.debug false
param *.**.nic.mac1609_4.bitrate 18Mbps
param *.**.nic.mac1609_4.txPower 20mW
param *.**.nic.mac1609_4.useServiceChannel false
param *.**.nic.phy80211p.analogueModels "xmldoc(\"config.xml\")"
param *.**.nic.phy80211p.decider "xmldoc(\"config.xml\")"
param *.**.nic.phy80211p.sensitivity -89dBm
param *.**.nic.phy80211p.thermalNoise -110dBm
param *.**.nic.phy80211p.usePropagationDelay true
param *.**.nic.phy80211p.useThermalNoise true
param *.annotations.draw false
param *.connectionManager.alpha 2.0
param *.connectionManager.carrierFrequency "5.890e9 Hz"
param *.connectionManager.pMax 20mW
param *.connectionManager.sat -89dBm
param *.connectionManager.sendDirect true
param *.manager.autoShutdown true
param *.manager.host "\"localhost\""
param *.manager.launchConfig "xmldoc(\"paramics.launchd.xml\")"
param *.manager.margin 25
param *.manager.moduleDisplayString "\"\""
param *.manager.moduleName "\"node\""
param *.manager.moduleType "\"org.car2x.veins.nodes.Car\""
param *.manager.port 9999
param *.manager.updateInterval 250ms
param *.node[*0].veinsmobility.accidentCount 0
param *.node[*0].veinsmobility.accidentDuration 30s
param *.node[*0].veinsmobility.accidentStart 75s
param *.node[*].appl.LiderSelectZoneRadio 55.0
param *.node[*].appl.ShareDataZoneRadio 110.0
param *.node[*].appl.TiempoSemaforo 30.0
param *.node[*].appl.beaconInterval 1s
param *.node[*].appl.beaconPriority 3
param *.node[*].appl.dataOnSch false
param *.node[*].appl.dataPriority 2
param *.node[*].appl.debug false
param *.node[*].appl.headerLength "256 bit"
param *.node[*].appl.maxOffset 0.005s
param *.node[*].appl.sendBeacons false
param *.node[*].appl.sendData true
param *.node[*].applType "\"Dummy\""
param *.node[*].mobilityType "\"TraCIMobility\""
param *.node[*].mobilityType.debug true
param *.node[*].veinsmobility.x 0
param *.node[*].veinsmobility.y 0
param *.node[*].veinsmobility.z 1.895
param *.node[*].veinsmobilityType "\"org.car2x.veins.modules.mobility.traci.TraCIMobility\""
param *.node[*].veinsmobilityType.debug true
param *.playgroundSizeX 8500m
param *.playgroundSizeY 8500m
param *.playgroundSizeZ 50m
param *.world.use2D false
param *.world.useTorus false

vector 42475  IntersectionExampleScenario.manager  vehiclesinsim  ETV
attr type  int
vector 42476  IntersectionExampleScenario.manager  realtime  ETV
attr type  int
attr unit  s
vector 42479  IntersectionExampleScenario.node[0].veinsmobility  posx  ETV
vector 42480  IntersectionExampleScenario.node[0].veinsmobility  posy  ETV
vector 42481  IntersectionExampleScenario.node[0].veinsmobility  speed  ETV
vector 42482  IntersectionExampleScenario.node[0].veinsmobility  acceleration  ETV
vector 42483  IntersectionExampleScenario.node[0].veinsmobility  co2emission  ETV
vector 42486  IntersectionExampleScenario.node[1].veinsmobility  posx  ETV
vector 42487  IntersectionExampleScenario.node[1].veinsmobility  posy  ETV
vector 42488  IntersectionExampleScenario.node[1].veinsmobility  speed  ETV
vector 42489  IntersectionExampleScenario.node[1].veinsmobility  acceleration  ETV
vector 42490  IntersectionExampleScenario.node[1].veinsmobility  co2emission  ETV
vector 42493  IntersectionExampleScenario.node[2].veinsmobility  posx  ETV
vector 42494  IntersectionExampleScenario.node[2].veinsmobility  posy  ETV
vector 42495  IntersectionExampleScenario.node[2].veinsmobility  speed  ETV
vector 42496  IntersectionExampleScenario.node[2].veinsmobility  acceleration  ETV
vector 42497  IntersectionExampleScenario.node[2].veinsmobility  co2emission  ETV
vector 42500  IntersectionExampleScenario.node[3].veinsmobility  posx  ETV
vector 42501  IntersectionExampleScenario.node[3].veinsmobility  posy  ETV
vector 42502  IntersectionExampleScenario.node[3].veinsmobility  speed  ETV
vector 42503  IntersectionExampleScenario.node[3].veinsmobility  acceleration  ETV
vector 42504  IntersectionExampleScenario.node[3].veinsmobility  co2emission  ETV
vector 42507  IntersectionExampleScenario.node[4].veinsmobility  posx  ETV
vector 42508  IntersectionExampleScenario.node[4].veinsmobility  posy  ETV
vector 42509  IntersectionExampleScenario.node[4].veinsmobility  speed  ETV
vector 42510  IntersectionExampleScenario.node[4].veinsmobility  acceleration  ETV
vector 42511  IntersectionExampleScenario.node[4].veinsmobility  co2emission  ETV
vector 42514  IntersectionExampleScenario.node[5].veinsmobility  posx  ETV
vector 42515  IntersectionExampleScenario.node[5].veinsmobility  posy  ETV
vector 42516  IntersectionExampleScenario.node[5].veinsmobility  speed  ETV
vector 42517  IntersectionExampleScenario.node[5].veinsmobility  acceleration  ETV
vector 42518  IntersectionExampleScenario.node[5].veinsmobility  co2emission  ETV
vector 42521  IntersectionExampleScenario.node[6].veinsmobility  posx  ETV
vector 42522  IntersectionExampleScenario.node[6].veinsmobility  posy  ETV
vector 42528  IntersectionExampleScenario.node[7].veinsmobility  posx  ETV
vector 42529  IntersectionExampleScenario.node[7].veinsmobility  posy  ETV
vector 42523  IntersectionExampleScenario.node[6].veinsmobility  speed  ETV
vector 42524  IntersectionExampleScenario.node[6].veinsmobility  acceleration  ETV
vector 42525  IntersectionExampleScenario.node[6].veinsmobility  co2emission  ETV
vector 42530  IntersectionExampleScenario.node[7].veinsmobility  speed  ETV
vector 42531  IntersectionExampleScenario.node[7].veinsmobility  acceleration  ETV
vector 42532  IntersectionExampleScenario.node[7].veinsmobility  co2emission  ETV
vector 42535  IntersectionExampleScenario.node[8].veinsmobility  posx  ETV
vector 42536  IntersectionExampleScenario.node[8].veinsmobility  posy  ETV
vector 42537  IntersectionExampleScenario.node[8].veinsmobility  speed  ETV
vector 42538  IntersectionExampleScenario.node[8].veinsmobility  acceleration  ETV
vector 42539  IntersectionExampleScenario.node[8].veinsmobility  co2emission  ETV
vector 42542  IntersectionExampleScenario.node[9].veinsmobility  posx  ETV
vector 42543  IntersectionExampleScenario.node[9].veinsmobility  posy  ETV
vector 42549  IntersectionExampleScenario.node[10].veinsmobility  posx  ETV
vector 42550  IntersectionExampleScenario.node[10].veinsmobility  posy  ETV
vector 42544  IntersectionExampleScenario.node[9].veinsmobility  speed  ETV
vector 42545  IntersectionExampleScenario.node[9].veinsmobility  acceleration  ETV
vector 42546  IntersectionExampleScenario.node[9].veinsmobility  co2emission  ETV
vector 42551  IntersectionExampleScenario.node[10].veinsmobility  speed  ETV
vector 42552  IntersectionExampleScenario.node[10].veinsmobility  acceleration  ETV
vector 42553  IntersectionExampleScenario.node[10].veinsmobility  co2emission  ETV
vector 42556  IntersectionExampleScenario.node[11].veinsmobility  posx  ETV
vector 42557  IntersectionExampleScenario.node[11].veinsmobility  posy  ETV
vector 42558  IntersectionExampleScenario.node[11].veinsmobility  speed  ETV
vector 42559  IntersectionExampleScenario.node[11].veinsmobility  acceleration  ETV
vector 42560  IntersectionExampleScenario.node[11].veinsmobility  co2emission  ETV
vector 42563  IntersectionExampleScenario.node[12].veinsmobility  posx  ETV
vector 42564  IntersectionExampleScenario.node[12].veinsmobility  posy  ETV
vector 42565  IntersectionExampleScenario.node[12].veinsmobility  speed  ETV
vector 42566  IntersectionExampleScenario.node[12].veinsmobility  acceleration  ETV
vector 42567  IntersectionExampleScenario.node[12].veinsmobility  co2emission  ETV
vector 42570  IntersectionExampleScenario.node[13].veinsmobility  posx  ETV
vector 42571  IntersectionExampleScenario.node[13].veinsmobility  posy  ETV
vector 42572  IntersectionExampleScenario.node[13].veinsmobility  speed  ETV
vector 42573  IntersectionExampleScenario.node[13].veinsmobility  acceleration  ETV
vector 42574  IntersectionExampleScenario.node[13].veinsmobility  co2emission  ETV
vector 42577  IntersectionExampleScenario.node[14].veinsmobility  posx  ETV
vector 42578  IntersectionExampleScenario.node[14].veinsmobility  posy  ETV
vector 42579  IntersectionExampleScenario.node[14].veinsmobility  speed  ETV
vector 42580  IntersectionExampleScenario.node[14].veinsmobility  acceleration  ETV
vector 42581  IntersectionExampleScenario.node[14].veinsmobility  co2emission  ETV
vector 42584  IntersectionExampleScenario.node[15].veinsmobility  posx  ETV
vector 42585  IntersectionExampleScenario.node[15].veinsmobility  posy  ETV
vector 42586  IntersectionExampleScenario.node[15].veinsmobility  speed  ETV
vector 42587  IntersectionExampleScenario.node[15].veinsmobility  acceleration  ETV
vector 42588  IntersectionExampleScenario.node[15].veinsmobility  co2emission  ETV
vector 42591  IntersectionExampleScenario.node[16].veinsmobility  posx  ETV
vector 42592  IntersectionExampleScenario.node[16].veinsmobility  posy  ETV
vector 42598  IntersectionExampleScenario.node[17].veinsmobility  posx  ETV
vector 42599  IntersectionExampleScenario.node[17].veinsmobility  posy  ETV
vector 42593  IntersectionExampleScenario.node[16].veinsmobility  speed  ETV
vector 42600  IntersectionExampleScenario.node[17].veinsmobility  speed  ETV
vector 42594  IntersectionExampleScenario.node[16].veinsmobility  acceleration  ETV
vector 42595  IntersectionExampleScenario.node[16].veinsmobility  co2emission  ETV
vector 42601  IntersectionExampleScenario.node[17].veinsmobility  acceleration  ETV
vector 42602  IntersectionExampleScenario.node[17].veinsmobility  co2emission  ETV
42483	34	7.25	5.2162187258585
42483	37	7.5	5.6304533568076
42483	40	7.75	6.0461819274774
42483	45	8	6.4635356930995
42483	50	8.25	6.8826618500064
42483	55	8.5	7.303684162087
42483	60	8.75	7.726741696285
42483	65	9	8.1519697732254
42483	70	9.25	8.5795037135332
42483	75	9.5	9.0094788378334
42483	80	9.75	9.442030466751
42483	85	10	9.8772939209111
42483	90	10.25	10.315404520939
42483	95	10.5	10.756497587458
42483	100	10.75	11.200708441096
42483	105	11	11.648172402475
42483	110	11.25	0.973
42483	115	11.5	0.973
42483	120	11.75	1.0274094733648
42483	127	12	1.3131822410256
42483	134	12.25	1.5260667538014
42483	141	12.5	1.6849357215896
42483	148	12.75	1.8036241422944
42483	155	13	1.892378725623
42483	162	13.25	1.9588153520497
42483	169	13.5	2.0085622446049
42483	176	13.75	2.0458271010991
42483	185	14	2.07375026684
42483	194	14.25	2.094664318448
42483	203	14.5	2.1103487158934
42483	214	14.75	2.1221144494241
42483	225	15	2.1309432210703
42483	236	15.25	2.1375424437004
42483	247	15.5	2.1425119718016
42483	258	15.75	2.1462177460603
42483	269	16	2.1490142386321
42483	280	16.25	2.151104518604
42483	291	16.5	2.1526651495817
42483	302	16.75	2.1538460216191
42483	313	17	2.1547281774664
42483	324	17.25	2.1553932789651
42483	335	17.5	2.1558816265452
42483	346	17.75	2.1562618255241
42483	359	18	2.1565330294045
42483	372	18.25	2.156750373618
42483	385	18.5	2.156899438256
42483	398	18.75	2.1570216800085
42483	411	19	2.1571168865883
42483	424	19.25	2.1571708497798
42483	437	19.5	2.1572252381579
42483	450	19.75	2.1572660559727
42483	463	20	2.1572931969416
42483	476	20.25	2.1573065547629
42483	489	20.5	2.1573340146854
42483	504	20.75	2.1573336956973
42483	521	21	2.1573473724869
42483	538	21.25	2.1573611556041
42483	555	21.5	2.157361049273
42483	572	21.75	2.1573609429419
42483	589	22	2.1573608366108
42483	606	22.25	2.1573607302798
42483	623	22.5	2.1573746197237
42483	640	22.75	2.1573746197237
42483	657	23	2.1573746197237
42483	674	23.25	2.1573746197237
42483	693	23.5	2.1573746197237
42483	712	23.75	2.1573746197237
42483	731	24	2.1573746197237
42483	750	24.25	2.1573746197237
42483	769	24.5	2.1573746197237
42483	788	24.75	2.1573746197237
42483	807	25	2.1573746197237
42483	828	25.25	0.973
42483	851	25.5	0.973
42483	874	25.75	0.973
42483	897	26	0.973
42483	920	26.25	0.973
42483	945	26.5	0.973
42483	970	26.75	0.973
42483	995	27	0.973
42483	1020	27.25	0.973
42483	1045	27.5	0.973
42483	1070	27.75	0.973
42483	1095	28	0.973
42483	1120	28.25	1.47936595584
42483	1145	28.5	1.47936595584
42483	1170	28.75	1.47936595584
42483	1195	29	1.47936595584
42483	1220	29.25	1.47936595584
42483	1245	29.5	1.47936595584
42483	1270	29.75	1.47936595584
42483	1295	30	1.47936595584
42483	1320	30.25	1.47936595584
42483	1344	30.5	3.24219357038
42483	1367	30.75	5.26236092522
42483	1390	31	6.6142134161825
42483	1413	31.25	7.03400420352
42483	1436	31.5	7.4557436078575
42483	1459	31.75	7.87956694982
42483	1484	32	8.3056095500325
42483	1509	32.25	8.73400672912
42483	1534	32.5	9.1648938077075
42483	1558	32.75	9.59840610642
42483	1581	33	10.034678945883
42483	1604	33.25	10.47384764672
42483	1627	33.5	10.916047529558
42483	1650	33.75	11.36141391502
42483	1675	34	1.6487137377113
42483	1700	34.25	1.7765601237061
42483	1725	34.5	1.8721394662665
42483	1750	34.75	1.9436650563038
42483	1775	35	1.9972089338959
42483	1800	35.25	2.0373178269093
42483	1825	35.5	2.0673699663964
42483	1849	35.75	2.0898924601389
42483	1872	36	2.1067749867901
42483	1895	36.25	2.119424625586
42483	1918	36.5	2.1289193467134
42483	1941	36.75	2.13603525018
42483	1964	37	2.1413712422397
42483	1987	37.25	2.1453762093787
42483	2010	37.5	2.1483761657532
42483	2033	37.75	2.1506294657863
42483	2056	38	2.1523123753921
42483	2079	38.25	2.1535744785447
42483	2102	38.5	2.1545244988345
42483	2126	38.75	2.1552439953835
42483	2149	39	2.1557731644702
42483	2172	39.25	2.1561665105122
42483	2197	39.5	2.156478958841
42483	2222	39.75	2.1566958782502
42483	2247	40	2.1568725095901
42483	2272	40.25	2.1569945388336
42483	2297	40.5	2.1570895328547
42483	2322	40.75	2.157157279253
42483	2347	41	2.1572115613293
42483	2371	41.25	2.157252272832
42483	2394	41.5	2.1572793074819
42483	2417	41.75	2.1573065547629
42483	2440	42	2.1573340146854
42483	2463	42.25	2.1573336956973
42483	2486	42.5	2.1573473724869
42483	2509	42.75	2.1573611556041
42483	2532	43	2.157361049273
42483	2555	43.25	2.1573609429419
42483	2578	43.5	2.1573608366108
42483	2601	43.75	2.1573607302798
42483	2624	44	2.1573746197237
42483	2647	44.25	2.1573746197237
42483	2669	44.5	2.1573746197237
42483	2690	44.75	2.1573746197237
42483	2711	45	2.1573746197237
42483	2732	45.25	2.1573746197237
42483	2757	45.5	2.1573746197237
42483	2782	45.75	2.1573746197237
42483	2807	46	2.1573746197237
42483	2832	46.25	2.1573746197237
42483	2857	46.5	2.1573746197237
42483	2882	46.75	2.1573746197237
42483	2907	47	2.1573746197237
42483	2932	47.25	2.1573746197237
42482	34	7.25	2.5
42482	37	7.5	2.5
42482	40	7.75	2.5
42482	45	8	2.4999980926514
42482	50	8.25	2.5
42482	55	8.5	2.5
42482	60	8.75	2.5
42482	65	9	2.5
42482	70	9.25	2.5
42482	75	9.5	2.5
42482	80	9.75	2.5
42482	85	10	2.5
42482	90	10.25	2.5
42482	95	10.5	2.5
42482	100	10.75	2.5
42482	105	11	2.5
42482	110	11.25	-0.5
42482	115	11.5	-0.41697311401367
42482	120	11.75	-0.3127326965332
42482	127	12	-0.23454666137695
42482	134	12.25	-0.17591094970703
42482	141	12.5	-0.13193130493164
42482	148	12.75	-0.098949432373047
42482	155	13	-0.074214935302734
42482	162	13.25	-0.055660247802734
42482	169	13.5	-0.041744232177734
42482	176	13.75	-0.031307220458984
42482	185	14	-0.023479461669922
42482	194	14.25	-0.017612457275391
42482	203	14.5	-0.013210296630859
42482	214	14.75	-0.0099067687988281
42482	225	15	-0.0074272155761719
42482	236	15.25	-0.0055732727050781
42482	247	15.5	-0.0041770935058594
42482	258	15.75	-0.0031356811523438
42482	269	16	-0.002349853515625
42482	280	16.25	-0.0017623901367188
42482	291	16.5	-0.0013236999511719
42482	302	16.75	-0.0009918212890625
42482	313	17	-0.00074386596679688
42482	324	17.25	-0.00055694580078125
42482	335	17.5	-0.00041961669921875
42482	346	17.75	-0.00031280517578125
42482	359	18	-0.00023651123046875
42482	372	18.25	-0.00017547607421875
42482	385	18.5	-0.00013351440429688
42482	398	18.75	-9.918212890625e-005
42482	411	19	-7.2479248046875e-005
42482	424	19.25	-5.7220458984375e-005
42482	437	19.5	-4.1961669921875e-005
42482	450	19.75	-3.0517578125e-005
42482	463	20	-2.288818359375e-005
42482	476	20.25	-1.9073486328125e-005
42482	489	20.5	-1.1444091796875e-005
42482	504	20.75	-1.1444091796875e-005
42482	521	21	-7.62939453125e-006
42482	538	21.25	-3.814697265625e-006
42482	555	21.5	-3.814697265625e-006
42482	572	21.75	-3.814697265625e-006
42482	589	22	-3.814697265625e-006
42482	606	22.25	-3.814697265625e-006
42482	623	22.5	0
42482	640	22.75	0
42482	657	23	0
42482	674	23.25	0
42482	693	23.5	0
42482	712	23.75	0
42482	731	24	0
42482	750	24.25	0
42482	769	24.5	0
42482	788	24.75	0
42482	807	25	0
42482	828	25.25	-2.5940437316895
42482	851	25.5	-2.6294403076172
42482	874	25.75	-2.6679229736328
42482	897	26	-2.7101860046387
42482	920	26.25	-2.7571792602539
42482	945	26.5	-2.8103065490723
42482	970	26.75	-2.8717384338379
42482	995	27	-2.9451179504395
42482	1020	27.25	-3.0373268127441
42482	1045	27.5	-3.1640396118164
42482	1070	27.75	-3.3766937255859
42482	1095	28	-0.86811065673828
42482	1120	28.25	0
42482	1145	28.5	0
42482	1170	28.75	0
42482	1195	29	0
42482	1220	29.25	0
42482	1245	29.5	0
42482	1270	29.75	0
42482	1295	30	0
42482	1320	30.25	0
42482	1344	30.5	1
42482	1367	30.75	2
42482	1390	31	2.5
42482	1413	31.25	2.5
42482	1436	31.5	2.5
42482	1459	31.75	2.5
42482	1484	32	2.5
42482	1509	32.25	2.5
42482	1534	32.5	2.5
42482	1558	32.75	2.5
42482	1581	33	2.5
42482	1604	33.25	2.5
42482	1627	33.5	2.5
42482	1650	33.75	2.5
42482	1675	34	-0.14197540283203
42482	1700	34.25	-0.10647964477539
42482	1725	34.5	-0.079860687255859
42482	1750	34.75	-0.059894561767578
42482	1775	35	-0.044921875
42482	1800	35.25	-0.03369140625
42482	1825	35.5	-0.0252685546875
42482	1849	35.75	-0.018951416015625
42482	1872	36	-0.014213562011719
42482	1895	36.25	-0.010662078857422
42482	1918	36.5	-0.00799560546875
42482	1941	36.75	-0.0059967041015625
42482	1964	37	-0.0044975280761719
42482	1987	37.25	-0.0033721923828125
42482	2010	37.5	-0.0025291442871094
42482	2033	37.75	-0.0018959045410156
42482	2056	38	-0.0014228820800781
42482	2079	38.25	-0.001068115234375
42482	2102	38.5	-0.00080108642578125
42482	2126	38.75	-0.00059890747070312
42482	2149	39	-0.00045013427734375
42482	2172	39.25	-0.00033950805664062
42482	2197	39.5	-0.00025177001953125
42482	2222	39.75	-0.00019073486328125
42482	2247	40	-0.00014114379882812
42482	2272	40.25	-0.0001068115234375
42482	2297	40.5	-8.0108642578125e-005
42482	2322	40.75	-6.103515625e-005
42482	2347	41	-4.57763671875e-005
42482	2371	41.25	-3.4332275390625e-005
42482	2394	41.5	-2.6702880859375e-005
42482	2417	41.75	-1.9073486328125e-005
42482	2440	42	-1.1444091796875e-005
42482	2463	42.25	-1.1444091796875e-005
42482	2486	42.5	-7.62939453125e-006
42482	2509	42.75	-3.814697265625e-006
42482	2532	43	-3.814697265625e-006
42482	2555	43.25	-3.814697265625e-006
42482	2578	43.5	-3.814697265625e-006
42482	2601	43.75	-3.814697265625e-006
42482	2624	44	0
42482	2647	44.25	0
42482	2669	44.5	0
42482	2690	44.75	0
42482	2711	45	0
42482	2732	45.25	0
42482	2757	45.5	0
42482	2782	45.75	0
42482	2807	46	0
42482	2832	46.25	0
42482	2857	46.5	0
42482	2882	46.75	0
42482	2907	47	0
42482	2932	47.25	0
42481	31	7	5.6500000953674
42481	34	7.25	6.2750000953674
42481	37	7.5	6.9000000953674
42481	40	7.75	7.5250000953674
42481	45	8	8.1499996185303
42481	50	8.25	8.7749996185303
42481	55	8.5	9.3999996185303
42481	60	8.75	10.02499961853
42481	65	9	10.64999961853
42481	70	9.25	11.27499961853
42481	75	9.5	11.89999961853
42481	80	9.75	12.52499961853
42481	85	10	13.14999961853
42481	90	10.25	13.77499961853
42481	95	10.5	14.39999961853
42481	100	10.75	15.02499961853
42481	105	11	15.64999961853
42481	110	11.25	15.52499961853
42481	115	11.5	15.420756340027
42481	120	11.75	15.342573165894
42481	127	12	15.283936500549
42481	134	12.25	15.239958763123
42481	141	12.5	15.20697593689
42481	148	12.75	15.182238578796
42481	155	13	15.163684844971
42481	162	13.25	15.14976978302
42481	169	13.5	15.139333724976
42481	176	13.75	15.131506919861
42481	185	14	15.125637054443
42481	194	14.25	15.121233940125
42481	203	14.5	15.117931365967
42481	214	14.75	15.115454673767
42481	225	15	15.113597869873
42481	236	15.25	15.112204551697
42481	247	15.5	15.11116027832
42481	258	15.75	15.110376358032
42481	269	16	15.109788894653
42481	280	16.25	15.109348297119
42481	291	16.5	15.109017372131
42481	302	16.75	15.108769416809
42481	313	17	15.108583450317
42481	324	17.25	15.108444213867
42481	335	17.5	15.108339309692
42481	346	17.75	15.108261108398
42481	359	18	15.108201980591
42481	372	18.25	15.108158111572
42481	385	18.5	15.108124732971
42481	398	18.75	15.108099937439
42481	411	19	15.108081817627
42481	424	19.25	15.108067512512
42481	437	19.5	15.108057022095
42481	450	19.75	15.1080493927
42481	463	20	15.108043670654
42481	476	20.25	15.108038902283
42481	489	20.5	15.10803604126
42481	504	20.75	15.108033180237
42481	521	21	15.108031272888
42481	538	21.25	15.108030319214
42481	555	21.5	15.10802936554
42481	572	21.75	15.108028411865
42481	589	22	15.108027458191
42481	606	22.25	15.108026504517
42481	623	22.5	15.108026504517
42481	640	22.75	15.108026504517
42481	657	23	15.108026504517
42481	674	23.25	15.108026504517
42481	693	23.5	15.108026504517
42481	712	23.75	15.108026504517
42481	731	24	15.108026504517
42481	750	24.25	15.108026504517
42481	769	24.5	15.108026504517
42481	788	24.75	15.108026504517
42481	807	25	15.108026504517
42481	828	25.25	14.459515571594
42481	851	25.5	13.80215549469
42481	874	25.75	13.135174751282
42481	897	26	12.457628250122
42481	920	26.25	11.768333435059
42481	945	26.5	11.065756797791
42481	970	26.75	10.347822189331
42481	995	27	9.6115427017212
42481	1020	27.25	8.8522109985352
42481	1045	27.5	8.0612010955811
42481	1070	27.75	7.2170276641846
42481	1095	28	7
42481	1120	28.25	7
42481	1145	28.5	7
42481	1170	28.75	7
42481	1195	29	7
42481	1220	29.25	7
42481	1245	29.5	7
42481	1270	29.75	7
42481	1295	30	7
42481	1320	30.25	7
42481	1344	30.5	7.25
42481	1367	30.75	7.75
42481	1390	31	8.375
42481	1413	31.25	9
42481	1436	31.5	9.625
42481	1459	31.75	10.25
42481	1484	32	10.875
42481	1509	32.25	11.5
42481	1534	32.5	12.125
42481	1558	32.75	12.75
42481	1581	33	13.375
42481	1604	33.25	14
42481	1627	33.5	14.625
42481	1650	33.75	15.25
42481	1675	34	15.214506149292
42481	1700	34.25	15.187886238098
42481	1725	34.5	15.167921066284
42481	1750	34.75	15.152947425842
42481	1775	35	15.141716957092
42481	1800	35.25	15.13329410553
42481	1825	35.5	15.126976966858
42481	1849	35.75	15.122239112854
42481	1872	36	15.118685722351
42481	1895	36.25	15.116020202637
42481	1918	36.5	15.11402130127
42481	1941	36.75	15.112522125244
42481	1964	37	15.111397743225
42481	1987	37.25	15.110554695129
42481	2010	37.5	15.109922409058
42481	2033	37.75	15.109448432922
42481	2056	38	15.109092712402
42481	2079	38.25	15.108825683594
42481	2102	38.5	15.108625411987
42481	2126	38.75	15.10847568512
42481	2149	39	15.10836315155
42481	2172	39.25	15.108278274536
42481	2197	39.5	15.108215332031
42481	2222	39.75	15.108167648315
42481	2247	40	15.108132362366
42481	2272	40.25	15.108105659485
42481	2297	40.5	15.108085632324
42481	2322	40.75	15.108070373535
42481	2347	41	15.108058929443
42481	2371	41.25	15.108050346375
42481	2394	41.5	15.108043670654
42481	2417	41.75	15.108038902283
42481	2440	42	15.10803604126
42481	2463	42.25	15.108033180237
42481	2486	42.5	15.108031272888
42481	2509	42.75	15.108030319214
42481	2532	43	15.10802936554
42481	2555	43.25	15.108028411865
42481	2578	43.5	15.108027458191
42481	2601	43.75	15.108026504517
42481	2624	44	15.108026504517
42481	2647	44.25	15.108026504517
42481	2669	44.5	15.108026504517
42481	2690	44.75	15.108026504517
42481	2711	45	15.108026504517
42481	2732	45.25	15.108026504517
42481	2757	45.5	15.108026504517
42481	2782	45.75	15.108026504517
42481	2807	46	15.108026504517
42481	2832	46.25	15.108026504517
42481	2857	46.5	15.108026504517
42481	2882	46.75	15.108026504517
42481	2907	47	15.108026504517
42481	2932	47.25	15.108026504517
42480	28	6.75	486.85000610352
42480	31	7	486.85000610352
42480	34	7.25	486.85000610352
42480	37	7.5	486.85000610352
42480	40	7.75	486.85000610352
42480	45	8	486.85000610352
42480	50	8.25	486.85000610352
42480	55	8.5	486.85000610352
42480	60	8.75	486.85000610352
42480	65	9	486.85000610352
42480	70	9.25	486.85000610352
42480	75	9.5	486.85000610352
42480	80	9.75	486.85000610352
42480	85	10	486.85000610352
42480	90	10.25	486.85000610352
42480	95	10.5	486.85000610352
42480	100	10.75	486.85000610352
42480	105	11	486.85000610352
42480	110	11.25	486.85000610352
42480	115	11.5	486.85000610352
42480	120	11.75	486.85000610352
42480	127	12	486.85000610352
42480	134	12.25	486.85000610352
42480	141	12.5	486.85000610352
42480	148	12.75	486.85000610352
42480	155	13	486.85000610352
42480	162	13.25	486.85000610352
42480	169	13.5	486.85000610352
42480	176	13.75	486.85000610352
42480	185	14	486.85000610352
42480	194	14.25	486.85000610352
42480	203	14.5	486.85000610352
42480	214	14.75	486.85000610352
42480	225	15	486.85000610352
42480	236	15.25	486.85000610352
42480	247	15.5	486.85000610352
42480	258	15.75	486.85000610352
42480	269	16	486.85000610352
42480	280	16.25	486.85000610352
42480	291	16.5	486.85000610352
42480	302	16.75	486.85000610352
42480	313	17	486.85000610352
42480	324	17.25	486.85000610352
42480	335	17.5	486.85000610352
42480	346	17.75	486.85000610352
42480	359	18	486.85000610352
42480	372	18.25	486.85000610352
42480	385	18.5	486.85000610352
42480	398	18.75	486.85000610352
42480	411	19	486.85000610352
42480	424	19.25	486.85000610352
42480	437	19.5	486.85000610352
42480	450	19.75	486.85000610352
42480	463	20	486.85000610352
42480	476	20.25	486.85000610352
42480	489	20.5	486.85000610352
42480	504	20.75	486.85000610352
42480	521	21	486.85000610352
42480	538	21.25	486.85000610352
42480	555	21.5	486.85000610352
42480	572	21.75	486.85000610352
42480	589	22	486.85000610352
42480	606	22.25	486.85000610352
42480	623	22.5	486.85000610352
42480	640	22.75	486.85000610352
42480	657	23	486.85000610352
42480	674	23.25	486.85000610352
42480	693	23.5	486.85000610352
42480	712	23.75	486.85000610352
42480	731	24	486.85000610352
42480	750	24.25	486.85000610352
42480	769	24.5	486.85000610352
42480	788	24.75	486.85000610352
42480	807	25	486.85000610352
42480	828	25.25	486.85000610352
42480	851	25.5	486.85000610352
42480	874	25.75	486.85000610352
42480	897	26	486.85000610352
42480	920	26.25	486.85000610352
42480	945	26.5	486.85000610352
42480	970	26.75	486.85000610352
42480	995	27	486.85000610352
42480	1020	27.25	486.85000610352
42480	1045	27.5	486.85000610352
42480	1070	27.75	486.85000610352
42480	1095	28	486.85000610352
42480	1120	28.25	486.92556762695
42480	1145	28.5	487.19931030273
42480	1170	28.75	487.70935058594
42480	1195	29	488.43640136719
42480	1220	29.25	489.35501098633
42480	1245	29.5	490.43200683594
42480	1270	29.75	491.72341918945
42480	1295	30	493.3046875
42480	1320	30.25	495.02505493164
42480	1344	30.5	496.77490234375
42480	1367	30.75	498.55615234375
42480	1390	31	500.43115234375
42480	1413	31.25	502.44677734375
42480	1436	31.5	504.61865234375
42480	1459	31.75	506.94677734375
42480	1484	32	509.43115234375
42480	1509	32.25	512.07177734375
42480	1534	32.5	514.86865234375
42480	1558	32.75	517.82177734375
42480	1581	33	520.93115234375
42480	1604	33.25	524.19677734375
42480	1627	33.5	527.61865234375
42480	1650	33.75	531.19677734375
42480	1675	34	535.00927734375
42480	1700	34.25	538.81289672852
42480	1725	34.5	542.60986328125
42480	1750	34.75	546.40185546875
42480	1775	35	550.19195556641
42480	1800	35.25	553.9787902832
42480	1825	35.5	557.76318359375
42480	1849	35.75	561.54571533203
42480	1872	36	565.3268737793
42480	1895	36.25	569.10696411133
42480	1918	36.5	572.88632202148
42480	1941	36.75	576.66506958008
42480	1964	37	580.44338989258
42480	1987	37.25	584.22137451172
42480	2010	37.5	587.99911499023
42480	2033	37.75	591.77658081055
42480	2056	38	595.55395507812
42480	2079	38.25	599.33123779297
42480	2102	38.5	603.10848999023
42480	2126	38.75	606.88565063477
42480	2149	39	610.66278076172
42480	2172	39.25	614.43989562988
42480	2197	39.5	618.21697998047
42480	2222	39.75	621.99404907227
42480	2247	40	625.77108764648
42480	2272	40.25	629.5481262207
42480	2297	40.5	633.32514953613
42480	2322	40.75	637.10218811035
42480	2347	41	640.87919616699
42480	2371	41.25	644.65621948242
42480	2394	41.5	648.43322753906
42480	2417	41.75	652.2102355957
42480	2440	42	655.98724365234
42480	2463	42.25	659.76425170898
42480	2486	42.5	663.54125976562
42480	2509	42.75	667.31826782227
42480	2532	43	671.09527587891
42480	2555	43.25	674.87228393555
42480	2578	43.5	678.64929199219
42480	2601	43.75	682.42630004883
42480	2624	44	686.20330810547
42480	2647	44.25	689.98031616211
42480	2669	44.5	693.75732421875
42480	2690	44.75	697.53433227539
42480	2711	45	701.31134033203
42480	2732	45.25	705.08834838867
42480	2757	45.5	708.86535644531
42480	2782	45.75	712.64234924316
42480	2807	46	716.4193572998
42480	2832	46.25	720.19636535645
42480	2857	46.5	723.97337341309
42480	2882	46.75	727.75038146973
42480	2907	47	731.52738952637
42480	2932	47.25	735.30439758301
42479	28	6.75	785.82187652588
42479	31	7	785.82187652588
42479	34	7.25	784.48750305176
42479	37	7.5	782.99687957764
42479	40	7.75	781.35000610352
42479	45	8	779.54688262939
42479	50	8.25	777.58750915527
42479	55	8.5	775.47188568115
42479	60	8.75	773.20001220703
42479	65	9	770.77188873291
42479	70	9.25	768.18751525879
42479	75	9.5	765.44688415527
42479	80	9.75	762.55001068115
42479	85	10	759.49688720703
42479	90	10.25	756.28750610352
42479	95	10.5	752.92188262939
42479	100	10.75	749.40000915527
42479	105	11	745.72188568115
42479	110	11.25	741.88751220703
42479	115	11.5	738.00625610352
42479	120	11.75	734.15106201172
42479	127	12	730.31541442871
42479	134	12.25	726.48709106445
42479	141	12.5	722.67161560059
42479	148	12.75	718.86575317383
42479	155	13	715.06709289551
42479	162	13.25	711.2738494873
42479	169	13.5	707.48466491699
42479	176	13.75	703.69853210449
42479	185	14	699.91467285156
42479	194	14.25	696.13252258301
42479	203	14.5	692.35166931152
42479	214	14.75	688.57177734375
42479	225	15	684.79260253906
42479	236	15.25	681.01397705078
42479	247	15.5	677.23574829102
42479	258	15.75	673.45782470703
42479	269	16	669.68013000488
42479	280	16.25	665.90260314941
42479	291	16.5	662.12521362305
42479	302	16.75	658.34791564941
42479	313	17	654.57069396973
42479	324	17.25	650.7935333252
42479	335	17.5	647.01640319824
42479	346	17.75	643.23930358887
42479	359	18	639.46221923828
42479	372	18.25	635.68516540527
42479	385	18.5	631.90812683105
42479	398	18.75	628.13108825684
42479	411	19	624.35404968262
42479	424	19.25	620.57702636719
42479	437	19.5	616.80000305176
42479	450	19.75	613.02301025391
42479	463	20	609.24597167969
42479	476	20.25	605.46896362305
42479	489	20.5	601.69195556641
42479	504	20.75	597.91494750977
42479	521	21	594.13793945312
42479	538	21.25	590.36093139648
42479	555	21.5	586.58392333984
42479	572	21.75	582.8069152832
42479	589	22	579.02990722656
42479	606	22.25	575.25289916992
42479	623	22.5	571.47589111328
42479	640	22.75	567.69888305664
42479	657	23	563.921875
42479	674	23.25	560.14486694336
42479	693	23.5	556.36785888672
42479	712	23.75	552.59085083008
42479	731	24	548.81384277344
42479	750	24.25	545.0368347168
42479	769	24.5	541.25982666016
42479	788	24.75	537.48281860352
42479	807	25	533.70581054688
42479	828	25.25	529.92880249023
42479	851	25.5	526.23284912109
42479	874	25.75	522.70016479492
42479	897	26	519.33297729492
42479	920	26.25	516.13388061523
42479	945	26.5	513.10565185547
42479	970	26.75	510.25137329102
42479	995	27	507.57467651367
42479	1020	27.25	505.07977294922
42479	1045	27.5	502.77178955078
42479	1070	27.75	500.65762329102
42479	1095	28	498.74783325195
42479	1120	28.25	496.99945068359
42479	1145	28.5	495.27099609375
42479	1170	28.75	493.59698486328
42479	1195	29	492.0051574707
42479	1220	29.25	490.51565551758
42479	1245	29.5	489.13632202148
42479	1270	29.75	487.95532226562
42479	1295	30	487.20556640625
42479	1320	30.25	486.88488769531
42479	1344	30.5	486.85000610352
42479	1367	30.75	486.85000610352
42479	1390	31	486.85000610352
42479	1413	31.25	486.85000610352
42479	1436	31.5	486.85000610352
42479	1459	31.75	486.85000610352
42479	1484	32	486.85000610352
42479	1509	32.25	486.85000610352
42479	1534	32.5	486.85000610352
42479	1558	32.75	486.85000610352
42479	1581	33	486.85000610352
42479	1604	33.25	486.85000610352
42479	1627	33.5	486.85000610352
42479	1650	33.75	486.85000610352
42479	1675	34	486.85000610352
42479	1700	34.25	486.85000610352
42479	1725	34.5	486.85000610352
42479	1750	34.75	486.85000610352
42479	1775	35	486.85000610352
42479	1800	35.25	486.85000610352
42479	1825	35.5	486.85000610352
42479	1849	35.75	486.85000610352
42479	1872	36	486.85000610352
42479	1895	36.25	486.85000610352
42479	1918	36.5	486.85000610352
42479	1941	36.75	486.85000610352
42479	1964	37	486.85000610352
42479	1987	37.25	486.85000610352
42479	2010	37.5	486.85000610352
42479	2033	37.75	486.85000610352
42479	2056	38	486.85000610352
42479	2079	38.25	486.85000610352
42479	2102	38.5	486.85000610352
42479	2126	38.75	486.85000610352
42479	2149	39	486.85000610352
42479	2172	39.25	486.85000610352
42479	2197	39.5	486.85000610352
42479	2222	39.75	486.85000610352
42479	2247	40	486.85000610352
42479	2272	40.25	486.85000610352
42479	2297	40.5	486.85000610352
42479	2322	40.75	486.85000610352
42479	2347	41	486.85000610352
42479	2371	41.25	486.85000610352
42479	2394	41.5	486.85000610352
42479	2417	41.75	486.85000610352
42479	2440	42	486.85000610352
42479	2463	42.25	486.85000610352
42479	2486	42.5	486.85000610352
42479	2509	42.75	486.85000610352
42479	2532	43	486.85000610352
42479	2555	43.25	486.85000610352
42479	2578	43.5	486.85000610352
42479	2601	43.75	486.85000610352
42479	2624	44	486.85000610352
42479	2647	44.25	486.85000610352
42479	2669	44.5	486.85000610352
42479	2690	44.75	486.85000610352
42479	2711	45	486.85000610352
42479	2732	45.25	486.85000610352
42479	2757	45.5	486.85000610352
42479	2782	45.75	486.85000610352
42479	2807	46	486.85000610352
42479	2832	46.25	486.85000610352
42479	2857	46.5	486.85000610352
42479	2882	46.75	486.85000610352
42479	2907	47	486.85000610352
42479	2932	47.25	486.85000610352
42490	50	8.25	5.2162187258585
42490	55	8.5	5.6304533568076
42490	60	8.75	6.0461819274774
42490	65	9	6.4635356930995
42490	70	9.25	6.8826618500064
42490	75	9.5	7.303684162087
42490	80	9.75	7.726741696285
42490	85	10	8.1519697732254
42490	90	10.25	8.5795037135332
42490	95	10.5	9.0094788378334
42490	100	10.75	9.442030466751
42490	105	11	9.8772939209111
42490	110	11.25	10.315404520939
42490	115	11.5	10.756497587458
42490	120	11.75	11.200708441096
42490	127	12	11.648172402475
42490	134	12.25	0.97223939240464
42490	141	12.5	1.2781147343345
42490	148	12.75	1.5059445533311
42490	155	13	1.6759005859334
42490	162	13.25	1.8028783719228
42490	169	13.5	1.897835628157
42490	176	13.75	1.9688907532978
42490	185	14	2.022081854985
42490	194	14.25	2.0619318383066
42490	203	14.5	2.0917945235508
42490	214	14.75	2.1141756133905
42490	225	15	2.1309489357456
42490	236	15.25	2.1435274314371
42490	247	15.5	2.1529478440276
42490	258	15.75	2.1600257000816
42490	269	16	2.1653119548764
42490	280	16.25	2.1693044228256
42490	291	16.5	2.1722773055062
42490	302	16.75	2.1745067542837
42490	313	17	2.1761857938415
42490	324	17.25	2.1774521193283
42490	335	17.5	2.1783876958246
42490	346	17.75	2.1791035011702
42490	359	18	2.1796262072912
42490	372	18.25	2.180039466963
42490	385	18.5	2.1803282277572
42490	398	18.75	2.1805482909664
42490	411	19	2.1807275031046
42490	424	19.25	2.1808371556249
42490	437	19.5	2.180947671929
42490	450	19.75	2.1810022818285
42490	463	20	2.1810573237303
42490	476	20.25	2.1811127976753
42490	489	20.5	2.1811403185603
42490	504	20.75	2.1811538629268
42490	521	21	2.1811675153196
42490	538	21.25	2.1811812757414
42490	555	21.5	2.1811951441947
42490	572	21.75	2.1811949281213
42490	589	22	2.1812089046069
42490	606	22.25	2.1812087965694
42490	623	22.5	2.1812228810908
42490	640	22.75	2.1812228810908
42490	657	23	2.1812228810908
42490	674	23.25	2.1812228810908
42490	693	23.5	2.1812228810908
42490	712	23.75	2.1812228810908
42490	731	24	2.1812228810908
42490	750	24.25	2.1812228810908
42490	769	24.5	2.1812228810908
42490	788	24.75	2.1812228810908
42490	807	25	2.1812228810908
42490	828	25.25	2.1812228810908
42490	851	25.5	2.1812228810908
42490	874	25.75	2.1812228810908
42490	897	26	2.1812228810908
42490	920	26.25	0.973
42490	945	26.5	0.973
42490	970	26.75	0.973
42490	995	27	1.8436918552146
42490	1020	27.25	0.973
42490	1045	27.5	1.7489929593965
42490	1070	27.75	1.5718360666569
42490	1095	28	4.2467791676442
42490	1120	28.25	7.1719064113275
42490	1145	28.5	9.1784336044874
42490	1170	28.75	9.6120303275616
42490	1195	29	10.048391830479
42490	1220	29.25	10.487653433866
42490	1245	29.5	0.973
42490	1270	29.75	0.973
42490	1295	30	0.973
42490	1320	30.25	0.973
42490	1344	30.5	1.76359628928
42490	1367	30.75	1.76359628928
42490	1390	31	1.76359628928
42490	1413	31.25	1.76359628928
42490	1436	31.5	1.76359628928
42490	1459	31.75	1.76359628928
42490	1484	32	1.76359628928
42490	1509	32.25	1.76359628928
42490	1534	32.5	1.76359628928
42490	1558	32.75	4.4954816475
42490	1581	33	7.49018019466
42490	1604	33.25	9.3379761228225
42490	1627	33.5	9.77257639936
42490	1650	33.75	10.209991344897
42490	1675	34	10.65035628006
42490	1700	34.25	11.093806525473
42490	1725	34.5	11.54047740176
42490	1750	34.75	1.5269438023734
42490	1775	35	1.6915908148892
42490	1800	35.25	1.8146103135173
42490	1825	35.5	1.9066125150869
42490	1849	35.75	1.9754503641068
42490	1872	36	2.027001653838
42490	1895	36.25	2.0656177776217
42490	1918	36.5	2.0945532395412
42490	1941	36.75	2.1162434062437
42490	1964	37	2.1324919812058
42490	1987	37.25	2.1446842695831
42490	2010	37.5	2.15382939435
42490	2033	37.75	2.1606725956351
42490	2056	38	2.1658076491233
42490	2079	38.25	2.1696619865482
42490	2102	38.5	2.1725524725399
42490	2126	38.75	2.1747272835015
42490	2149	39	2.1763512643086
42490	2172	39.25	2.1775621059653
42490	2197	39.5	2.1784843496078
42490	2222	39.75	2.1791583301235
42490	2247	40	2.179681467155
42490	2272	40.25	2.1800667727244
42490	2297	40.5	2.1803557492306
42490	2322	40.75	2.1805760282686
42490	2347	41	2.1807270710739
42490	2371	41.25	2.1808651087756
42490	2394	41.5	2.1809474558863
42490	2417	41.75	2.1810162583629
42490	2440	42	2.1810714082798
42490	2463	42.25	2.1811127976753
42490	2486	42.5	2.1811403185603
42490	2509	42.75	2.1811538629268
42490	2532	43	2.1811675153196
42490	2555	43.25	2.1811812757414
42490	2578	43.5	2.1811951441947
42490	2601	43.75	2.1811949281213
42490	2624	44	2.1812089046069
42490	2647	44.25	2.1812087965694
42490	2669	44.5	2.1812228810908
42490	2690	44.75	2.1812228810908
42490	2711	45	2.1812228810908
42490	2732	45.25	2.1812228810908
42490	2757	45.5	2.1812228810908
42490	2782	45.75	2.1812228810908
42490	2807	46	2.1812228810908
42490	2832	46.25	2.1812228810908
42490	2857	46.5	2.1812228810908
42490	2882	46.75	2.1812228810908
42490	2907	47	2.1812228810908
42490	2932	47.25	2.1812228810908
42490	2957	47.5	2.1812228810908
42490	2982	47.75	2.1812228810908
42490	3007	48	2.1812228810908
42490	3032	48.25	2.1812228810908
42490	3057	48.5	2.1812228810908
42489	50	8.25	2.5
42489	55	8.5	2.5
42489	60	8.75	2.5
42489	65	9	2.4999980926514
42489	70	9.25	2.5
42489	75	9.5	2.5
42489	80	9.75	2.5
42489	85	10	2.5
42489	90	10.25	2.5
42489	95	10.5	2.5
42489	100	10.75	2.5
42489	105	11	2.5
42489	110	11.25	2.5
42489	115	11.5	2.5
42489	120	11.75	2.5
42489	127	12	2.5
42489	134	12.25	-0.32978057861328
42489	141	12.5	-0.24733734130859
42489	148	12.75	-0.18550109863281
42489	155	13	-0.13912963867188
42489	162	13.25	-0.10434722900391
42489	169	13.5	-0.078258514404297
42489	176	13.75	-0.058692932128906
42489	185	14	-0.044021606445312
42489	194	14.25	-0.033016204833984
42489	203	14.5	-0.024761199951172
42489	214	14.75	-0.018569946289062
42489	225	15	-0.013927459716797
42489	236	15.25	-0.010444641113281
42489	247	15.5	-0.0078353881835938
42489	258	15.75	-0.0058746337890625
42489	269	16	-0.0044097900390625
42489	280	16.25	-0.0033035278320312
42489	291	16.5	-0.0024795532226562
42489	302	16.75	-0.001861572265625
42489	313	17	-0.0013961791992188
42489	324	17.25	-0.0010452270507812
42489	335	17.5	-0.00078582763671875
42489	346	17.75	-0.00058746337890625
42489	359	18	-0.0004425048828125
42489	372	18.25	-0.00032806396484375
42489	385	18.5	-0.00024795532226562
42489	398	18.75	-0.00018692016601562
42489	411	19	-0.0001373291015625
42489	424	19.25	-0.0001068115234375
42489	437	19.5	-7.62939453125e-005
42489	450	19.75	-6.103515625e-005
42489	463	20	-4.57763671875e-005
42489	476	20.25	-3.0517578125e-005
42489	489	20.5	-2.288818359375e-005
42489	504	20.75	-1.9073486328125e-005
42489	521	21	-1.52587890625e-005
42489	538	21.25	-1.1444091796875e-005
42489	555	21.5	-7.62939453125e-006
42489	572	21.75	-7.62939453125e-006
42489	589	22	-3.814697265625e-006
42489	606	22.25	-3.814697265625e-006
42489	623	22.5	0
42489	640	22.75	0
42489	657	23	0
42489	674	23.25	0
42489	693	23.5	0
42489	712	23.75	0
42489	731	24	0
42489	750	24.25	0
42489	769	24.5	0
42489	788	24.75	0
42489	807	25	0
42489	828	25.25	0
42489	851	25.5	0
42489	874	25.75	0
42489	897	26	0
42489	920	26.25	-4.5
42489	945	26.5	-4.5
42489	970	26.75	-4.5
42489	995	27	0
42489	1020	27.25	-4.5
42489	1045	27.5	0
42489	1070	27.75	-0.067520141601562
42489	1095	28	0.93247985839844
42489	1120	28.25	1.9324798583984
42489	1145	28.5	2.5
42489	1170	28.75	2.5
42489	1195	29	2.5
42489	1220	29.25	2.5
42489	1245	29.5	-3.0127754211426
42489	1270	29.75	-3.1140594482422
42489	1295	30	-3.2663764953613
42489	1320	30.25	-2.6851043701172
42489	1344	30.5	0
42489	1367	30.75	0
42489	1390	31	0
42489	1413	31.25	0
42489	1436	31.5	0
42489	1459	31.75	0
42489	1484	32	0
42489	1509	32.25	0
42489	1534	32.5	0
42489	1558	32.75	1
42489	1581	33	2
42489	1604	33.25	2.5
42489	1627	33.5	2.5
42489	1650	33.75	2.5
42489	1675	34	2.5
42489	1700	34.25	2.5
42489	1725	34.5	2.5
42489	1750	34.75	-0.17978286743164
42489	1775	35	-0.13483810424805
42489	1800	35.25	-0.10112762451172
42489	1825	35.5	-0.075843811035156
42489	1849	35.75	-0.056884765625
42489	1872	36	-0.04266357421875
42489	1895	36.25	-0.031997680664062
42489	1918	36.5	-0.023998260498047
42489	1941	36.75	-0.017997741699219
42489	1964	37	-0.013500213623047
42489	1987	37.25	-0.010124206542969
42489	2010	37.5	-0.0075912475585938
42489	2033	37.75	-0.0056953430175781
42489	2056	38	-0.0042724609375
42489	2079	38.25	-0.003204345703125
42489	2102	38.5	-0.0024032592773438
42489	2126	38.75	-0.001800537109375
42489	2149	39	-0.0013504028320312
42489	2172	39.25	-0.0010147094726562
42489	2197	39.5	-0.00075912475585938
42489	2222	39.75	-0.00057220458984375
42489	2247	40	-0.00042724609375
42489	2272	40.25	-0.0003204345703125
42489	2297	40.5	-0.00024032592773438
42489	2322	40.75	-0.00017929077148438
42489	2347	41	-0.0001373291015625
42489	2371	41.25	-9.918212890625e-005
42489	2394	41.5	-7.62939453125e-005
42489	2417	41.75	-5.7220458984375e-005
42489	2440	42	-4.1961669921875e-005
42489	2463	42.25	-3.0517578125e-005
42489	2486	42.5	-2.288818359375e-005
42489	2509	42.75	-1.9073486328125e-005
42489	2532	43	-1.52587890625e-005
42489	2555	43.25	-1.1444091796875e-005
42489	2578	43.5	-7.62939453125e-006
42489	2601	43.75	-7.62939453125e-006
42489	2624	44	-3.814697265625e-006
42489	2647	44.25	-3.814697265625e-006
42489	2669	44.5	0
42489	2690	44.75	0
42489	2711	45	0
42489	2732	45.25	0
42489	2757	45.5	0
42489	2782	45.75	0
42489	2807	46	0
42489	2832	46.25	0
42489	2857	46.5	0
42489	2882	46.75	0
42489	2907	47	0
42489	2932	47.25	0
42489	2957	47.5	0
42489	2982	47.75	0
42489	3007	48	0
42489	3032	48.25	0
42489	3057	48.5	0
42488	45	8	5.6500000953674
42488	50	8.25	6.2750000953674
42488	55	8.5	6.9000000953674
42488	60	8.75	7.5250000953674
42488	65	9	8.1499996185303
42488	70	9.25	8.7749996185303
42488	75	9.5	9.3999996185303
42488	80	9.75	10.02499961853
42488	85	10	10.64999961853
42488	90	10.25	11.27499961853
42488	95	10.5	11.89999961853
42488	100	10.75	12.52499961853
42488	105	11	13.14999961853
42488	110	11.25	13.77499961853
42488	115	11.5	14.39999961853
42488	120	11.75	15.02499961853
42488	127	12	15.64999961853
42488	134	12.25	15.567554473877
42488	141	12.5	15.50572013855
42488	148	12.75	15.459344863892
42488	155	13	15.424562454224
42488	162	13.25	15.398475646973
42488	169	13.5	15.378911018372
42488	176	13.75	15.364237785339
42488	185	14	15.353232383728
42488	194	14.25	15.34497833252
42488	203	14.5	15.338788032532
42488	214	14.75	15.334145545959
42488	225	15	15.33066368103
42488	236	15.25	15.328052520752
42488	247	15.5	15.326093673706
42488	258	15.75	15.324625015259
42488	269	16	15.323522567749
42488	280	16.25	15.322696685791
42488	291	16.5	15.322076797485
42488	302	16.75	15.321611404419
42488	313	17	15.321262359619
42488	324	17.25	15.321001052856
42488	335	17.5	15.320804595947
42488	346	17.75	15.320657730103
42488	359	18	15.320547103882
42488	372	18.25	15.320465087891
42488	385	18.5	15.32040309906
42488	398	18.75	15.320356369019
42488	411	19	15.320322036743
42488	424	19.25	15.320295333862
42488	437	19.5	15.320276260376
42488	450	19.75	15.320261001587
42488	463	20	15.320249557495
42488	476	20.25	15.320241928101
42488	489	20.5	15.320236206055
42488	504	20.75	15.320231437683
42488	521	21	15.320227622986
42488	538	21.25	15.320224761963
42488	555	21.5	15.320222854614
42488	572	21.75	15.320220947266
42488	589	22	15.320219993591
42488	606	22.25	15.320219039917
42488	623	22.5	15.320219039917
42488	640	22.75	15.320219039917
42488	657	23	15.320219039917
42488	674	23.25	15.320219039917
42488	693	23.5	15.320219039917
42488	712	23.75	15.320219039917
42488	731	24	15.320219039917
42488	750	24.25	15.320219039917
42488	769	24.5	15.320219039917
42488	788	24.75	15.320219039917
42488	807	25	15.320219039917
42488	828	25.25	15.320219039917
42488	851	25.5	15.320219039917
42488	874	25.75	15.320219039917
42488	897	26	15.320219039917
42488	920	26.25	14.195219039917
42488	945	26.5	13.070219039917
42488	970	26.75	11.945219039917
42488	995	27	11.945219039917
42488	1020	27.25	10.820219039917
42488	1045	27.5	10.820219039917
42488	1070	27.75	10.803339004517
42488	1095	28	11.036458969116
42488	1120	28.25	11.519578933716
42488	1145	28.5	12.144578933716
42488	1170	28.75	12.769578933716
42488	1195	29	13.394578933716
42488	1220	29.25	14.019578933716
42488	1245	29.5	13.26638507843
42488	1270	29.75	12.48787021637
42488	1295	30	11.671276092529
42488	1320	30.25	11
42488	1344	30.5	11
42488	1367	30.75	11
42488	1390	31	11
42488	1413	31.25	11
42488	1436	31.5	11
42488	1459	31.75	11
42488	1484	32	11
42488	1509	32.25	11
42488	1534	32.5	11
42488	1558	32.75	11.25
42488	1581	33	11.75
42488	1604	33.25	12.375
42488	1627	33.5	13
42488	1650	33.75	13.625
42488	1675	34	14.25
42488	1700	34.25	14.875
42488	1725	34.5	15.5
42488	1750	34.75	15.455054283142
42488	1775	35	15.42134475708
42488	1800	35.25	15.396062850952
42488	1825	35.5	15.377101898193
42488	1849	35.75	15.362880706787
42488	1872	36	15.352214813232
42488	1895	36.25	15.344215393066
42488	1918	36.5	15.338215827942
42488	1941	36.75	15.333716392517
42488	1964	37	15.330341339111
42488	1987	37.25	15.327810287476
42488	2010	37.5	15.325912475586
42488	2033	37.75	15.324488639832
42488	2056	38	15.323420524597
42488	2079	38.25	15.322619438171
42488	2102	38.5	15.322018623352
42488	2126	38.75	15.321568489075
42488	2149	39	15.321230888367
42488	2172	39.25	15.320977210999
42488	2197	39.5	15.32078742981
42488	2222	39.75	15.320644378662
42488	2247	40	15.320537567139
42488	2272	40.25	15.320457458496
42488	2297	40.5	15.320397377014
42488	2322	40.75	15.320352554321
42488	2347	41	15.320318222046
42488	2371	41.25	15.320293426514
42488	2394	41.5	15.320274353027
42488	2417	41.75	15.320260047913
42488	2440	42	15.320249557495
42488	2463	42.25	15.320241928101
42488	2486	42.5	15.320236206055
42488	2509	42.75	15.320231437683
42488	2532	43	15.320227622986
42488	2555	43.25	15.320224761963
42488	2578	43.5	15.320222854614
42488	2601	43.75	15.320220947266
42488	2624	44	15.320219993591
42488	2647	44.25	15.320219039917
42488	2669	44.5	15.320219039917
42488	2690	44.75	15.320219039917
42488	2711	45	15.320219039917
42488	2732	45.25	15.320219039917
42488	2757	45.5	15.320219039917
42488	2782	45.75	15.320219039917
42488	2807	46	15.320219039917
42488	2832	46.25	15.320219039917
42488	2857	46.5	15.320219039917
42488	2882	46.75	15.320219039917
42488	2907	47	15.320219039917
42488	2932	47.25	15.320219039917
42488	2957	47.5	15.320219039917
42488	2982	47.75	15.320219039917
42488	3007	48	15.320219039917
42488	3032	48.25	15.320219039917
42488	3057	48.5	15.320219039917
42487	40	7.75	486.85000610352
42487	45	8	486.85000610352
42487	50	8.25	486.85000610352
42487	55	8.5	486.85000610352
42487	60	8.75	486.85000610352
42487	65	9	486.85000610352
42487	70	9.25	486.85000610352
42487	75	9.5	486.85000610352
42487	80	9.75	486.85000610352
42487	85	10	486.85000610352
42487	90	10.25	486.85000610352
42487	95	10.5	486.85000610352
42487	100	10.75	486.85000610352
42487	105	11	486.85000610352
42487	110	11.25	486.85000610352
42487	115	11.5	486.85000610352
42487	120	11.75	486.85000610352
42487	127	12	486.85000610352
42487	134	12.25	486.85000610352
42487	141	12.5	486.85000610352
42487	148	12.75	486.85000610352
42487	155	13	486.85000610352
42487	162	13.25	486.85000610352
42487	169	13.5	486.85000610352
42487	176	13.75	486.85000610352
42487	185	14	486.85000610352
42487	194	14.25	486.85000610352
42487	203	14.5	486.85000610352
42487	214	14.75	486.85000610352
42487	225	15	486.85000610352
42487	236	15.25	486.85000610352
42487	247	15.5	486.85000610352
42487	258	15.75	486.85000610352
42487	269	16	486.85000610352
42487	280	16.25	486.85000610352
42487	291	16.5	486.85000610352
42487	302	16.75	486.85000610352
42487	313	17	486.85000610352
42487	324	17.25	486.85000610352
42487	335	17.5	486.85000610352
42487	346	17.75	486.85000610352
42487	359	18	486.85000610352
42487	372	18.25	486.85000610352
42487	385	18.5	486.85000610352
42487	398	18.75	486.85000610352
42487	411	19	486.85000610352
42487	424	19.25	486.85000610352
42487	437	19.5	486.85000610352
42487	450	19.75	486.85000610352
42487	463	20	486.85000610352
42487	476	20.25	486.85000610352
42487	489	20.5	486.85000610352
42487	504	20.75	486.85000610352
42487	521	21	486.85000610352
42487	538	21.25	486.85000610352
42487	555	21.5	486.85000610352
42487	572	21.75	486.85000610352
42487	589	22	486.85000610352
42487	606	22.25	486.85000610352
42487	623	22.5	486.85000610352
42487	640	22.75	486.85000610352
42487	657	23	486.85000610352
42487	674	23.25	486.85000610352
42487	693	23.5	486.85000610352
42487	712	23.75	486.85000610352
42487	731	24	486.85000610352
42487	750	24.25	486.85000610352
42487	769	24.5	486.85000610352
42487	788	24.75	486.85000610352
42487	807	25	486.85000610352
42487	828	25.25	486.85000610352
42487	851	25.5	486.85000610352
42487	874	25.75	486.85000610352
42487	897	26	486.85000610352
42487	920	26.25	486.85000610352
42487	945	26.5	486.85000610352
42487	970	26.75	486.85000610352
42487	995	27	486.85000610352
42487	1020	27.25	486.85000610352
42487	1045	27.5	486.85000610352
42487	1070	27.75	486.85000610352
42487	1095	28	486.85000610352
42487	1120	28.25	486.85000610352
42487	1145	28.5	486.85000610352
42487	1170	28.75	486.85000610352
42487	1195	29	486.85000610352
42487	1220	29.25	486.85000610352
42487	1245	29.5	486.85000610352
42487	1270	29.75	486.85000610352
42487	1295	30	486.85000610352
42487	1320	30.25	486.85000610352
42487	1344	30.5	486.85000610352
42487	1367	30.75	486.85000610352
42487	1390	31	486.85000610352
42487	1413	31.25	486.85000610352
42487	1436	31.5	486.85000610352
42487	1459	31.75	486.85000610352
42487	1484	32	486.85000610352
42487	1509	32.25	486.85000610352
42487	1534	32.5	486.85000610352
42487	1558	32.75	486.85000610352
42487	1581	33	486.85000610352
42487	1604	33.25	486.85000610352
42487	1627	33.5	486.85000610352
42487	1650	33.75	486.85000610352
42487	1675	34	486.85000610352
42487	1700	34.25	486.85000610352
42487	1725	34.5	486.85000610352
42487	1750	34.75	486.85000610352
42487	1775	35	486.85000610352
42487	1800	35.25	486.85000610352
42487	1825	35.5	486.85000610352
42487	1849	35.75	486.85000610352
42487	1872	36	486.85000610352
42487	1895	36.25	486.85000610352
42487	1918	36.5	486.85000610352
42487	1941	36.75	486.85000610352
42487	1964	37	486.85000610352
42487	1987	37.25	486.85000610352
42487	2010	37.5	486.85000610352
42487	2033	37.75	486.85000610352
42487	2056	38	486.85000610352
42487	2079	38.25	486.85000610352
42487	2102	38.5	486.85000610352
42487	2126	38.75	486.85000610352
42487	2149	39	486.85000610352
42487	2172	39.25	486.85000610352
42487	2197	39.5	486.85000610352
42487	2222	39.75	486.85000610352
42487	2247	40	486.85000610352
42487	2272	40.25	486.85000610352
42487	2297	40.5	486.85000610352
42487	2322	40.75	486.85000610352
42487	2347	41	486.85000610352
42487	2371	41.25	486.85000610352
42487	2394	41.5	486.85000610352
42487	2417	41.75	486.85000610352
42487	2440	42	486.85000610352
42487	2463	42.25	486.85000610352
42487	2486	42.5	486.85000610352
42487	2509	42.75	486.85000610352
42487	2532	43	486.85000610352
42487	2555	43.25	486.85000610352
42487	2578	43.5	486.85000610352
42487	2601	43.75	486.85000610352
42487	2624	44	486.85000610352
42487	2647	44.25	486.85000610352
42487	2669	44.5	486.85000610352
42487	2690	44.75	486.85000610352
42487	2711	45	486.85000610352
42487	2732	45.25	486.85000610352
42487	2757	45.5	486.85000610352
42487	2782	45.75	486.85000610352
42487	2807	46	486.85000610352
42487	2832	46.25	486.85000610352
42487	2857	46.5	486.85000610352
42487	2882	46.75	486.85000610352
42487	2907	47	486.85000610352
42487	2932	47.25	486.85000610352
42487	2957	47.5	486.85000610352
42487	2982	47.75	486.85000610352
42487	3007	48	486.85000610352
42487	3032	48.25	486.85000610352
42487	3057	48.5	486.85000610352
42486	40	7.75	807.99687957764
42486	45	8	807.99687957764
42486	50	8.25	806.66250610352
42486	55	8.5	805.17188262939
42486	60	8.75	803.52500915527
42486	65	9	801.72188568115
42486	70	9.25	799.76251220703
42486	75	9.5	797.64688873291
42486	80	9.75	795.37501525879
42486	85	10	792.94689178467
42486	90	10.25	790.36251831055
42486	95	10.5	787.62189483643
42486	100	10.75	784.7250213623
42486	105	11	781.67189788818
42486	110	11.25	778.46252441406
42486	115	11.5	775.09690093994
42486	120	11.75	771.57502746582
42486	127	12	767.8969039917
42486	134	12.25	764.06252288818
42486	141	12.5	760.16033172607
42486	148	12.75	756.27616882324
42486	155	13	752.40554046631
42486	162	13.25	748.54505157471
42486	169	13.5	744.69216918945
42486	176	13.75	740.84744262695
42486	185	14	737.00637817383
42486	194	14.25	733.16807556152
42486	203	14.5	729.33183288574
42486	214	14.75	725.4963684082
42486	225	15	721.6622467041
42486	236	15.25	717.82914733887
42486	247	15.5	713.99681091309
42486	258	15.75	710.1650390625
42486	269	16	706.3337097168
42486	280	16.25	702.50268554688
42486	291	16.5	698.67190551758
42486	302	16.75	694.84130859375
42486	313	17	691.01084899902
42486	324	17.25	687.18049621582
42486	335	17.5	683.35020446777
42486	346	17.75	679.51998901367
42486	359	18	675.68980407715
42486	372	18.25	671.8596496582
42486	385	18.5	668.02952575684
42486	398	18.75	664.19941711426
42486	411	19	660.36932373047
42486	424	19.25	656.53923034668
42486	437	19.5	652.70916748047
42486	450	19.75	648.87908935547
42486	463	20	645.04902648926
42486	476	20.25	641.21896362305
42486	489	20.5	637.38890075684
42486	504	20.75	633.55883789062
42486	521	21	629.72877502441
42486	538	21.25	625.89872741699
42486	555	21.5	622.06866455078
42486	572	21.75	618.23860168457
42486	589	22	614.40855407715
42486	606	22.25	610.57849121094
42486	623	22.5	606.74844360352
42486	640	22.75	602.91839599609
42486	657	23	599.08834838867
42486	674	23.25	595.25830078125
42486	693	23.5	591.42825317383
42486	712	23.75	587.59820556641
42486	731	24	583.76815795898
42486	750	24.25	579.93807983398
42486	769	24.5	576.10803222656
42486	788	24.75	572.27798461914
42486	807	25	568.44793701172
42486	828	25.25	564.6178894043
42486	851	25.5	560.7878112793
42486	874	25.75	556.95776367188
42486	897	26	553.12771606445
42486	920	26.25	549.29766845703
42486	945	26.5	545.74887084961
42486	970	26.75	542.48132324219
42486	995	27	539.49502563477
42486	1020	27.25	536.50872802734
42486	1045	27.5	533.80368041992
42486	1070	27.75	531.0986328125
42486	1095	28	528.39569091797
42486	1120	28.25	525.66571044922
42486	1145	28.5	522.84619140625
42486	1170	28.75	519.88818359375
42486	1195	29	516.77392578125
42486	1220	29.25	513.50338745117
42486	1245	29.5	510.07662963867
42486	1270	29.75	506.66586303711
42486	1295	30	503.44659423828
42486	1320	30.25	500.42669677734
42486	1344	30.5	497.67669677734
42486	1367	30.75	494.92669677734
42486	1390	31	492.17669677734
42486	1413	31.25	489.42669677734
42486	1436	31.5	486.67669677734
42486	1459	31.75	483.92669677734
42486	1484	32	481.17669677734
42486	1509	32.25	478.42669677734
42486	1534	32.5	475.67669677734
42486	1558	32.75	472.92669677734
42486	1581	33	470.14544677734
42486	1604	33.25	467.27044677734
42486	1627	33.5	464.25482177734
42486	1650	33.75	461.08294677734
42486	1675	34	457.75482177734
42486	1700	34.25	454.27044677734
42486	1725	34.5	450.62982177734
42486	1750	34.75	446.83294677734
42486	1775	35	442.96356201172
42486	1800	35.25	439.10400390625
42486	1825	35.5	435.25497436523
42486	1849	35.75	431.41070556641
42486	1872	36	427.56997680664
42486	1895	36.25	423.73193359375
42486	1918	36.5	419.89486694336
42486	1941	36.75	416.0595703125
42486	1964	37	412.2255859375
42486	1987	37.25	408.392578125
42486	2010	37.5	404.56030273438
42486	2033	37.75	400.72857666016
42486	2056	38	396.89727783203
42486	2079	38.25	393.06631469727
42486	2102	38.5	389.23553466797
42486	2126	38.75	385.40496826172
42486	2149	39	381.57452392578
42486	2172	39.25	377.74420166016
42486	2197	39.5	373.91397094727
42486	2222	39.75	370.08377075195
42486	2247	40	366.25360107422
42486	2272	40.25	362.42346191406
42486	2297	40.5	358.59332275391
42486	2322	40.75	354.76318359375
42486	2347	41	350.93310546875
42486	2371	41.25	347.10302734375
42486	2394	41.5	343.27294921875
42486	2417	41.75	339.44287109375
42486	2440	42	335.61285400391
42486	2463	42.25	331.78277587891
42486	2486	42.5	327.95269775391
42486	2509	42.75	324.12261962891
42486	2532	43	320.29260253906
42486	2555	43.25	316.46252441406
42486	2578	43.5	312.63244628906
42486	2601	43.75	308.80242919922
42486	2624	44	304.97235107422
42486	2647	44.25	301.14233398438
42486	2669	44.5	297.31225585938
42486	2690	44.75	293.48217773438
42486	2711	45	289.65216064453
42486	2732	45.25	285.82208251953
42486	2757	45.5	281.99200439453
42486	2782	45.75	278.16198730469
42486	2807	46	274.33190917969
42486	2832	46.25	270.50189208984
42486	2857	46.5	266.67181396484
42486	2882	46.75	262.84173583984
42486	2907	47	259.01171875
42486	2932	47.25	255.181640625
42486	2957	47.5	251.3515625
42486	2982	47.75	247.52154541016
42486	3007	48	243.69146728516
42486	3032	48.25	239.86138916016
42486	3057	48.5	236.03131103516
vector 42605  IntersectionExampleScenario.node[18].veinsmobility  posx  ETV
vector 42606  IntersectionExampleScenario.node[18].veinsmobility  posy  ETV
vector 42612  IntersectionExampleScenario.node[19].veinsmobility  posx  ETV
vector 42613  IntersectionExampleScenario.node[19].veinsmobility  posy  ETV
vector 42607  IntersectionExampleScenario.node[18].veinsmobility  speed  ETV
vector 42608  IntersectionExampleScenario.node[18].veinsmobility  acceleration  ETV
vector 42609  IntersectionExampleScenario.node[18].veinsmobility  co2emission  ETV
vector 42614  IntersectionExampleScenario.node[19].veinsmobility  speed  ETV
vector 42619  IntersectionExampleScenario.node[20].veinsmobility  posx  ETV
vector 42620  IntersectionExampleScenario.node[20].veinsmobility  posy  ETV
vector 42615  IntersectionExampleScenario.node[19].veinsmobility  acceleration  ETV
vector 42616  IntersectionExampleScenario.node[19].veinsmobility  co2emission  ETV
vector 42621  IntersectionExampleScenario.node[20].veinsmobility  speed  ETV
vector 42622  IntersectionExampleScenario.node[20].veinsmobility  acceleration  ETV
vector 42623  IntersectionExampleScenario.node[20].veinsmobility  co2emission  ETV
42497	134	12.25	5.2162187258585
42497	141	12.5	5.6304533568076
42497	148	12.75	6.0461819274774
42497	155	13	6.4635356930995
42497	162	13.25	6.8826618500064
42497	169	13.5	7.303684162087
42497	176	13.75	7.726741696285
42497	185	14	8.1519697732254
42497	194	14.25	8.5795037135332
42497	203	14.5	9.0094788378334
42497	214	14.75	9.442030466751
42497	225	15	9.8772939209111
42497	236	15.25	10.315404520939
42497	247	15.5	10.756497587458
42497	258	15.75	11.200708441096
42497	269	16	11.648172402475
42497	280	16.25	2.0947737808434
42497	291	16.5	2.1249294988543
42497	302	16.75	2.1475306324451
42497	313	17	2.1644726767108
42497	324	17.25	2.1771670201027
42497	335	17.5	2.1866994097805
42497	346	17.75	2.1938435702742
42497	359	18	2.1991899836382
42497	372	18.25	2.2032173305892
42497	385	18.5	2.2062195571319
42497	398	18.75	2.2084782500402
42497	411	19	2.2101757986265
42497	424	19.25	2.2114380864648
42497	437	19.5	2.2123919536369
42497	450	19.75	2.2131073382679
42497	463	20	2.2136547191061
42497	476	20.25	2.2140472471723
42497	489	20.5	2.2143560534917
42497	504	20.75	2.214580477755
42497	521	21	2.2147487950806
42497	538	21.25	2.2148605644415
42497	555	21.5	2.2149732170189
42497	572	21.75	2.2150288804807
42497	589	22	2.215084985661
42497	606	22.25	2.2151415326007
42497	623	22.5	2.215169585125
42497	640	22.75	2.215183390453
42497	657	23	2.2151973062365
42497	674	23.25	2.2152113324779
42497	693	23.5	2.2152254691799
42497	712	23.75	2.2152252482484
42497	731	24	2.2152394954118
42497	750	24.25	2.2152393849452
42497	769	24.5	2.2152537425734
42497	788	24.75	2.2152537425734
42497	807	25	2.2152537425734
42497	828	25.25	2.2152537425734
42497	851	25.5	2.2152537425734
42497	874	25.75	2.2152537425734
42497	897	26	2.2152537425734
42497	920	26.25	2.2152537425734
42497	945	26.5	2.2152537425734
42497	970	26.75	2.2152537425734
42497	995	27	2.2152537425734
42497	1020	27.25	2.2152537425734
42497	1045	27.5	2.2152537425734
42497	1070	27.75	2.2152537425734
42497	1095	28	2.2152537425734
42497	1120	28.25	2.2152537425734
42497	1145	28.5	2.2152537425734
42497	1170	28.75	2.2152537425734
42497	1195	29	2.2152537425734
42497	1220	29.25	0.973
42497	1245	29.5	0.973
42497	1270	29.75	0.973
42497	1295	30	0.973
42497	1320	30.25	0.973
42497	1344	30.5	0.973
42497	1367	30.75	0.973
42497	1390	31	0.973
42497	1413	31.25	0.973
42497	1436	31.5	0.973
42497	1459	31.75	0.973
42497	1484	32	0.973
42497	1509	32.25	1.4648455459863
42497	1534	32.5	3.1704179018075
42497	1558	32.75	5.1330756708476
42497	1581	33	0.973
42497	1604	33.25	1.47936595584
42497	1627	33.5	1.47936595584
42497	1650	33.75	1.47936595584
42497	1675	34	1.47936595584
42497	1700	34.25	1.47936595584
42497	1725	34.5	1.47936595584
42497	1750	34.75	1.47936595584
42497	1775	35	1.47936595584
42497	1800	35.25	1.47936595584
42497	1825	35.5	1.47936595584
42497	1849	35.75	3.24219357038
42497	1872	36	5.26236092522
42497	1895	36.25	6.6142134161825
42497	1918	36.5	7.03400420352
42497	1941	36.75	7.4557436078575
42497	1964	37	7.87956694982
42497	1987	37.25	8.3056095500325
42497	2010	37.5	8.73400672912
42497	2033	37.75	9.1648938077075
42497	2056	38	9.59840610642
42497	2079	38.25	10.034678945883
42497	2102	38.5	10.47384764672
42497	2126	38.75	10.916047529558
42497	2149	39	11.36141391502
42497	2172	39.25	11.810082123732
42497	2197	39.5	1.2558276196638
42497	2222	39.75	1.4978972196588
42497	2247	40	1.6784816626186
42497	2272	40.25	1.8133844446318
42497	2297	40.5	1.9142433109365
42497	2322	40.75	1.9897181688488
42497	2347	41	2.046227054717
42497	2371	41.25	2.0885540111735
42497	2394	41.5	2.1202612150027
42497	2417	41.75	2.1440459729269
42497	2440	42	2.1618604313408
42497	2463	42.25	2.1752013262483
42497	2486	42.5	2.1852255187412
42497	2509	42.75	2.1927347475751
42497	2532	43	2.1983620768453
42497	2555	43.25	2.2025856157084
42497	2578	43.5	2.2057565786194
42497	2601	43.75	2.2081274201161
42497	2624	44	2.2099090434359
42497	2647	44.25	2.2112415888448
42497	2669	44.5	2.2122517908426
42497	2690	44.75	2.2130094800126
42497	2711	45	2.213570558108
42497	2732	45.25	2.2139913612304
42497	2757	45.5	2.2142997263994
42497	2782	45.75	2.2145381774589
42497	2807	46	2.2147206318098
42497	2832	46.25	2.2148466485139
42497	2857	46.5	2.2149447225545
42497	2882	46.75	2.2150291013882
42497	2907	47	2.2150852065754
42497	2932	47.25	2.2151272854112
42497	2957	47.5	2.215155227481
42497	2982	47.75	2.215183390453
42497	3007	48	2.2151973062365
42497	3032	48.25	2.2152113324779
42497	3057	48.5	2.2152254691799
42497	3081	48.75	2.2152252482484
42497	3104	49	2.2152394954118
42497	3127	49.25	2.2152393849452
42497	3150	49.5	2.2152537425734
42497	3173	49.75	2.2152537425734
42497	3196	50	2.2152537425734
42497	3221	50.25	2.2152537425734
42497	3248	50.5	2.2152537425734
42497	3274	50.75	2.2152537425734
42497	3301	51	2.2152537425734
42497	3328	51.25	2.2152537425734
42497	3355	51.5	2.2152537425734
42497	3382	51.75	2.2152537425734
42497	3409	52	2.2152537425734
42496	134	12.25	2.5
42496	141	12.5	2.5
42496	148	12.75	2.5
42496	155	13	2.4999980926514
42496	162	13.25	2.5
42496	169	13.5	2.5
42496	176	13.75	2.5
42496	185	14	2.5
42496	194	14.25	2.5
42496	203	14.5	2.5
42496	214	14.75	2.5
42496	225	15	2.5
42496	236	15.25	2.5
42496	247	15.5	2.5
42496	258	15.75	2.5
42496	269	16	2.5
42496	280	16.25	-0.03271484375
42496	291	16.5	-0.0245361328125
42496	302	16.75	-0.018402099609375
42496	313	17	-0.013801574707031
42496	324	17.25	-0.010353088378906
42496	335	17.5	-0.0077629089355469
42496	346	17.75	-0.0058212280273438
42496	359	18	-0.0043678283691406
42496	372	18.25	-0.0032730102539062
42496	385	18.5	-0.0024566650390625
42496	398	18.75	-0.0018424987792969
42496	411	19	-0.0013809204101562
42496	424	19.25	-0.00103759765625
42496	437	19.5	-0.0007781982421875
42496	450	19.75	-0.00058364868164062
42496	463	20	-0.00043487548828125
42496	476	20.25	-0.00032806396484375
42496	489	20.5	-0.000244140625
42496	504	20.75	-0.00018310546875
42496	521	21	-0.0001373291015625
42496	538	21.25	-0.0001068115234375
42496	555	21.5	-7.62939453125e-005
42496	572	21.75	-6.103515625e-005
42496	589	22	-4.57763671875e-005
42496	606	22.25	-3.0517578125e-005
42496	623	22.5	-2.288818359375e-005
42496	640	22.75	-1.9073486328125e-005
42496	657	23	-1.52587890625e-005
42496	674	23.25	-1.1444091796875e-005
42496	693	23.5	-7.62939453125e-006
42496	712	23.75	-7.62939453125e-006
42496	731	24	-3.814697265625e-006
42496	750	24.25	-3.814697265625e-006
42496	769	24.5	0
42496	788	24.75	0
42496	807	25	0
42496	828	25.25	0
42496	851	25.5	0
42496	874	25.75	0
42496	897	26	0
42496	920	26.25	0
42496	945	26.5	0
42496	970	26.75	0
42496	995	27	0
42496	1020	27.25	0
42496	1045	27.5	0
42496	1070	27.75	0
42496	1095	28	0
42496	1120	28.25	0
42496	1145	28.5	0
42496	1170	28.75	0
42496	1195	29	0
42496	1220	29.25	-2.7724952697754
42496	1245	29.5	-2.7919921875
42496	1270	29.75	-2.8204002380371
42496	1295	30	-2.8504524230957
42496	1320	30.25	-2.8823585510254
42496	1344	30.5	-2.916374206543
42496	1367	30.75	-2.952808380127
42496	1390	31	-2.9920425415039
42496	1413	31.25	-3.0345611572266
42496	1436	31.5	-3.080982208252
42496	1459	31.75	-3.1321144104004
42496	1484	32	-3.1890468597412
42496	1509	32.25	0
42496	1534	32.5	1
42496	1558	32.75	2
42496	1581	33	-2.0535182952881
42496	1604	33.25	0
42496	1627	33.5	0
42496	1650	33.75	0
42496	1675	34	0
42496	1700	34.25	0
42496	1725	34.5	0
42496	1750	34.75	0
42496	1775	35	0
42496	1800	35.25	0
42496	1825	35.5	0
42496	1849	35.75	1
42496	1872	36	2
42496	1895	36.25	2.5
42496	1918	36.5	2.5
42496	1941	36.75	2.5
42496	1964	37	2.5
42496	1987	37.25	2.5
42496	2010	37.5	2.5
42496	2033	37.75	2.5
42496	2056	38	2.5
42496	2079	38.25	2.5
42496	2102	38.5	2.5
42496	2126	38.75	2.5
42496	2149	39	2.5
42496	2172	39.25	2.5
42496	2197	39.5	-0.25771331787109
42496	2222	39.75	-0.19328689575195
42496	2247	40	-0.14496612548828
42496	2272	40.25	-0.10872268676758
42496	2297	40.5	-0.08154296875
42496	2322	40.75	-0.0611572265625
42496	2347	41	-0.045867919921875
42496	2371	41.25	-0.034400939941406
42496	2394	41.5	-0.025802612304688
42496	2417	41.75	-0.01934814453125
42496	2440	42	-0.014511108398438
42496	2463	42.25	-0.010887145996094
42496	2486	42.5	-0.0081634521484375
42496	2509	42.75	-0.0061225891113281
42496	2532	43	-0.0045928955078125
42496	2555	43.25	-0.0034446716308594
42496	2578	43.5	-0.0025825500488281
42496	2601	43.75	-0.0019378662109375
42496	2624	44	-0.0014533996582031
42496	2647	44.25	-0.0010910034179688
42496	2669	44.5	-0.00081634521484375
42496	2690	44.75	-0.0006103515625
42496	2711	45	-0.000457763671875
42496	2732	45.25	-0.00034332275390625
42496	2757	45.5	-0.0002593994140625
42496	2782	45.75	-0.00019454956054688
42496	2807	46	-0.00014495849609375
42496	2832	46.25	-0.00011062622070312
42496	2857	46.5	-8.392333984375e-005
42496	2882	46.75	-6.103515625e-005
42496	2907	47	-4.57763671875e-005
42496	2932	47.25	-3.4332275390625e-005
42496	2957	47.5	-2.6702880859375e-005
42496	2982	47.75	-1.9073486328125e-005
42496	3007	48	-1.52587890625e-005
42496	3032	48.25	-1.1444091796875e-005
42496	3057	48.5	-7.62939453125e-006
42496	3081	48.75	-7.62939453125e-006
42496	3104	49	-3.814697265625e-006
42496	3127	49.25	-3.814697265625e-006
42496	3150	49.5	0
42496	3173	49.75	0
42496	3196	50	0
42496	3221	50.25	0
42496	3248	50.5	0
42496	3274	50.75	0
42496	3301	51	0
42496	3328	51.25	0
42496	3355	51.5	0
42496	3382	51.75	0
42496	3409	52	0
42495	127	12	5.6500000953674
42495	134	12.25	6.2750000953674
42495	141	12.5	6.9000000953674
42495	148	12.75	7.5250000953674
42495	155	13	8.1499996185303
42495	162	13.25	8.7749996185303
42495	169	13.5	9.3999996185303
42495	176	13.75	10.02499961853
42495	185	14	10.64999961853
42495	194	14.25	11.27499961853
42495	203	14.5	11.89999961853
42495	214	14.75	12.52499961853
42495	225	15	13.14999961853
42495	236	15.25	13.77499961853
42495	247	15.5	14.39999961853
42495	258	15.75	15.02499961853
42495	269	16	15.64999961853
42495	280	16.25	15.641820907593
42495	291	16.5	15.63568687439
42495	302	16.75	15.631086349487
42495	313	17	15.627635955811
42495	324	17.25	15.625047683716
42495	335	17.5	15.623106956482
42495	346	17.75	15.621651649475
42495	359	18	15.620559692383
42495	372	18.25	15.619741439819
42495	385	18.5	15.61912727356
42495	398	18.75	15.618666648865
42495	411	19	15.618321418762
42495	424	19.25	15.618062019348
42495	437	19.5	15.617867469788
42495	450	19.75	15.617721557617
42495	463	20	15.617612838745
42495	476	20.25	15.617530822754
42495	489	20.5	15.617469787598
42495	504	20.75	15.61742401123
42495	521	21	15.617389678955
42495	538	21.25	15.617362976074
42495	555	21.5	15.617343902588
42495	572	21.75	15.617328643799
42495	589	22	15.617317199707
42495	606	22.25	15.617309570312
42495	623	22.5	15.617303848267
42495	640	22.75	15.617299079895
42495	657	23	15.617295265198
42495	674	23.25	15.617292404175
42495	693	23.5	15.617290496826
42495	712	23.75	15.617288589478
42495	731	24	15.617287635803
42495	750	24.25	15.617286682129
42495	769	24.5	15.617286682129
42495	788	24.75	15.617286682129
42495	807	25	15.617286682129
42495	828	25.25	15.617286682129
42495	851	25.5	15.617286682129
42495	874	25.75	15.617286682129
42495	897	26	15.617286682129
42495	920	26.25	15.617286682129
42495	945	26.5	15.617286682129
42495	970	26.75	15.617286682129
42495	995	27	15.617286682129
42495	1020	27.25	15.617286682129
42495	1045	27.5	15.617286682129
42495	1070	27.75	15.617286682129
42495	1095	28	15.617286682129
42495	1120	28.25	15.617286682129
42495	1145	28.5	15.617286682129
42495	1170	28.75	15.617286682129
42495	1195	29	15.617286682129
42495	1220	29.25	14.924162864685
42495	1245	29.5	14.22616481781
42495	1270	29.75	13.521064758301
42495	1295	30	12.808451652527
42495	1320	30.25	12.087862014771
42495	1344	30.5	11.358768463135
42495	1367	30.75	10.620566368103
42495	1390	31	9.8725557327271
42495	1413	31.25	9.1139154434204
42495	1436	31.5	8.3436698913574
42495	1459	31.75	7.5606412887573
42495	1484	32	6.763379573822
42495	1509	32.25	6.763379573822
42495	1534	32.5	7.013379573822
42495	1558	32.75	7.513379573822
42495	1581	33	7
42495	1604	33.25	7
42495	1627	33.5	7
42495	1650	33.75	7
42495	1675	34	7
42495	1700	34.25	7
42495	1725	34.5	7
42495	1750	34.75	7
42495	1775	35	7
42495	1800	35.25	7
42495	1825	35.5	7
42495	1849	35.75	7.25
42495	1872	36	7.75
42495	1895	36.25	8.375
42495	1918	36.5	9
42495	1941	36.75	9.625
42495	1964	37	10.25
42495	1987	37.25	10.875
42495	2010	37.5	11.5
42495	2033	37.75	12.125
42495	2056	38	12.75
42495	2079	38.25	13.375
42495	2102	38.5	14
42495	2126	38.75	14.625
42495	2149	39	15.25
42495	2172	39.25	15.875
42495	2197	39.5	15.810571670532
42495	2222	39.75	15.762249946594
42495	2247	40	15.726008415222
42495	2272	40.25	15.69882774353
42495	2297	40.5	15.678442001343
42495	2322	40.75	15.663152694702
42495	2347	41	15.651685714722
42495	2371	41.25	15.643085479736
42495	2394	41.5	15.63663482666
42495	2417	41.75	15.631797790527
42495	2440	42	15.628170013428
42495	2463	42.25	15.625448226929
42495	2486	42.5	15.623407363892
42495	2509	42.75	15.621876716614
42495	2532	43	15.620728492737
42495	2555	43.25	15.619867324829
42495	2578	43.5	15.619221687317
42495	2601	43.75	15.618737220764
42495	2624	44	15.61837387085
42495	2647	44.25	15.618101119995
42495	2669	44.5	15.617897033691
42495	2690	44.75	15.617744445801
42495	2711	45	15.617630004883
42495	2732	45.25	15.617544174194
42495	2757	45.5	15.617479324341
42495	2782	45.75	15.617430686951
42495	2807	46	15.617394447327
42495	2832	46.25	15.617366790771
42495	2857	46.5	15.617345809937
42495	2882	46.75	15.617330551147
42495	2907	47	15.617319107056
42495	2932	47.25	15.617310523987
42495	2957	47.5	15.617303848267
42495	2982	47.75	15.617299079895
42495	3007	48	15.617295265198
42495	3032	48.25	15.617292404175
42495	3057	48.5	15.617290496826
42495	3081	48.75	15.617288589478
42495	3104	49	15.617287635803
42495	3127	49.25	15.617286682129
42495	3150	49.5	15.617286682129
42495	3173	49.75	15.617286682129
42495	3196	50	15.617286682129
42495	3221	50.25	15.617286682129
42495	3248	50.5	15.617286682129
42495	3274	50.75	15.617286682129
42495	3301	51	15.617286682129
42495	3328	51.25	15.617286682129
42495	3355	51.5	15.617286682129
42495	3382	51.75	15.617286682129
42495	3409	52	15.617286682129
42494	120	11.75	184.17810058594
42494	127	12	184.17810058594
42494	134	12.25	185.51251220703
42494	141	12.5	187.00311279297
42494	148	12.75	188.65002441406
42494	155	13	190.453125
42494	162	13.25	192.41247558594
42494	169	13.5	194.52813720703
42494	176	13.75	196.79998779297
42494	185	14	199.22808837891
42494	194	14.25	201.8125
42494	203	14.5	204.55310058594
42494	214	14.75	207.45001220703
42494	225	15	210.50311279297
42494	236	15.25	213.71246337891
42494	247	15.5	217.078125
42494	258	15.75	220.59997558594
42494	269	16	224.27813720703
42494	280	16.25	228.11248779297
42494	291	16.5	232.02294921875
42494	302	16.75	235.93188476562
42494	313	17	239.83966064453
42494	324	17.25	243.74700927734
42494	335	17.5	247.65356445312
42494	346	17.75	251.55963134766
42494	359	18	255.46520996094
42494	372	18.25	259.37048339844
42494	385	18.5	263.27551269531
42494	398	18.75	267.18035888672
42494	411	19	271.08508300781
42494	424	19.25	274.98974609375
42494	437	19.5	278.89428710938
42494	450	19.75	282.79876708984
42494	463	20	286.70318603516
42494	476	20.25	290.60760498047
42494	489	20.5	294.51202392578
42494	504	20.75	298.41638183594
42494	521	21	302.32073974609
42494	538	21.25	306.22509765625
42494	555	21.5	310.12945556641
42494	572	21.75	314.03381347656
42494	589	22	317.93811035156
42494	606	22.25	321.84246826172
42494	623	22.5	325.74676513672
42494	640	22.75	329.65112304688
42494	657	23	333.55541992188
42494	674	23.25	337.45977783203
42494	693	23.5	341.36407470703
42494	712	23.75	345.26843261719
42494	731	24	349.17272949219
42494	750	24.25	353.07702636719
42494	769	24.5	356.98138427734
42494	788	24.75	360.88568115234
42494	807	25	364.79000854492
42494	828	25.25	368.6943359375
42494	851	25.5	372.59866333008
42494	874	25.75	376.50299072266
42494	897	26	380.40731811523
42494	920	26.25	384.31164550781
42494	945	26.5	388.21597290039
42494	970	26.75	392.12026977539
42494	995	27	396.02459716797
42494	1020	27.25	399.92892456055
42494	1045	27.5	403.83325195312
42494	1070	27.75	407.7375793457
42494	1095	28	411.6418762207
42494	1120	28.25	415.54620361328
42494	1145	28.5	419.45053100586
42494	1170	28.75	423.35485839844
42494	1195	29	427.25918579102
42494	1220	29.25	431.16351318359
42494	1245	29.5	434.89456176758
42494	1270	29.75	438.5383605957
42494	1295	30	442.00674438477
42494	1320	30.25	445.29794311523
42494	1344	30.5	448.40997314453
42494	1367	30.75	451.3408203125
42494	1390	31	454.08822631836
42494	1413	31.25	456.64987182617
42494	1436	31.5	459.02319335938
42494	1459	31.75	461.20538330078
42494	1484	32	463.19342041016
42494	1509	32.25	464.98391723633
42494	1534	32.5	466.67477416992
42494	1558	32.75	468.39685058594
42494	1581	33	470.21270751953
42494	1604	33.25	471.96109008789
42494	1627	33.5	473.69284057617
42494	1650	33.75	475.38433837891
42494	1675	34	477.015625
42494	1700	34.25	478.57064819336
42494	1725	34.5	480.04034423828
42494	1750	34.75	481.38665771484
42494	1775	35	482.46719360352
42494	1800	35.25	483.02154541016
42494	1825	35.5	483.06768798828
42494	1849	35.75	483.14999389648
42494	1872	36	483.14999389648
42494	1895	36.25	483.14999389648
42494	1918	36.5	483.14999389648
42494	1941	36.75	483.14999389648
42494	1964	37	483.14999389648
42494	1987	37.25	483.14999389648
42494	2010	37.5	483.14999389648
42494	2033	37.75	483.14999389648
42494	2056	38	483.14999389648
42494	2079	38.25	483.14999389648
42494	2102	38.5	483.14999389648
42494	2126	38.75	483.14999389648
42494	2149	39	483.14999389648
42494	2172	39.25	483.14999389648
42494	2197	39.5	483.14999389648
42494	2222	39.75	483.14999389648
42494	2247	40	483.14999389648
42494	2272	40.25	483.14999389648
42494	2297	40.5	483.14999389648
42494	2322	40.75	483.14999389648
42494	2347	41	483.14999389648
42494	2371	41.25	483.14999389648
42494	2394	41.5	483.14999389648
42494	2417	41.75	483.14999389648
42494	2440	42	483.14999389648
42494	2463	42.25	483.14999389648
42494	2486	42.5	483.14999389648
42494	2509	42.75	483.14999389648
42494	2532	43	483.14999389648
42494	2555	43.25	483.14999389648
42494	2578	43.5	483.14999389648
42494	2601	43.75	483.14999389648
42494	2624	44	483.14999389648
42494	2647	44.25	483.14999389648
42494	2669	44.5	483.14999389648
42494	2690	44.75	483.14999389648
42494	2711	45	483.14999389648
42494	2732	45.25	483.14999389648
42494	2757	45.5	483.14999389648
42494	2782	45.75	483.14999389648
42494	2807	46	483.14999389648
42494	2832	46.25	483.14999389648
42494	2857	46.5	483.14999389648
42494	2882	46.75	483.14999389648
42494	2907	47	483.14999389648
42494	2932	47.25	483.14999389648
42494	2957	47.5	483.14999389648
42494	2982	47.75	483.14999389648
42494	3007	48	483.14999389648
42494	3032	48.25	483.14999389648
42494	3057	48.5	483.14999389648
42494	3081	48.75	483.14999389648
42494	3104	49	483.14999389648
42494	3127	49.25	483.14999389648
42494	3150	49.5	483.14999389648
42494	3173	49.75	483.14999389648
42494	3196	50	483.14999389648
42494	3221	50.25	483.14999389648
42494	3248	50.5	483.14999389648
42494	3274	50.75	483.14999389648
42494	3301	51	483.14999389648
42494	3328	51.25	483.14999389648
42494	3355	51.5	483.14999389648
42494	3382	51.75	483.14999389648
42494	3409	52	483.14999389648
42493	120	11.75	486.85000610352
42493	127	12	486.85000610352
42493	134	12.25	486.85000610352
42493	141	12.5	486.85000610352
42493	148	12.75	486.85000610352
42493	155	13	486.85000610352
42493	162	13.25	486.85000610352
42493	169	13.5	486.85000610352
42493	176	13.75	486.85000610352
42493	185	14	486.85000610352
42493	194	14.25	486.85000610352
42493	203	14.5	486.85000610352
42493	214	14.75	486.85000610352
42493	225	15	486.85000610352
42493	236	15.25	486.85000610352
42493	247	15.5	486.85000610352
42493	258	15.75	486.85000610352
42493	269	16	486.85000610352
42493	280	16.25	486.85000610352
42493	291	16.5	486.85000610352
42493	302	16.75	486.85000610352
42493	313	17	486.85000610352
42493	324	17.25	486.85000610352
42493	335	17.5	486.85000610352
42493	346	17.75	486.85000610352
42493	359	18	486.85000610352
[...]
42644	4431	60.5	6.8826618500064
42644	4458	60.75	7.303684162087
42644	4487	61	7.726741696285
42644	4516	61.25	8.1519697732254
42644	4545	61.5	8.5795037135332
42644	4574	61.75	9.0094788378334
42644	4603	62	9.442030466751
42644	4632	62.25	9.8772939209111
42644	4661	62.5	10.315404520939
42644	4690	62.75	10.756497587458
42644	4719	63	11.200708441096
42644	4750	63.25	3.2251976637691
42644	4781	63.5	3.2378814029424
42644	4812	63.75	3.2501689251336
42644	4842	64	3.2620489970655
42644	4871	64.25	3.2735103406375
42644	4900	64.5	3.2845272470194
42644	4929	64.75	3.2951169131299
42644	4960	65	3.3052538208855
42644	4991	65.25	2.0829077540272
42644	5022	65.5	2.1147966358157
42644	5053	65.75	2.138713661408
42644	5084	66	2.1566343577162
42644	5115	66.25	2.1700657001256
42644	5146	66.5	2.1801468709475
42644	5177	66.75	2.1876916078606
42644	5210	67	2.1933599384972
42644	5243	67.25	2.1976142632087
42644	5276	67.5	2.2007903174943
42644	5309	67.75	2.2031829495898
42644	5342	68	2.0001240369404
42644	5377	68.25	3.0366703448797
42644	5411	68.5	2.0555987659915
42644	5446	68.75	2.0943447244538
42644	5481	69	1.9348298193684
42644	5515	69.25	1.3045463505276
42644	5548	69.5	0.973
42644	5583	69.75	0.973
42644	5618	70	1.821697162738
42644	5653	70.25	0.973
42647	4458	60.75	184.17810058594
42647	4487	61	184.17810058594
42647	4516	61.25	185.51251220703
42647	4545	61.5	187.00311279297
42647	4574	61.75	188.65002441406
42647	4603	62	190.453125
42647	4632	62.25	192.41247558594
42647	4661	62.5	194.52813720703
42647	4690	62.75	196.79998779297
42647	4719	63	199.22808837891
42647	4750	63.25	201.8125
42647	4781	63.5	204.55310058594
42647	4812	63.75	207.45001220703
42647	4842	64	210.50311279297
42647	4871	64.25	213.71246337891
42647	4900	64.5	217.078125
42647	4929	64.75	220.59997558594
42647	4960	65	224.20916748047
42647	4991	65.25	227.83666992188
42647	5022	65.5	231.49163818359
42647	5053	65.75	235.16485595703
42647	5084	66	238.85632324219
42647	5115	66.25	242.56591796875
42647	5146	66.5	246.28460693359
42647	5177	66.75	250.02136230469
42647	5210	67	253.77618408203
42647	5243	67.25	257.54888916016
42647	5276	67.5	261.33953857422
42647	5309	67.75	265.14794921875
42647	5342	68	268.97399902344
42647	5377	68.25	272.81329345703
42647	5411	68.5	276.65655517578
42647	5446	68.75	280.49914550781
42647	5481	69	284.34130859375
42647	5515	69.25	288.18304443359
42647	5548	69.5	292.02453613281
42647	5583	69.75	295.86584472656
42647	5618	70	299.70697021484
42647	5653	70.25	303.54797363281
42648	4458	60.75	483.14999389648
42648	4487	61	483.14999389648
42648	4516	61.25	483.14999389648
42648	4545	61.5	483.14999389648
42648	4574	61.75	483.14999389648
42648	4603	62	483.14999389648
42648	4632	62.25	483.14999389648
42648	4661	62.5	483.14999389648
42648	4690	62.75	483.14999389648
42648	4719	63	483.14999389648
42648	4750	63.25	483.14999389648
42648	4781	63.5	483.14999389648
42648	4812	63.75	483.14999389648
42648	4842	64	483.14999389648
42648	4871	64.25	483.14999389648
42648	4900	64.5	483.14999389648
42648	4929	64.75	483.14999389648
42648	4960	65	483.14999389648
42648	4991	65.25	483.14999389648
42648	5022	65.5	483.14999389648
42648	5053	65.75	483.14999389648
42648	5084	66	483.14999389648
42648	5115	66.25	483.14999389648
42648	5146	66.5	483.14999389648
42648	5177	66.75	483.14999389648
42648	5210	67	483.14999389648
42648	5243	67.25	483.14999389648
42648	5276	67.5	483.14999389648
42648	5309	67.75	483.14999389648
42648	5342	68	483.14999389648
42648	5377	68.25	483.14999389648
42648	5411	68.5	483.14999389648
42648	5446	68.75	483.14999389648
42648	5481	69	483.14999389648
42648	5515	69.25	483.14999389648
42648	5548	69.5	483.14999389648
42648	5583	69.75	483.14999389648
42648	5618	70	483.14999389648
42648	5653	70.25	483.14999389648
42649	4487	61	5.6500000953674
42649	4516	61.25	6.2750000953674
42649	4545	61.5	6.9000000953674
42649	4574	61.75	7.5250000953674
42649	4603	62	8.1499996185303
42649	4632	62.25	8.7749996185303
42649	4661	62.5	9.3999996185303
42649	4690	62.75	10.02499961853
42649	4719	63	10.64999961853
42649	4750	63.25	11.27499961853
42649	4781	63.5	11.89999961853
42649	4812	63.75	12.52499961853
42649	4842	64	13.14999961853
42649	4871	64.25	13.77499961853
42649	4900	64.5	14.39999961853
42649	4929	64.75	14.473359107971
42649	4960	65	14.546647071838
42649	4991	65.25	14.619832992554
42649	5022	65.5	14.692888259888
42649	5053	65.75	14.765782356262
42649	5084	66	14.838486671448
42649	5115	66.25	14.910970687866
42649	5146	66.5	14.983205795288
42649	5177	66.75	15.05516242981
42649	5210	67	15.126811981201
42649	5243	67.25	15.198123931885
42649	5276	67.5	15.269070625305
42649	5309	67.75	15.339622497559
42649	5342	68	15.374531745911
42649	5377	68.25	15.371562957764
42649	5411	68.5	15.369336128235
42649	5446	68.75	15.367666244507
42649	5481	69	15.366413116455
42649	5515	69.25	15.365473747253
42649	5548	69.5	15.364768981934
42649	5583	69.75	15.364240646362
42649	5618	70	15.363843917847
42649	5653	70.25	15.348001480103
42650	4516	61.25	2.5
42650	4545	61.5	2.5
42650	4574	61.75	2.5
42650	4603	62	2.4999980926514
42650	4632	62.25	2.5
42650	4661	62.5	2.5
42650	4690	62.75	2.5
42650	4719	63	2.5
42650	4750	63.25	2.5
42650	4781	63.5	2.5
42650	4812	63.75	2.5
42650	4842	64	2.5
42650	4871	64.25	2.5
42650	4900	64.5	2.5
42650	4929	64.75	0.29343795776367
42650	4960	65	0.29315185546875
42650	4991	65.25	0.29274368286133
42650	5022	65.5	0.29222106933594
42650	5053	65.75	0.29157638549805
42650	5084	66	0.29081726074219
42650	5115	66.25	0.28993606567383
42650	5146	66.5	0.2889404296875
42650	5177	66.75	0.28782653808594
42650	5210	67	0.28659820556641
42650	5243	67.25	0.28524780273438
42650	5276	67.5	0.28378677368164
42650	5309	67.75	0.28220748901367
42650	5342	68	0.1396369934082
42650	5377	68.25	-0.011875152587891
42650	5411	68.5	-0.0089073181152344
42650	5446	68.75	-0.0066795349121094
42650	5481	69	-0.0050125122070312
42650	5515	69.25	-0.0037574768066406
42650	5548	69.5	-0.0028190612792969
42650	5583	69.75	-0.0021133422851562
42650	5618	70	-0.0015869140625
42650	5653	70.25	-0.063369750976562
42651	4516	61.25	5.2162187258585
42651	4545	61.5	5.6304533568076
42651	4574	61.75	6.0461819274774
42651	4603	62	6.4635356930995
42651	4632	62.25	6.8826618500064
42651	4661	62.5	7.303684162087
42651	4690	62.75	7.726741696285
42651	4719	63	8.1519697732254
42651	4750	63.25	8.5795037135332
42651	4781	63.5	9.0094788378334
42651	4812	63.75	9.442030466751
42651	4842	64	9.8772939209111
42651	4871	64.25	10.315404520939
42651	4900	64.5	10.756497587458
42651	4929	64.75	3.1118088840099
42651	4960	65	3.1238003575254
42651	4991	65.25	3.1353767614683
42651	5022	65.5	3.1465536118523
42651	5053	65.75	3.1572922866019
42651	5084	66	3.1676085065561
42651	5115	66.25	3.1774633320461
42651	5146	66.5	3.1868727193352
42651	5177	66.75	3.1958114580126
42651	5210	67	3.2042820623803
42651	5243	67.25	3.2122450603298
42651	5276	67.5	3.2197311816749
42651	5309	67.75	3.2267011097165
42651	5342	68	2.7047799830238
42651	5377	68.25	2.1430586018069
42651	5411	68.5	2.1538046422889
42651	5446	68.75	2.1618692006999
42651	5481	69	2.1679022509332
42651	5515	69.25	2.1724440980387
42651	5548	69.5	2.1758394943391
42651	5583	69.75	2.1783929246166
42651	5618	70	2.1802972334607
42651	5653	70.25	1.9499771688457
42654	4719	63	483.14999389648
42654	4750	63.25	483.14999389648
42654	4781	63.5	483.14999389648
42654	4812	63.75	483.14999389648
42654	4842	64	483.14999389648
42654	4871	64.25	483.14999389648
42654	4900	64.5	483.14999389648
42654	4929	64.75	483.14999389648
42654	4960	65	483.14999389648
42654	4991	65.25	483.14999389648
42654	5022	65.5	483.14999389648
42654	5053	65.75	483.14999389648
42654	5084	66	483.14999389648
42654	5115	66.25	483.14999389648
42654	5146	66.5	483.14999389648
42654	5177	66.75	483.14999389648
42654	5210	67	483.14999389648
42654	5243	67.25	483.14999389648
42654	5276	67.5	483.14999389648
42654	5309	67.75	483.14999389648
42654	5342	68	483.14999389648
42654	5377	68.25	483.14999389648
42654	5411	68.5	483.14999389648
42654	5446	68.75	483.14999389648
42654	5481	69	483.14999389648
42654	5515	69.25	483.14999389648
42654	5548	69.5	483.14999389648
42654	5583	69.75	483.14999389648
42654	5618	70	483.14999389648
42654	5653	70.25	483.14999389648
42655	4719	63	785.82187652588
42655	4750	63.25	785.82187652588
42655	4781	63.5	784.48750305176
42655	4812	63.75	782.99687957764
42655	4842	64	781.35000610352
42655	4871	64.25	779.54688262939
42655	4900	64.5	777.58750915527
42655	4929	64.75	775.47188568115
42655	4960	65	773.20001220703
42655	4991	65.25	770.77188873291
42655	5022	65.5	768.18751525879
42655	5053	65.75	765.44688415527
42655	5084	66	762.55001068115
42655	5115	66.25	759.49688720703
42655	5146	66.5	756.28750610352
42655	5177	66.75	752.92188262939
42655	5210	67	749.40000915527
42655	5243	67.25	745.72188568115
42655	5276	67.5	741.88751220703
42655	5309	67.75	737.81875610352
42655	5342	68	733.75132751465
42655	5377	68.25	729.68489074707
42655	5411	68.5	725.61883544922
42655	5446	68.75	721.55342102051
42655	5481	69	717.48847961426
42655	5515	69.25	713.42393493652
42655	5548	69.5	709.3596496582
42655	5583	69.75	705.29556274414
42655	5618	70	701.23162841797
42655	5653	70.25	697.1678314209
42656	4750	63.25	5.6500000953674
42656	4781	63.5	6.2750000953674
42656	4812	63.75	6.9000000953674
42656	4842	64	7.5250000953674
42656	4871	64.25	8.1499996185303
42656	4900	64.5	8.7749996185303
42656	4929	64.75	9.3999996185303
42656	4960	65	10.02499961853
42656	4991	65.25	10.64999961853
42656	5022	65.5	11.27499961853
42656	5053	65.75	11.89999961853
42656	5084	66	12.52499961853
42656	5115	66.25	13.14999961853
42656	5146	66.5	13.77499961853
42656	5177	66.75	14.39999961853
42656	5210	67	15.02499961853
42656	5243	67.25	15.64999961853
42656	5276	67.5	16.27499961853
42656	5309	67.75	16.269714355469
42656	5342	68	16.26575088501
42656	5377	68.25	16.262777328491
42656	5411	68.5	16.260547637939
42656	5446	68.75	16.258874893188
42656	5481	69	16.257621765137
42656	5515	69.25	16.256681442261
42656	5548	69.5	16.255975723267
42656	5583	69.75	16.255447387695
42656	5618	70	16.25505065918
42656	5653	70.25	16.254753112793
42657	4781	63.5	2.5
42657	4812	63.75	2.5
42657	4842	64	2.5
42657	4871	64.25	2.4999980926514
42657	4900	64.5	2.5
42657	4929	64.75	2.5
42657	4960	65	2.5
42657	4991	65.25	2.5
42657	5022	65.5	2.5
42657	5053	65.75	2.5
42657	5084	66	2.5
42657	5115	66.25	2.5
42657	5146	66.5	2.5
42657	5177	66.75	2.5
42657	5210	67	2.5
42657	5243	67.25	2.5
42657	5276	67.5	2.5
42657	5309	67.75	-0.021141052246094
42657	5342	68	-0.015853881835938
42657	5377	68.25	-0.011894226074219
42657	5411	68.5	-0.0089187622070312
42657	5446	68.75	-0.0066909790039062
42657	5481	69	-0.0050125122070312
42657	5515	69.25	-0.0037612915039062
42657	5548	69.5	-0.0028228759765625
42657	5583	69.75	-0.0021133422851562
42657	5618	70	-0.0015869140625
42657	5653	70.25	-0.001190185546875
42658	4781	63.5	5.2162187258585
42658	4812	63.75	5.6304533568076
42658	4842	64	6.0461819274774
42658	4871	64.25	6.4635356930995
42658	4900	64.5	6.8826618500064
42658	4929	64.75	7.303684162087
42658	4960	65	7.726741696285
42658	4991	65.25	8.1519697732254
42658	5022	65.5	8.5795037135332
42658	5053	65.75	9.0094788378334
42658	5084	66	9.442030466751
42658	5115	66.25	9.8772939209111
42658	5146	66.5	10.315404520939
42658	5177	66.75	10.756497587458
42658	5210	67	11.200708441096
42658	5243	67.25	11.648172402475
42658	5276	67.5	12.099024792222
42658	5309	67.75	2.2098006226571
42658	5342	68	2.2300648840499
42658	5377	68.25	2.2452340047832
42658	5411	68.5	2.2566296537184
42658	5446	68.75	2.2651593166577
42658	5481	69	2.2715854663602
42658	5515	69.25	2.2763744742157
42658	5548	69.5	2.2799658055784
42658	5583	69.75	2.2826816293955
42658	5618	70	2.2846959066667
42658	5653	70.25	2.2862140213281
42661	4929	64.75	785.82187652588
42661	4960	65	785.82187652588
42661	4991	65.25	784.48750305176
42661	5022	65.5	782.99687957764
42661	5053	65.75	781.35000610352
42661	5084	66	779.54688262939
42661	5115	66.25	777.58750915527
42661	5146	66.5	775.47188568115
42661	5177	66.75	773.20001220703
42661	5210	67	770.77188873291
42661	5243	67.25	768.18751525879
42661	5276	67.5	765.44688415527
42661	5309	67.75	762.55001068115
42661	5342	68	759.49688720703
42661	5377	68.25	756.28750610352
42661	5411	68.5	752.92188262939
42661	5446	68.75	749.40000915527
42661	5481	69	745.72188568115
42661	5515	69.25	741.97232055664
42661	5548	69.5	738.23948669434
42661	5583	69.75	734.51417541504
42661	5618	70	730.7945098877
42661	5653	70.25	727.07696533203
42662	4929	64.75	486.85000610352
42662	4960	65	486.85000610352
42662	4991	65.25	486.85000610352
42662	5022	65.5	486.85000610352
42662	5053	65.75	486.85000610352
42662	5084	66	486.85000610352
42662	5115	66.25	486.85000610352
42662	5146	66.5	486.85000610352
42662	5177	66.75	486.85000610352
42662	5210	67	486.85000610352
42662	5243	67.25	486.85000610352
42662	5276	67.5	486.85000610352
42662	5309	67.75	486.85000610352
42662	5342	68	486.85000610352
42662	5377	68.25	486.85000610352
42662	5411	68.5	486.85000610352
42662	5446	68.75	486.85000610352
42662	5481	69	486.85000610352
42662	5515	69.25	486.85000610352
42662	5548	69.5	486.85000610352
42662	5583	69.75	486.85000610352
42662	5618	70	486.85000610352
42662	5653	70.25	486.85000610352
42663	4960	65	5.6500000953674
42663	4991	65.25	6.2750000953674
42663	5022	65.5	6.9000000953674
42663	5053	65.75	7.5250000953674
42663	5084	66	8.1499996185303
42663	5115	66.25	8.7749996185303
42663	5146	66.5	9.3999996185303
42663	5177	66.75	10.02499961853
42663	5210	67	10.64999961853
42663	5243	67.25	11.27499961853
42663	5276	67.5	11.89999961853
42663	5309	67.75	12.52499961853
42663	5342	68	13.14999961853
42663	5377	68.25	13.77499961853
42663	5411	68.5	14.39999961853
42663	5446	68.75	15.02499961853
42663	5481	69	14.971488952637
42663	5515	69.25	14.931356430054
42663	5548	69.5	14.901256561279
42663	5583	69.75	14.878682136536
42663	5618	70	14.861751556396
42663	5653	70.25	14.849053382874
42664	4991	65.25	2.5
42664	5022	65.5	2.5
42664	5053	65.75	2.5
42664	5084	66	2.4999980926514
42664	5115	66.25	2.5
42664	5146	66.5	2.5
42664	5177	66.75	2.5
42664	5210	67	2.5
42664	5243	67.25	2.5
42664	5276	67.5	2.5
42664	5309	67.75	2.5
42664	5342	68	2.5
42664	5377	68.25	2.5
42664	5411	68.5	2.5
42664	5446	68.75	2.5
42664	5481	69	-0.21404266357422
42664	5515	69.25	-0.16053009033203
42664	5548	69.5	-0.12039947509766
42664	5583	69.75	-0.090297698974609
42664	5618	70	-0.067722320556641
42664	5653	70.25	-0.050792694091797
42665	4991	65.25	5.2162187258585
42665	5022	65.5	5.6304533568076
42665	5053	65.75	6.0461819274774
42665	5084	66	6.4635356930995
42665	5115	66.25	6.8826618500064
42665	5146	66.5	7.303684162087
42665	5177	66.75	7.726741696285
42665	5210	67	8.1519697732254
42665	5243	67.25	8.5795037135332
42665	5276	67.5	9.0094788378334
42665	5309	67.75	9.442030466751
42665	5342	68	9.8772939209111
42665	5377	68.25	10.315404520939
42665	5411	68.5	10.756497587458
42665	5446	68.75	11.200708441096
42665	5481	69	1.3699353896297
42665	5515	69.25	1.560145980043
42665	5548	69.5	1.7021196234778
42665	5583	69.75	1.8082364059079
42665	5618	70	1.8876084135833
42665	5653	70.25	1.9470112210642
42668	5177	66.75	486.85000610352
42668	5210	67	486.85000610352
42668	5243	67.25	486.85000610352
42668	5276	67.5	486.85000610352
42668	5309	67.75	486.85000610352
42668	5342	68	486.85000610352
42668	5377	68.25	486.85000610352
42668	5411	68.5	486.85000610352
42668	5446	68.75	486.85000610352
42668	5481	69	486.85000610352
42668	5515	69.25	486.85000610352
42668	5548	69.5	486.85000610352
42668	5583	69.75	486.85000610352
42668	5618	70	486.85000610352
42668	5653	70.25	486.85000610352
42669	5177	66.75	184.17810058594
42669	5210	67	184.17810058594
42669	5243	67.25	185.51251220703
42669	5276	67.5	187.00311279297
42669	5309	67.75	188.65002441406
42669	5342	68	190.453125
42669	5377	68.25	192.41247558594
42669	5411	68.5	194.52813720703
42669	5446	68.75	196.79998779297
42669	5481	69	199.22808837891
42669	5515	69.25	201.8125
42669	5548	69.5	204.55310058594
42669	5583	69.75	207.45001220703
42669	5618	70	210.50311279297
42669	5653	70.25	213.71246337891
42670	5210	67	5.6500000953674
42670	5243	67.25	6.2750000953674
42670	5276	67.5	6.9000000953674
42670	5309	67.75	7.5250000953674
42670	5342	68	8.1499996185303
42670	5377	68.25	8.7749996185303
42670	5411	68.5	9.3999996185303
42670	5446	68.75	10.02499961853
42670	5481	69	10.64999961853
42670	5515	69.25	11.27499961853
42670	5548	69.5	11.89999961853
42670	5583	69.75	12.52499961853
42670	5618	70	13.14999961853
42670	5653	70.25	13.77499961853
42671	5243	67.25	2.5
42671	5276	67.5	2.5
42671	5309	67.75	2.5
42671	5342	68	2.4999980926514
42671	5377	68.25	2.5
42671	5411	68.5	2.5
42671	5446	68.75	2.5
42671	5481	69	2.5
42671	5515	69.25	2.5
42671	5548	69.5	2.5
42671	5583	69.75	2.5
42671	5618	70	2.5
42671	5653	70.25	2.5
42672	5243	67.25	5.2162187258585
42672	5276	67.5	5.6304533568076
42672	5309	67.75	6.0461819274774
42672	5342	68	6.4635356930995
42672	5377	68.25	6.8826618500064
42672	5411	68.5	7.303684162087
42672	5446	68.75	7.726741696285
42672	5481	69	8.1519697732254
42672	5515	69.25	8.5795037135332
42672	5548	69.5	9.0094788378334
42672	5583	69.75	9.442030466751
42672	5618	70	9.8772939209111
42672	5653	70.25	10.315404520939
42675	5342	68	797.07032012939
42675	5377	68.25	797.07032012939
42675	5411	68.5	795.73594665527
42675	5446	68.75	794.38500213623
42675	5481	69	793.09562683105
42675	5515	69.25	791.77499389648
42675	5548	69.5	790.36061859131
42675	5583	69.75	788.80561828613
42675	5618	70	787.09436035156
42675	5653	70.25	785.29979705811
42676	5342	68	486.85000610352
42676	5377	68.25	486.85000610352
42676	5411	68.5	486.85000610352
42676	5446	68.75	486.85000610352
42676	5481	69	486.85000610352
42676	5515	69.25	486.85000610352
42676	5548	69.5	486.85000610352
42676	5583	69.75	486.85000610352
42676	5618	70	486.85000610352
42676	5653	70.25	486.85000610352
42677	5377	68.25	5.6500000953674
42677	5411	68.5	5.1575174331665
42677	5446	68.75	5.1575174331665
42677	5481	69	5.4075174331665
42677	5515	69.25	5.9075174331665
42677	5548	69.5	6.5325174331665
42677	5583	69.75	7.1575174331665
42677	5618	70	7.1989622116089
42677	5653	70.25	7.2609357833862
42678	5411	68.5	-1.9699306488037
42678	5446	68.75	0
42678	5481	69	1
42678	5515	69.25	2
42678	5548	69.5	2.5
42678	5583	69.75	2.5
42678	5618	70	0.16577911376953
42678	5653	70.25	0.24789428710938
42679	5411	68.5	0.973
42679	5446	68.75	1.3714720895366
42679	5481	69	2.6886775256066
42679	5515	69.25	4.261447339828
42679	5548	69.5	5.3867225996873
42679	5583	69.75	5.801556383797
42679	5618	70	1.7793617174746
42679	5653	70.25	1.9294172789216
42682	5411	68.5	773.15079498291
42682	5446	68.75	773.15079498291
42682	5481	69	771.81641387939
42682	5515	69.25	770.32579040527
42682	5548	69.5	768.67891693115
42682	5583	69.75	766.87579345703
42682	5618	70	764.91641235352
42682	5653	70.25	762.80078887939
42683	5411	68.5	486.85000610352
42683	5446	68.75	486.85000610352
42683	5481	69	486.85000610352
42683	5515	69.25	486.85000610352
42683	5548	69.5	486.85000610352
42683	5583	69.75	486.85000610352
42683	5618	70	486.85000610352
42683	5653	70.25	486.85000610352
42684	5446	68.75	5.6500000953674
42684	5481	69	6.2750000953674
42684	5515	69.25	6.9000000953674
42684	5548	69.5	7.5250000953674
42684	5583	69.75	8.1499996185303
42684	5618	70	8.7749996185303
42684	5653	70.25	9.3999996185303
42685	5481	69	2.5
42685	5515	69.25	2.5
42685	5548	69.5	2.5
42685	5583	69.75	2.4999980926514
42685	5618	70	2.5
42685	5653	70.25	2.5
42686	5481	69	5.2162187258585
42686	5515	69.25	5.6304533568076
42686	5548	69.5	6.0461819274774
42686	5583	69.75	6.4635356930995
42686	5618	70	6.8826618500064
42686	5653	70.25	7.303684162087
42689	5548	69.5	812.50218963623
42689	5583	69.75	812.50218963623
42689	5618	70	811.16781616211
42689	5653	70.25	809.67719268799
42690	5548	69.5	486.85000610352
42690	5583	69.75	486.85000610352
42690	5618	70	486.85000610352
42690	5653	70.25	486.85000610352
42691	5583	69.75	5.6500000953674
42691	5618	70	6.2750000953674
42691	5653	70.25	6.3410024642944
42692	5618	70	2.5
42692	5653	70.25	0.26400947570801
42693	5618	70	5.2162187258585
42693	5653	70.25	1.8428973925458
