file 35205724 1591471093                                        
version 2
run nodebug-23-20200606-15:11:17-18812
attr configname nodebug
attr datetime 20200606-15:11:17
attr experiment nodebug
attr inifile omnetpp.ini
attr iterationvars ""
attr iterationvars2 $repetition=23
attr measurement ""
attr network "\"org.car2x.veins.modules.application.ExtTraCIScenarioManagerLaunchd.IntersectionExampleScenario\""
attr processid 18812
attr repetition 23
attr replication #23
attr resultdir results
attr runnumber 23
attr seedset 23
param **.coreDebug false
param **.debug false
param *.**.nic.mac1609_4.bitrate 18Mbps
param *.**.nic.mac1609_4.txPower 20mW
param *.**.nic.mac1609_4.useServiceChannel false
param *.**.nic.phy80211p.analogueModels "xmldoc(\"config.xml\")"
param *.**.nic.phy80211p.decider "xmldoc(\"config.xml\")"
param *.**.nic.phy80211p.sensitivity -89dBm
param *.**.nic.phy80211p.thermalNoise -110dBm
param *.**.nic.phy80211p.usePropagationDelay true
param *.**.nic.phy80211p.useThermalNoise true
param *.annotations.draw false
param *.connectionManager.alpha 2.0
param *.connectionManager.carrierFrequency "5.890e9 Hz"
param *.connectionManager.pMax 20mW
param *.connectionManager.sat -89dBm
param *.connectionManager.sendDirect true
param *.manager.autoShutdown true
param *.manager.host "\"localhost\""
param *.manager.launchConfig "xmldoc(\"paramics.launchd.xml\")"
param *.manager.margin 25
param *.manager.moduleDisplayString "\"\""
param *.manager.moduleName "\"node\""
param *.manager.moduleType "\"org.car2x.veins.nodes.Car\""
param *.manager.port 9999
param *.manager.updateInterval 250ms
param *.node[*0].veinsmobility.accidentCount 0
param *.node[*0].veinsmobility.accidentDuration 30s
param *.node[*0].veinsmobility.accidentStart 75s
param *.node[*].appl.LiderSelectZoneRadio 55.0
param *.node[*].appl.ShareDataZoneRadio 110.0
param *.node[*].appl.TiempoSemaforo 30.0
param *.node[*].appl.beaconInterval 1s
param *.node[*].appl.beaconPriority 3
param *.node[*].appl.dataOnSch false
param *.node[*].appl.dataPriority 2
param *.node[*].appl.debug false
param *.node[*].appl.headerLength "256 bit"
param *.node[*].appl.maxOffset 0.005s
param *.node[*].appl.sendBeacons false
param *.node[*].appl.sendData true
param *.node[*].applType "\"Dummy\""
param *.node[*].mobilityType "\"TraCIMobility\""
param *.node[*].mobilityType.debug true
param *.node[*].veinsmobility.x 0
param *.node[*].veinsmobility.y 0
param *.node[*].veinsmobility.z 1.895
param *.node[*].veinsmobilityType "\"org.car2x.veins.modules.mobility.traci.TraCIMobility\""
param *.node[*].veinsmobilityType.debug true
param *.playgroundSizeX 8500m
param *.playgroundSizeY 8500m
param *.playgroundSizeZ 50m
param *.world.use2D false
param *.world.useTorus false

vector 38700  IntersectionExampleScenario.manager  vehiclesinsim  ETV
attr type  int
vector 38701  IntersectionExampleScenario.manager  realtime  ETV
attr type  int
attr unit  s
vector 38704  IntersectionExampleScenario.node[0].veinsmobility  posx  ETV
vector 38705  IntersectionExampleScenario.node[0].veinsmobility  posy  ETV
vector 38706  IntersectionExampleScenario.node[0].veinsmobility  speed  ETV
vector 38707  IntersectionExampleScenario.node[0].veinsmobility  acceleration  ETV
vector 38708  IntersectionExampleScenario.node[0].veinsmobility  co2emission  ETV
vector 38711  IntersectionExampleScenario.node[1].veinsmobility  posx  ETV
vector 38712  IntersectionExampleScenario.node[1].veinsmobility  posy  ETV
vector 38713  IntersectionExampleScenario.node[1].veinsmobility  speed  ETV
vector 38714  IntersectionExampleScenario.node[1].veinsmobility  acceleration  ETV
vector 38715  IntersectionExampleScenario.node[1].veinsmobility  co2emission  ETV
vector 38718  IntersectionExampleScenario.node[2].veinsmobility  posx  ETV
vector 38719  IntersectionExampleScenario.node[2].veinsmobility  posy  ETV
vector 38720  IntersectionExampleScenario.node[2].veinsmobility  speed  ETV
vector 38725  IntersectionExampleScenario.node[3].veinsmobility  posx  ETV
vector 38726  IntersectionExampleScenario.node[3].veinsmobility  posy  ETV
vector 38721  IntersectionExampleScenario.node[2].veinsmobility  acceleration  ETV
vector 38722  IntersectionExampleScenario.node[2].veinsmobility  co2emission  ETV
vector 38727  IntersectionExampleScenario.node[3].veinsmobility  speed  ETV
vector 38728  IntersectionExampleScenario.node[3].veinsmobility  acceleration  ETV
vector 38729  IntersectionExampleScenario.node[3].veinsmobility  co2emission  ETV
vector 38732  IntersectionExampleScenario.node[4].veinsmobility  posx  ETV
vector 38733  IntersectionExampleScenario.node[4].veinsmobility  posy  ETV
vector 38734  IntersectionExampleScenario.node[4].veinsmobility  speed  ETV
vector 38735  IntersectionExampleScenario.node[4].veinsmobility  acceleration  ETV
vector 38736  IntersectionExampleScenario.node[4].veinsmobility  co2emission  ETV
vector 38739  IntersectionExampleScenario.node[5].veinsmobility  posx  ETV
vector 38740  IntersectionExampleScenario.node[5].veinsmobility  posy  ETV
vector 38741  IntersectionExampleScenario.node[5].veinsmobility  speed  ETV
vector 38742  IntersectionExampleScenario.node[5].veinsmobility  acceleration  ETV
vector 38743  IntersectionExampleScenario.node[5].veinsmobility  co2emission  ETV
vector 38746  IntersectionExampleScenario.node[6].veinsmobility  posx  ETV
vector 38747  IntersectionExampleScenario.node[6].veinsmobility  posy  ETV
vector 38748  IntersectionExampleScenario.node[6].veinsmobility  speed  ETV
vector 38753  IntersectionExampleScenario.node[7].veinsmobility  posx  ETV
vector 38754  IntersectionExampleScenario.node[7].veinsmobility  posy  ETV
vector 38749  IntersectionExampleScenario.node[6].veinsmobility  acceleration  ETV
vector 38750  IntersectionExampleScenario.node[6].veinsmobility  co2emission  ETV
vector 38760  IntersectionExampleScenario.node[8].veinsmobility  posx  ETV
vector 38761  IntersectionExampleScenario.node[8].veinsmobility  posy  ETV
vector 38755  IntersectionExampleScenario.node[7].veinsmobility  speed  ETV
vector 38756  IntersectionExampleScenario.node[7].veinsmobility  acceleration  ETV
vector 38757  IntersectionExampleScenario.node[7].veinsmobility  co2emission  ETV
vector 38762  IntersectionExampleScenario.node[8].veinsmobility  speed  ETV
vector 38763  IntersectionExampleScenario.node[8].veinsmobility  acceleration  ETV
vector 38764  IntersectionExampleScenario.node[8].veinsmobility  co2emission  ETV
vector 38767  IntersectionExampleScenario.node[9].veinsmobility  posx  ETV
vector 38768  IntersectionExampleScenario.node[9].veinsmobility  posy  ETV
vector 38769  IntersectionExampleScenario.node[9].veinsmobility  speed  ETV
vector 38770  IntersectionExampleScenario.node[9].veinsmobility  acceleration  ETV
vector 38771  IntersectionExampleScenario.node[9].veinsmobility  co2emission  ETV
vector 38774  IntersectionExampleScenario.node[10].veinsmobility  posx  ETV
vector 38775  IntersectionExampleScenario.node[10].veinsmobility  posy  ETV
vector 38776  IntersectionExampleScenario.node[10].veinsmobility  speed  ETV
vector 38777  IntersectionExampleScenario.node[10].veinsmobility  acceleration  ETV
vector 38778  IntersectionExampleScenario.node[10].veinsmobility  co2emission  ETV
vector 38781  IntersectionExampleScenario.node[11].veinsmobility  posx  ETV
vector 38782  IntersectionExampleScenario.node[11].veinsmobility  posy  ETV
vector 38783  IntersectionExampleScenario.node[11].veinsmobility  speed  ETV
vector 38784  IntersectionExampleScenario.node[11].veinsmobility  acceleration  ETV
vector 38785  IntersectionExampleScenario.node[11].veinsmobility  co2emission  ETV
vector 38788  IntersectionExampleScenario.node[12].veinsmobility  posx  ETV
vector 38789  IntersectionExampleScenario.node[12].veinsmobility  posy  ETV
vector 38790  IntersectionExampleScenario.node[12].veinsmobility  speed  ETV
vector 38791  IntersectionExampleScenario.node[12].veinsmobility  acceleration  ETV
vector 38792  IntersectionExampleScenario.node[12].veinsmobility  co2emission  ETV
vector 38795  IntersectionExampleScenario.node[13].veinsmobility  posx  ETV
vector 38796  IntersectionExampleScenario.node[13].veinsmobility  posy  ETV
vector 38797  IntersectionExampleScenario.node[13].veinsmobility  speed  ETV
vector 38802  IntersectionExampleScenario.node[14].veinsmobility  posx  ETV
vector 38803  IntersectionExampleScenario.node[14].veinsmobility  posy  ETV
vector 38798  IntersectionExampleScenario.node[13].veinsmobility  acceleration  ETV
vector 38799  IntersectionExampleScenario.node[13].veinsmobility  co2emission  ETV
vector 38804  IntersectionExampleScenario.node[14].veinsmobility  speed  ETV
vector 38805  IntersectionExampleScenario.node[14].veinsmobility  acceleration  ETV
vector 38806  IntersectionExampleScenario.node[14].veinsmobility  co2emission  ETV
vector 38809  IntersectionExampleScenario.node[15].veinsmobility  posx  ETV
vector 38810  IntersectionExampleScenario.node[15].veinsmobility  posy  ETV
vector 38811  IntersectionExampleScenario.node[15].veinsmobility  speed  ETV
vector 38812  IntersectionExampleScenario.node[15].veinsmobility  acceleration  ETV
vector 38813  IntersectionExampleScenario.node[15].veinsmobility  co2emission  ETV
vector 38816  IntersectionExampleScenario.node[16].veinsmobility  posx  ETV
vector 38817  IntersectionExampleScenario.node[16].veinsmobility  posy  ETV
vector 38823  IntersectionExampleScenario.node[17].veinsmobility  posx  ETV
vector 38824  IntersectionExampleScenario.node[17].veinsmobility  posy  ETV
vector 38818  IntersectionExampleScenario.node[16].veinsmobility  speed  ETV
vector 38825  IntersectionExampleScenario.node[17].veinsmobility  speed  ETV
vector 38819  IntersectionExampleScenario.node[16].veinsmobility  acceleration  ETV
vector 38820  IntersectionExampleScenario.node[16].veinsmobility  co2emission  ETV
vector 38826  IntersectionExampleScenario.node[17].veinsmobility  acceleration  ETV
vector 38827  IntersectionExampleScenario.node[17].veinsmobility  co2emission  ETV
vector 38830  IntersectionExampleScenario.node[18].veinsmobility  posx  ETV
vector 38831  IntersectionExampleScenario.node[18].veinsmobility  posy  ETV
vector 38832  IntersectionExampleScenario.node[18].veinsmobility  speed  ETV
vector 38833  IntersectionExampleScenario.node[18].veinsmobility  acceleration  ETV
vector 38834  IntersectionExampleScenario.node[18].veinsmobility  co2emission  ETV
vector 38837  IntersectionExampleScenario.node[19].veinsmobility  posx  ETV
vector 38838  IntersectionExampleScenario.node[19].veinsmobility  posy  ETV
vector 38844  IntersectionExampleScenario.node[20].veinsmobility  posx  ETV
vector 38845  IntersectionExampleScenario.node[20].veinsmobility  posy  ETV
vector 38839  IntersectionExampleScenario.node[19].veinsmobility  speed  ETV
vector 38851  IntersectionExampleScenario.node[21].veinsmobility  posx  ETV
vector 38852  IntersectionExampleScenario.node[21].veinsmobility  posy  ETV
vector 38840  IntersectionExampleScenario.node[19].veinsmobility  acceleration  ETV
vector 38841  IntersectionExampleScenario.node[19].veinsmobility  co2emission  ETV
vector 38846  IntersectionExampleScenario.node[20].veinsmobility  speed  ETV
vector 38847  IntersectionExampleScenario.node[20].veinsmobility  acceleration  ETV
vector 38848  IntersectionExampleScenario.node[20].veinsmobility  co2emission  ETV
vector 38853  IntersectionExampleScenario.node[21].veinsmobility  speed  ETV
vector 38854  IntersectionExampleScenario.node[21].veinsmobility  acceleration  ETV
vector 38855  IntersectionExampleScenario.node[21].veinsmobility  co2emission  ETV
vector 38858  IntersectionExampleScenario.node[22].veinsmobility  posx  ETV
vector 38859  IntersectionExampleScenario.node[22].veinsmobility  posy  ETV
vector 38860  IntersectionExampleScenario.node[22].veinsmobility  speed  ETV
vector 38861  IntersectionExampleScenario.node[22].veinsmobility  acceleration  ETV
vector 38862  IntersectionExampleScenario.node[22].veinsmobility  co2emission  ETV
vector 38865  IntersectionExampleScenario.node[23].veinsmobility  posx  ETV
vector 38866  IntersectionExampleScenario.node[23].veinsmobility  posy  ETV
vector 38867  IntersectionExampleScenario.node[23].veinsmobility  speed  ETV
vector 38868  IntersectionExampleScenario.node[23].veinsmobility  acceleration  ETV
vector 38869  IntersectionExampleScenario.node[23].veinsmobility  co2emission  ETV
38729	12510 4573 89 3732 9 44.75 144 0.973 11.990504229548 465.7073909698 2583.3309939134
38728	17083 4133 89 3732 9 44.75 144 -3.3559150695801 2.5 39.869146347046 206.37528934444
38727	21216 4464 80 3732 8.75 44.75 145 5.6500000953674 16.125 2106.1973485947 31303.953264532
38726	25680 4749 71 3732 8.5 44.75 146 486.85000610352 486.85000610352 71080.100891113 34605347.552677
38725	30429 4732 71 3732 8.5 44.75 146 235.58264160156 757.09531402588 74084.818954468 41094278.16348
vector 38872  IntersectionExampleScenario.node[24].veinsmobility  posx  ETV
vector 38873  IntersectionExampleScenario.node[24].veinsmobility  posy  ETV
vector 38874  IntersectionExampleScenario.node[24].veinsmobility  speed  ETV
vector 38875  IntersectionExampleScenario.node[24].veinsmobility  acceleration  ETV
vector 38876  IntersectionExampleScenario.node[24].veinsmobility  co2emission  ETV
38715	35562 5105 52 4204 7.75 48 162 0.973 11.602553289071 493.35024288215 2556.7647169074
38714	40667 4987 52 4204 7.75 48 162 -4.5 2.5 38.001859664917 240.22008568167
38713	45654 5069 47 4204 7.5 48 163 5.6500000953674 15.586493492126 2216.0946140289 31291.087496957
38712	50723 5327 42 4204 7.25 48 164 486.85000610352 486.85000610352 79843.401000977 38871760.264651
38711	56050 5296 42 4204 7.25 48 164 236.88787841797 785.82187652588 87006.13684082 50655826.449925
38722	61346 5277 71 4462 8.5 49.75 166 0.973 10.746407938136 489.13757422095 2302.5843408413
38721	66623 5121 71 4462 8.5 49.75 166 -3.2742309570312 2.5 38.511121749878 168.31406559283
38720	71744 5248 64 4462 8.25 49.75 167 5.6500000953674 15.473127365112 2312.4705276489 33052.721425806
38719	76992 5468 57 4462 8 49.75 168 486.85000610352 486.85000610352 81790.801025391 39819851.978423
38718	82460 5452 57 4462 8 49.75 168 235.71270751953 808.82032012939 90782.71987915 54062682.727464
38743	87912 5000 265 4846 13.5 52.5 157 0.973 11.54047740176 480.96823930247 2513.0935358821
38742	92912 4473 265 4846 13.5 52.5 157 -2.8250007629395 2.5 37.32285118103 205.68879094447
38741	97385 4931 252 4846 13.25 52.5 158 5.6500000953674 15.5 2217.5333890915 31713.795432371
38740	102316 5171 239 4846 13 52.5 159 184.17810058594 733.38545227051 71369.979476929 36231020.097381
38739	107487 5204 239 4846 13 52.5 159 486.85000610352 486.85000610352 77409.150970459 37686645.622436
vector 38879  IntersectionExampleScenario.node[25].veinsmobility  posx  ETV
vector 38880  IntersectionExampleScenario.node[25].veinsmobility  posy  ETV
vector 38881  IntersectionExampleScenario.node[25].veinsmobility  speed  ETV
vector 38882  IntersectionExampleScenario.node[25].veinsmobility  acceleration  ETV
vector 38883  IntersectionExampleScenario.node[25].veinsmobility  co2emission  ETV
38757	113092 5098 370 5144 15.25 54.75 159 0.973 11.54047740176 479.07655507752 2390.0453309569
38756	118190 4662 370 5144 15.25 54.75 159 -2.9358596801758 2.5 38.511121749878 178.9486003313
38755	122852 5016 351 5144 15 54.75 160 5.6500000953674 15.5 2295.3437461853 33574.061743018
38754	127868 5249 334 5144 14.75 54.75 161 164.94219970703 733.59391784668 70701.801528931 35627046.500141
38753	133117 5279 334 5144 14.75 54.75 161 486.85000610352 486.85000610352 78382.850982666 38160691.479322
vector 38886  IntersectionExampleScenario.node[26].veinsmobility  posx  ETV
vector 38887  IntersectionExampleScenario.node[26].veinsmobility  posy  ETV
vector 38893  IntersectionExampleScenario.node[27].veinsmobility  posx  ETV
vector 38894  IntersectionExampleScenario.node[27].veinsmobility  posy  ETV
vector 38888  IntersectionExampleScenario.node[26].veinsmobility  speed  ETV
vector 38895  IntersectionExampleScenario.node[27].veinsmobility  speed  ETV
vector 38900  IntersectionExampleScenario.node[28].veinsmobility  posx  ETV
vector 38901  IntersectionExampleScenario.node[28].veinsmobility  posy  ETV
vector 38889  IntersectionExampleScenario.node[26].veinsmobility  acceleration  ETV
vector 38890  IntersectionExampleScenario.node[26].veinsmobility  co2emission  ETV
vector 38896  IntersectionExampleScenario.node[27].veinsmobility  acceleration  ETV
vector 38897  IntersectionExampleScenario.node[27].veinsmobility  co2emission  ETV
vector 38902  IntersectionExampleScenario.node[28].veinsmobility  speed  ETV
vector 38903  IntersectionExampleScenario.node[28].veinsmobility  acceleration  ETV
vector 38904  IntersectionExampleScenario.node[28].veinsmobility  co2emission  ETV
vector 38907  IntersectionExampleScenario.node[29].veinsmobility  posx  ETV
vector 38908  IntersectionExampleScenario.node[29].veinsmobility  posy  ETV
vector 38909  IntersectionExampleScenario.node[29].veinsmobility  speed  ETV
vector 38910  IntersectionExampleScenario.node[29].veinsmobility  acceleration  ETV
vector 38911  IntersectionExampleScenario.node[29].veinsmobility  co2emission  ETV
38736	140000 5882 228 5942 12.75 60.75 193 0.973 11.450879080643 553.62300508415 2788.194047184
38735	145882 5411 228 5942 12.75 60.75 193 -8.2099418640137 4 36.813589096069 483.06962067089
38734	151293 5742 217 5942 12.5 60.75 194 0 15.375 2209.0127635002 30612.527227923
38733	157035 6384 206 5942 12.25 60.75 195 483.14999389648 785.82187652588 109107.20349884 62991500.333361
38732	163419 6384 206 5942 12.25 60.75 195 483.14999389648 735.28971862793 102963.97879028 55445998.138969
38750	169803 5868 334 6012 14.75 61.25 187 0.973 11.54047740176 566.01322586577 2864.5712037905
38749	175671 5472 334 6012 14.75 61.25 187 -4.5 2.5000019073486 38.680875778198 444.38325937954
38748	181143 6032 319 6012 14.5 61.25 188 0 15.5 2289.7376585845 32287.136865328
38747	187175 6173 304 6012 14.25 61.25 189 236.46520996094 803.92188262939 99607.885017395 57052291.535621
38746	193348 6201 304 6012 14.25 61.25 189 483.14999389648 483.14999389648 91315.348846436 44119010.237811
vector 38914  IntersectionExampleScenario.node[30].veinsmobility  posx  ETV
vector 38915  IntersectionExampleScenario.node[30].veinsmobility  posy  ETV
vector 38916  IntersectionExampleScenario.node[30].veinsmobility  speed  ETV
vector 38917  IntersectionExampleScenario.node[30].veinsmobility  acceleration  ETV
vector 38918  IntersectionExampleScenario.node[30].veinsmobility  co2emission  ETV
vector 38921  IntersectionExampleScenario.node[31].veinsmobility  posx  ETV
vector 38922  IntersectionExampleScenario.node[31].veinsmobility  posy  ETV
vector 38923  IntersectionExampleScenario.node[31].veinsmobility  speed  ETV
vector 38924  IntersectionExampleScenario.node[31].veinsmobility  acceleration  ETV
vector 38925  IntersectionExampleScenario.node[31].veinsmobility  co2emission  ETV
vector 38928  IntersectionExampleScenario.node[32].veinsmobility  posx  ETV
vector 38929  IntersectionExampleScenario.node[32].veinsmobility  posy  ETV
vector 38930  IntersectionExampleScenario.node[32].veinsmobility  speed  ETV
vector 38931  IntersectionExampleScenario.node[32].veinsmobility  acceleration  ETV
vector 38932  IntersectionExampleScenario.node[32].veinsmobility  co2emission  ETV
vector 38935  IntersectionExampleScenario.node[33].veinsmobility  posx  ETV
vector 38936  IntersectionExampleScenario.node[33].veinsmobility  posy  ETV
vector 38937  IntersectionExampleScenario.node[33].veinsmobility  speed  ETV
vector 38938  IntersectionExampleScenario.node[33].veinsmobility  acceleration  ETV
vector 38939  IntersectionExampleScenario.node[33].veinsmobility  co2emission  ETV
38785	201153 5103 1301 6702 26.5 66 159 0.973 11.200708441096 467.95564542231 2394.8147115561
38784	206256 4886 1301 6702 26.5 66 159 -3.118522644043 2.5 35.964826583862 188.62131523076
38783	211142 5059 1276 6702 26.25 66 160 5.6500000953674 15.02499961853 2216.1733694077 31213.978222916
38782	216201 5294 1251 6702 26 66 161 236.83319091797 785.82187652588 83825.791313171 47903701.681739
38781	221495 5311 1251 6702 26 66 161 483.14999389648 483.14999389648 77787.149017334 37582860.57295
vector 38942  IntersectionExampleScenario.node[34].veinsmobility  posx  ETV
vector 38943  IntersectionExampleScenario.node[34].veinsmobility  posy  ETV
vector 38944  IntersectionExampleScenario.node[34].veinsmobility  speed  ETV
vector 38945  IntersectionExampleScenario.node[34].veinsmobility  acceleration  ETV
vector 38946  IntersectionExampleScenario.node[34].veinsmobility  co2emission  ETV
38708	227207 7177 30 7149 6.25 69 252 0.973 11.648172402475 624.18201612931 2986.9552268729
38707	234384 6455 30 7149 6.25 69 252 -6.8118047714233 4 38.850629806519 473.89926028986
38706	240839 6895 27 7149 6 69 253 0 15.64999961853 2184.01582551 30888.554982961
38705	247734 8273 24 7149 5.75 69 254 235.22222900391 483.14999389648 114488.28845215 52693387.461632
38704	256007 8252 24 7149 5.75 69 254 184.17810058594 483.37979125977 107855.47286987 47857108.618637
38771	264259 5809 849 7223 21.5 69.5 193 0.973 11.54047740176 542.24525829263 2763.7172960896
38770	270068 5925 849 7223 21.5 69.5 193 -2.1596946716309 2.5000009536743 37.32285118103 301.08909117668
38769	275993 6228 828 7223 21.25 69.5 194 1.5309698581696 15.5 2213.9422818422 29369.532767936
38768	282221 6424 807 7223 21 69.5 195 483.14999389648 483.14999389648 94214.248809814 45519613.737424
38767	288645 6385 807 7223 21 69.5 195 184.17810058594 732.75971984863 87468.550170898 43427764.659401
vector 38949  IntersectionExampleScenario.node[35].veinsmobility  posx  ETV
vector 38950  IntersectionExampleScenario.node[35].veinsmobility  posy  ETV
vector 38956  IntersectionExampleScenario.node[36].veinsmobility  posx  ETV
vector 38957  IntersectionExampleScenario.node[36].veinsmobility  posy  ETV
vector 38951  IntersectionExampleScenario.node[35].veinsmobility  speed  ETV
vector 38952  IntersectionExampleScenario.node[35].veinsmobility  acceleration  ETV
vector 38953  IntersectionExampleScenario.node[35].veinsmobility  co2emission  ETV
vector 38958  IntersectionExampleScenario.node[36].veinsmobility  speed  ETV
vector 38959  IntersectionExampleScenario.node[36].veinsmobility  acceleration  ETV
vector 38960  IntersectionExampleScenario.node[36].veinsmobility  co2emission  ETV
38799	295832 5186 1618 7492 29.5 71.25 168 0.973 12.099024792222 529.67054262985 2980.3568214771
38798	301018 4932 1618 7492 29.5 71.25 168 -2.189697265625 2.5 40.378400802612 257.05238331621
38797	305950 5336 1591 7492 29.25 71.25 169 5.6500000953674 16.27499961853 2216.7631649971 30630.213364453
38796	311286 5609 1563 7492 29 71.25 170 483.14999389648 483.14999389648 82135.498962402 39683765.822369
38795	316895 5581 1563 7492 29 71.25 170 184.17810058594 733.23947143555 75546.490325928 37649083.940477
vector 38963  IntersectionExampleScenario.node[37].veinsmobility  posx  ETV
vector 38964  IntersectionExampleScenario.node[37].veinsmobility  posy  ETV
vector 38970  IntersectionExampleScenario.node[38].veinsmobility  posx  ETV
vector 38971  IntersectionExampleScenario.node[38].veinsmobility  posy  ETV
vector 38965  IntersectionExampleScenario.node[37].veinsmobility  speed  ETV
vector 38966  IntersectionExampleScenario.node[37].veinsmobility  acceleration  ETV
vector 38967  IntersectionExampleScenario.node[37].veinsmobility  co2emission  ETV
vector 38972  IntersectionExampleScenario.node[38].veinsmobility  speed  ETV
vector 38973  IntersectionExampleScenario.node[38].veinsmobility  acceleration  ETV
vector 38974  IntersectionExampleScenario.node[38].veinsmobility  co2emission  ETV
38813	323278 5356 1767 7789 30.75 73 170 0.973 11.648172402475 527.09587124517 2654.95570134
38812	328634 5159 1767 7789 30.75 73 170 -4.5 2.5 39.699392318726 251.95447493984
38811	333793 5482 1736 7789 30.5 73 171 5.6500000953674 15.64999961853 2300.6856560707 32319.71880727
38810	339275 5676 1705 7789 30.25 73 172 483.14999389648 483.14999389648 83101.798950195 40150633.655574
38809	344951 5649 1705 7789 30.25 73 172 162.90466308594 732.73974609375 75059.314361572 37307533.56312
vector 38977  IntersectionExampleScenario.node[39].veinsmobility  posx  ETV
vector 38978  IntersectionExampleScenario.node[39].veinsmobility  posy  ETV
vector 38984  IntersectionExampleScenario.node[40].veinsmobility  posx  ETV
vector 38985  IntersectionExampleScenario.node[40].veinsmobility  posy  ETV
vector 38979  IntersectionExampleScenario.node[39].veinsmobility  speed  ETV
vector 38980  IntersectionExampleScenario.node[39].veinsmobility  acceleration  ETV
vector 38981  IntersectionExampleScenario.node[39].veinsmobility  co2emission  ETV
vector 38986  IntersectionExampleScenario.node[40].veinsmobility  speed  ETV
vector 38987  IntersectionExampleScenario.node[40].veinsmobility  acceleration  ETV
vector 38988  IntersectionExampleScenario.node[40].veinsmobility  co2emission  ETV
38764	351402 6812 389 8077 15.5 74.5 237 0.95785320846514 12.353032912318 641.70687443218 3357.8788131519
38763	358214 6377 389 8077 15.5 74.5 237 -7.6913566589355 4 42.075933456421 516.35646593533
38762	364591 6482 370 8077 15.25 74.5 238 0 16.625 2239.6210639477 33415.149905772
38761	371073 7852 351 8077 15 74.5 239 486.85000610352 486.85000610352 116357.15145874 56648479.897875
38760	378925 7835 351 8077 15 74.5 239 235.46563720703 791.19976806641 123184.64952087 67649131.725697
vector 38991  IntersectionExampleScenario.node[41].veinsmobility  posx  ETV
vector 38992  IntersectionExampleScenario.node[41].veinsmobility  posy  ETV
vector 38993  IntersectionExampleScenario.node[41].veinsmobility  speed  ETV
vector 38994  IntersectionExampleScenario.node[41].veinsmobility  acceleration  ETV
vector 38995  IntersectionExampleScenario.node[41].veinsmobility  co2emission  ETV
vector 38998  IntersectionExampleScenario.node[42].veinsmobility  posx  ETV
vector 38999  IntersectionExampleScenario.node[42].veinsmobility  posy  ETV
vector 39000  IntersectionExampleScenario.node[42].veinsmobility  speed  ETV
vector 39001  IntersectionExampleScenario.node[42].veinsmobility  acceleration  ETV
vector 39002  IntersectionExampleScenario.node[42].veinsmobility  co2emission  ETV
38778	387562 6611 1021 8806 23.5 78.25 220 0.973 11.200708441096 565.49932267052 2666.8331351785
38777	394173 6917 1021 8806 23.5 78.25 220 -3.928275346756 2.5 36.813589096069 315.94683282351
38776	401090 7150 998 8806 23.25 78.25 221 0 15.02499961853 2221.2362965494 29104.842663083
38775	408240 7323 975 8806 23 78.25 222 486.85000610352 486.85000610352 108080.70135498 52619090.114344
38774	415563 7299 975 8806 23 78.25 222 235.0537109375 785.82187652588 115133.36234283 63982472.498561
vector 39005  IntersectionExampleScenario.node[43].veinsmobility  posx  ETV
vector 39006  IntersectionExampleScenario.node[43].veinsmobility  posy  ETV
vector 39007  IntersectionExampleScenario.node[43].veinsmobility  speed  ETV
vector 39008  IntersectionExampleScenario.node[43].veinsmobility  acceleration  ETV
vector 39009  IntersectionExampleScenario.node[43].veinsmobility  co2emission  ETV
38820	423263 5740 2018 9156 32.75 80 190 0.973 11.810082123732 564.01525568524 3084.7668147026
38819	429003 5662 2018 9156 32.75 80 190 -3.2019386291504 2.5 39.699392318726 339.46588343086
38818	434665 5966 1985 9156 32.5 80 191 2.973224401474 15.875 2190.6849844456 28822.083982273
38817	440631 6328 1952 9156 32.25 80 192 486.85000610352 734.69987487793 101596.09942627 54752010.335231
38816	446959 6320 1952 9156 32.25 80 192 486.85000610352 785.82187652588 108775.07164764 63407570.937674
38834	453279 6037 2121 9450 33.5 81.5 193 0.973 11.461529109343 563.01723995601 2770.7554074997
38833	459316 5733 2121 9450 33.5 81.5 193 -4.5 2.5 38.171613693237 394.33244632582
38832	465049 6190 2086 9450 33.25 81.5 194 2.4608342647552 15.389867782593 2304.0274567604 30848.123922823
38831	471239 6434 2051 9450 33 81.5 195 486.85000610352 486.85000610352 94935.751190186 46219471.046384
38830	477673 6414 2051 9450 33 81.5 195 237.86334228516 808.82032012939 104138.00047302 60317437.528001
vector 39012  IntersectionExampleScenario.node[44].veinsmobility  posx  ETV
vector 39013  IntersectionExampleScenario.node[44].veinsmobility  posy  ETV
vector 39019  IntersectionExampleScenario.node[45].veinsmobility  posx  ETV
vector 39020  IntersectionExampleScenario.node[45].veinsmobility  posy  ETV
vector 39014  IntersectionExampleScenario.node[44].veinsmobility  speed  ETV
vector 39015  IntersectionExampleScenario.node[44].veinsmobility  acceleration  ETV
vector 39016  IntersectionExampleScenario.node[44].veinsmobility  co2emission  ETV
vector 39021  IntersectionExampleScenario.node[45].veinsmobility  speed  ETV
vector 39022  IntersectionExampleScenario.node[45].veinsmobility  acceleration  ETV
vector 39023  IntersectionExampleScenario.node[45].veinsmobility  co2emission  ETV
vector 39026  IntersectionExampleScenario.node[46].veinsmobility  posx  ETV
vector 39027  IntersectionExampleScenario.node[46].veinsmobility  posy  ETV
vector 39028  IntersectionExampleScenario.node[46].veinsmobility  speed  ETV
38792	485121 6564 1455 9957 28 84 225 0.973 12.099024792222 609.38669094499 3206.524606067
38791	491685 6098 1455 9957 28 84 225 -7.8777389526367 4 40.038900375366 507.63096320897
38790	497783 6276 1428 9957 27.75 84 226 0 16.27499961853 2184.4825298786 31478.340064468
38789	504059 7468 1401 9957 27.5 84 227 184.17810058594 483.36395263672 95284.033843994 41974694.920388
38788	511527 7418 1401 9957 27.5 84 227 486.85000610352 734.86784362793 118601.61317444 63010063.884723
vector 39029  IntersectionExampleScenario.node[46].veinsmobility  acceleration  ETV
vector 39030  IntersectionExampleScenario.node[46].veinsmobility  co2emission  ETV
vector 39033  IntersectionExampleScenario.node[47].veinsmobility  posx  ETV
vector 39034  IntersectionExampleScenario.node[47].veinsmobility  posy  ETV
vector 39035  IntersectionExampleScenario.node[47].veinsmobility  speed  ETV
vector 39036  IntersectionExampleScenario.node[47].veinsmobility  acceleration  ETV
vector 39037  IntersectionExampleScenario.node[47].veinsmobility  co2emission  ETV
vector 39040  IntersectionExampleScenario.node[48].veinsmobility  posx  ETV
vector 39041  IntersectionExampleScenario.node[48].veinsmobility  posy  ETV
vector 39047  IntersectionExampleScenario.node[49].veinsmobility  posx  ETV
vector 39048  IntersectionExampleScenario.node[49].veinsmobility  posy  ETV
vector 39042  IntersectionExampleScenario.node[48].veinsmobility  speed  ETV
vector 39049  IntersectionExampleScenario.node[49].veinsmobility  speed  ETV
vector 39054  IntersectionExampleScenario.node[50].veinsmobility  posx  ETV
vector 39055  IntersectionExampleScenario.node[50].veinsmobility  posy  ETV
vector 39043  IntersectionExampleScenario.node[48].veinsmobility  acceleration  ETV
vector 39044  IntersectionExampleScenario.node[48].veinsmobility  co2emission  ETV
vector 39050  IntersectionExampleScenario.node[49].veinsmobility  acceleration  ETV
vector 39051  IntersectionExampleScenario.node[49].veinsmobility  co2emission  ETV
vector 39061  IntersectionExampleScenario.node[51].veinsmobility  posx  ETV
vector 39062  IntersectionExampleScenario.node[51].veinsmobility  posy  ETV
vector 39056  IntersectionExampleScenario.node[50].veinsmobility  speed  ETV
vector 39057  IntersectionExampleScenario.node[50].veinsmobility  acceleration  ETV
vector 39058  IntersectionExampleScenario.node[50].veinsmobility  co2emission  ETV
vector 39063  IntersectionExampleScenario.node[51].veinsmobility  speed  ETV
vector 39064  IntersectionExampleScenario.node[51].veinsmobility  acceleration  ETV
vector 39065  IntersectionExampleScenario.node[51].veinsmobility  co2emission  ETV
vector 39068  IntersectionExampleScenario.node[52].veinsmobility  posx  ETV
vector 39069  IntersectionExampleScenario.node[52].veinsmobility  posy  ETV
vector 39070  IntersectionExampleScenario.node[52].veinsmobility  speed  ETV
vector 39075  IntersectionExampleScenario.node[53].veinsmobility  posx  ETV
vector 39076  IntersectionExampleScenario.node[53].veinsmobility  posy  ETV
vector 39071  IntersectionExampleScenario.node[52].veinsmobility  acceleration  ETV
vector 39072  IntersectionExampleScenario.node[52].veinsmobility  co2emission  ETV
vector 39077  IntersectionExampleScenario.node[53].veinsmobility  speed  ETV
vector 39078  IntersectionExampleScenario.node[53].veinsmobility  acceleration  ETV
vector 39079  IntersectionExampleScenario.node[53].veinsmobility  co2emission  ETV
38806	521921 7322 1676 11894 30 92.5 251 0.973 11.36141391502 611.9276864032 2835.365019378
38805	529243 6537 1676 11894 30 92.5 251 -6.8254146575928 4 37.15309715271 460.99527382444
38804	535780 6928 1647 11894 29.75 92.5 252 0 15.25 2216.2179517746 30696.664569482
38803	542708 8374 1618 11894 29.5 92.5 253 486.63604736328 795.46562957764 139062.32456207 78687357.150015
38802	551082 8318 1618 11894 29.5 92.5 253 236.84155273438 483.14999389648 113899.61013794 52368145.481151
38855	559400 6609 2785 12077 38.5 93.25 220 0.97223939240464 11.648172402475 583.44231019866 3018.2907512099
38854	566009 6895 2785 12077 38.5 93.25 220 -3.8384256362915 2.5000000596046 38.680875778198 344.77089352778
38853	572904 7179 2748 12077 38.25 93.25 221 0 15.64999961853 2217.4778594188 29808.188426027
38852	580083 7336 2711 12077 38 93.25 222 236.24517822266 785.82187652588 115295.64754486 64032299.998565
38851	587419 7362 2711 12077 38 93.25 222 483.14999389648 483.14999389648 107259.29864502 51822329.485682
vector 39082  IntersectionExampleScenario.node[54].veinsmobility  posx  ETV
vector 39083  IntersectionExampleScenario.node[54].veinsmobility  posy  ETV
vector 39084  IntersectionExampleScenario.node[54].veinsmobility  speed  ETV
38876	595013 5757 4056 12436 47 94.75 192 0.973 12.099024792222 564.80229051144 3031.4869036398
38875	600770 5866 4056 12436 47 94.75 192 -2.1896324157715 2.5 40.038900375366 305.501196058
38874	606636 6246 4019 12436 46.75 94.75 193 2.0290355682373 16.27499961853 2211.771443367 29571.694811366
38873	612882 6420 3982 12436 46.5 94.75 194 237.91198730469 785.82187652588 101800.05597687 57482452.89794
38872	619302 6446 3982 12436 46.5 94.75 194 483.14999389648 483.14999389648 93731.098815918 45286179.820821
vector 39085  IntersectionExampleScenario.node[54].veinsmobility  acceleration  ETV
vector 39086  IntersectionExampleScenario.node[54].veinsmobility  co2emission  ETV
vector 39089  IntersectionExampleScenario.node[55].veinsmobility  posx  ETV
vector 39090  IntersectionExampleScenario.node[55].veinsmobility  posy  ETV
38827	626071 7583 2018 13380 32.75 98.75 265 0.973 11.810082123732 658.80353122142 3221.7854166912
38826	633654 7165 2018 13380 32.75 98.75 265 -7.417619228363 4 40.208654403687 508.82714508027
38825	640819 7286 1985 13380 32.5 98.75 266 0 15.875 2286.3729072809 31719.710863468
38824	648105 8801 1952 13380 32.25 98.75 267 238.56188964844 483.14999389648 121150.99725342 56015940.352436
38823	656906 8849 1952 13380 32.25 98.75 267 155.44140625 483.36395263672 111194.65353394 48918599.462451
vector 39091  IntersectionExampleScenario.node[55].veinsmobility  speed  ETV
vector 39092  IntersectionExampleScenario.node[55].veinsmobility  acceleration  ETV
vector 39093  IntersectionExampleScenario.node[55].veinsmobility  co2emission  ETV
vector 39096  IntersectionExampleScenario.node[56].veinsmobility  posx  ETV
vector 39097  IntersectionExampleScenario.node[56].veinsmobility  posy  ETV
vector 39098  IntersectionExampleScenario.node[56].veinsmobility  speed  ETV
vector 39099  IntersectionExampleScenario.node[56].veinsmobility  acceleration  ETV
vector 39100  IntersectionExampleScenario.node[56].veinsmobility  co2emission  ETV
vector 39103  IntersectionExampleScenario.node[57].veinsmobility  posx  ETV
vector 39104  IntersectionExampleScenario.node[57].veinsmobility  posy  ETV
vector 39105  IntersectionExampleScenario.node[57].veinsmobility  speed  ETV
vector 39106  IntersectionExampleScenario.node[57].veinsmobility  acceleration  ETV
vector 39107  IntersectionExampleScenario.node[57].veinsmobility  co2emission  ETV
vector 39110  IntersectionExampleScenario.node[58].veinsmobility  posx  ETV
vector 39111  IntersectionExampleScenario.node[58].veinsmobility  posy  ETV
vector 39112  IntersectionExampleScenario.node[58].veinsmobility  speed  ETV
vector 39113  IntersectionExampleScenario.node[58].veinsmobility  acceleration  ETV
vector 39114  IntersectionExampleScenario.node[58].veinsmobility  co2emission  ETV
vector 39117  IntersectionExampleScenario.node[59].veinsmobility  posx  ETV
vector 39118  IntersectionExampleScenario.node[59].veinsmobility  posy  ETV
vector 39119  IntersectionExampleScenario.node[59].veinsmobility  speed  ETV
38862	667437 7996 2932 14458 39.5 103.25 256 0.973 10.916047529558 596.62249577583 2582.1304508112
38861	675433 8260 2932 14458 39.5 103.25 256 -4.5 2.5 34.097539901733 370.42588792738
38860	683693 8225 2895 14458 39.25 103.25 257 0 14.625 2183.7828581203 28244.945714199
38859	691918 8590 2858 14458 39 103.25 258 236.18475341797 483.14999389648 115845.08300781 53163798.197876
38858	700508 8562 2858 14458 39 103.25 258 184.17810058594 483.17791748047 108406.81707764 47614202.000995
vector 39120  IntersectionExampleScenario.node[59].veinsmobility  acceleration  ETV
vector 39121  IntersectionExampleScenario.node[59].veinsmobility  co2emission  ETV
38869	709239 7752 3306 14709 42 104.25 250 0.973 11.450879080643 622.71627841853 2815.437225279
38868	716991 7902 3306 14709 42 104.25 250 -4.5 2.5 38.511121749878 386.26683332243
38867	724893 8113 3267 14709 41.75 104.25 251 0 15.375 2267.1838273518 29907.705499053
38866	733006 8408 3228 14709 41.5 104.25 252 483.14999389648 732.6848449707 130110.57167053 68289385.090444
38865	741414 8382 3228 14709 41.5 104.25 252 168.58435058594 486.85000610352 103851.43548584 45038993.08113
38841	749796 7847 2711 15258 38 106.5 275 0.973 11.90022389248 681.55148441176 3372.0536380813
38840	757643 7451 2711 15258 38 106.5 275 -7.4537448883057 4 41.227170944214 559.01977393062
38839	765094 7742 2676 15258 37.75 106.5 276 0 16.001913070679 2266.8785381317 31230.223159437
38838	772836 9258 2643 15258 37.5 106.5 277 486.85000610352 486.85000610352 134857.45169067 65655351.178709
38837	782094 9239 2643 15258 37.5 106.5 277 238.59759521484 801.00534057617 144074.02845764 79324237.461796
vector 39124  IntersectionExampleScenario.node[60].veinsmobility  posx  ETV
vector 39125  IntersectionExampleScenario.node[60].veinsmobility  posy  ETV
vector 39126  IntersectionExampleScenario.node[60].veinsmobility  speed  ETV
vector 39127  IntersectionExampleScenario.node[60].veinsmobility  acceleration  ETV
vector 39128  IntersectionExampleScenario.node[60].veinsmobility  co2emission  ETV
38848	791734 8624 2748 15934 38.25 109.25 285 0.973 11.990504229548 695.78394273491 3353.8104694209
38847	800358 8704 2748 15934 38.25 109.25 285 -4.5 2.5 39.529638290405 478.54556662746
38846	809062 8855 2711 15934 38 109.25 286 0 16.125 2343.9769685538 31181.104499182
38845	817917 9610 2676 15934 37.75 109.25 287 486.85000610352 486.85000610352 139725.95175171 68025580.463139
38844	827527 9573 2676 15934 37.75 109.25 287 236.87091064453 817.82454681396 152036.0201416 85651374.377036
38883	837100 7096 5012 16465 53.75 111.5 232 0.96333723109819 12.099024792222 602.26988033851 3173.683463071
38882	844196 7403 5012 16465 53.75 111.5 232 -3.6918416023254 2.5 40.208654403687 341.91216517378
38881	851599 7570 4979 16465 53.5 111.5 233 0 16.27499961853 2211.3040281441 29766.942990104
38880	859169 7876 4945 16465 53.25 111.5 234 235.99664306641 486.85000610352 105698.69958496 48829032.758736
38879	867045 7848 4945 16465 53.25 111.5 234 483.12380981445 785.82187652588 129823.94829559 73934257.170196
vector 39131  IntersectionExampleScenario.node[61].veinsmobility  posx  ETV
vector 39132  IntersectionExampleScenario.node[61].veinsmobility  posy  ETV
vector 39138  IntersectionExampleScenario.node[62].veinsmobility  posx  ETV
vector 39139  IntersectionExampleScenario.node[62].veinsmobility  posy  ETV
vector 39133  IntersectionExampleScenario.node[61].veinsmobility  speed  ETV
vector 39140  IntersectionExampleScenario.node[62].veinsmobility  speed  ETV
vector 39134  IntersectionExampleScenario.node[61].veinsmobility  acceleration  ETV
vector 39135  IntersectionExampleScenario.node[61].veinsmobility  co2emission  ETV
vector 39141  IntersectionExampleScenario.node[62].veinsmobility  acceleration  ETV
vector 39142  IntersectionExampleScenario.node[62].veinsmobility  co2emission  ETV
vector 39145  IntersectionExampleScenario.node[63].veinsmobility  posx  ETV
vector 39146  IntersectionExampleScenario.node[63].veinsmobility  posy  ETV
vector 39147  IntersectionExampleScenario.node[63].veinsmobility  speed  ETV
vector 39148  IntersectionExampleScenario.node[63].veinsmobility  acceleration  ETV
vector 39149  IntersectionExampleScenario.node[63].veinsmobility  co2emission  ETV
38890	876096 6829 5588 17060 58.25 114 224 0.93438186594183 12.26218747632 612.32112279106 3379.4022809788
38889	882925 7178 5588 17060 58.25 114 224 -4.5 2.5 41.057416915894 435.42314406723
38888	890103 7248 5555 17060 58 114 225 0 16.5 2190.9626687057 29253.732119515
38887	897351 7627 5522 17060 57.75 114 226 486.85000610352 734.95928955078 117994.73513794 62636533.838493
38886	904978 7614 5522 17060 57.75 114 226 486.85000610352 785.82187652588 126528.52663422 72649964.616476
38897	912592 6964 5588 17543 58.25 116 232 0.973 11.810082123732 610.79549147058 3086.1564490216
38896	919556 6353 5588 17543 58.25 116 232 -7.26416015625 4 39.699392318726 483.29115084588
38895	925909 6617 5555 17543 58 116 233 0 15.875 2180.8752837181 31208.171219839
38894	932526 7887 5522 17543 57.75 116 234 184.17810058594 483.36395263672 98502.066833496 43468344.271244
38893	940413 7845 5522 17543 57.75 116 234 486.85000610352 733.87629699707 121985.76225281 64637131.690476
vector 39152  IntersectionExampleScenario.node[64].veinsmobility  posx  ETV
vector 39153  IntersectionExampleScenario.node[64].veinsmobility  posy  ETV
vector 39154  IntersectionExampleScenario.node[64].veinsmobility  speed  ETV
vector 39155  IntersectionExampleScenario.node[64].veinsmobility  acceleration  ETV
vector 39156  IntersectionExampleScenario.node[64].veinsmobility  co2emission  ETV
38953	948659 5963 7451 18014 71 118 189 0.973 11.200708441096 524.97297770193 2617.1302869452
38952	954622 6065 7451 18014 71 118 189 -2.0687103271484 2.5 35.795072555542 281.82670160082
38951	960687 6311 7410 18014 70.75 118 190 2.3180696964264 15.02499961853 2213.2246341705 28889.283773673
38950	966998 6468 7371 18014 70.5 118 191 184.17810058594 732.70365905762 85699.486633301 42717859.530386
38949	973466 6511 7371 18014 70.5 118 191 486.85000610352 486.85000610352 92988.351165771 45271379.332612
vector 39159  IntersectionExampleScenario.node[65].veinsmobility  posx  ETV
vector 39160  IntersectionExampleScenario.node[65].veinsmobility  posy  ETV
vector 39161  IntersectionExampleScenario.node[65].veinsmobility  speed  ETV
vector 39166  IntersectionExampleScenario.node[66].veinsmobility  posx  ETV
vector 39167  IntersectionExampleScenario.node[66].veinsmobility  posy  ETV
vector 39162  IntersectionExampleScenario.node[65].veinsmobility  acceleration  ETV
vector 39163  IntersectionExampleScenario.node[65].veinsmobility  co2emission  ETV
vector 39168  IntersectionExampleScenario.node[66].veinsmobility  speed  ETV
vector 39169  IntersectionExampleScenario.node[66].veinsmobility  acceleration  ETV
vector 39170  IntersectionExampleScenario.node[66].veinsmobility  co2emission  ETV
vector 39173  IntersectionExampleScenario.node[67].veinsmobility  posx  ETV
vector 39174  IntersectionExampleScenario.node[67].veinsmobility  posy  ETV
vector 39180  IntersectionExampleScenario.node[68].veinsmobility  posx  ETV
vector 39181  IntersectionExampleScenario.node[68].veinsmobility  posy  ETV
vector 39175  IntersectionExampleScenario.node[67].veinsmobility  speed  ETV
vector 39176  IntersectionExampleScenario.node[67].veinsmobility  acceleration  ETV
vector 39177  IntersectionExampleScenario.node[67].veinsmobility  co2emission  ETV
vector 39182  IntersectionExampleScenario.node[68].veinsmobility  speed  ETV
38981	981412 6137 7930 18800 73.75 121.25 191 0.973 11.36141391502 576.3309227654 3132.1989324823
38980	987549 6120 7930 18800 73.75 121.25 191 -4.5 2.5 35.964826583862 429.03233342846
38979	993669 6243 7881 18800 73.5 121.25 192 4.0534720420837 15.25 2242.2422952652 28952.592352776
38978	999912 6565 7834 18800 73.25 121.25 193 169.95465087891 483.1872253418 76365.714202881 32238913.491477
38977	1006477 6601 7834 18800 73.25 121.25 193 486.84997558594 733.86665344238 102505.55848694 55468605.404935
vector 39187  IntersectionExampleScenario.node[69].veinsmobility  posx  ETV
vector 39188  IntersectionExampleScenario.node[69].veinsmobility  posy  ETV
vector 39183  IntersectionExampleScenario.node[68].veinsmobility  acceleration  ETV
vector 39184  IntersectionExampleScenario.node[68].veinsmobility  co2emission  ETV
vector 39189  IntersectionExampleScenario.node[69].veinsmobility  speed  ETV
vector 39190  IntersectionExampleScenario.node[69].veinsmobility  acceleration  ETV
vector 39191  IntersectionExampleScenario.node[69].veinsmobility  co2emission  ETV
vector 39194  IntersectionExampleScenario.node[70].veinsmobility  posx  ETV
vector 39195  IntersectionExampleScenario.node[70].veinsmobility  posy  ETV
vector 39196  IntersectionExampleScenario.node[70].veinsmobility  speed  ETV
vector 39201  IntersectionExampleScenario.node[71].veinsmobility  posx  ETV
vector 39202  IntersectionExampleScenario.node[71].veinsmobility  posy  ETV
vector 39197  IntersectionExampleScenario.node[70].veinsmobility  acceleration  ETV
vector 39198  IntersectionExampleScenario.node[70].veinsmobility  co2emission  ETV
vector 39203  IntersectionExampleScenario.node[71].veinsmobility  speed  ETV
vector 39204  IntersectionExampleScenario.node[71].veinsmobility  acceleration  ETV
vector 39205  IntersectionExampleScenario.node[71].veinsmobility  co2emission  ETV
38904	1014450 7771 5658 19722 58.75 124.75 265 0.973 11.253833972344 650.31034279356 3258.1018885164
38903	1022221 6933 5658 19722 58.75 124.75 265 -18.562553405762 4 35.795072555542 798.34042727069
38902	1029154 7401 5623 19722 58.5 124.75 266 0 15.099445343018 2172.2795248032 29288.953531854
38901	1036555 9067 5588 19722 58.25 124.75 267 486.63604736328 785.82187652588 145544.93115997 81457372.117401
38900	1045622 9012 5588 19722 58.25 124.75 267 238.08221435547 483.14999389648 120560.2878418 55546585.030439
vector 39208  IntersectionExampleScenario.node[72].veinsmobility  posx  ETV
vector 39209  IntersectionExampleScenario.node[72].veinsmobility  posy  ETV
vector 39215  IntersectionExampleScenario.node[73].veinsmobility  posx  ETV
vector 39216  IntersectionExampleScenario.node[73].veinsmobility  posy  ETV
38918	1054942 8113 6153 19982 62.25 125.75 255 0.973 11.200708441096 633.32210504188 2830.4986081703
38917	1063055 7917 6153 19982 62.25 125.75 255 -4.5 2.5 38.341367721558 428.58961394957
38916	1070972 8087 6118 19982 62 125.75 256 0 15.25625038147 2252.4892293764 31267.893052465
38915	1079059 8730 6082 19982 61.75 125.75 257 483.13439941406 795.46562957764 141340.81934357 79951653.927675
38914	1087789 8738 6082 19982 61.75 125.75 257 483.14999389648 734.92980957031 132699.72625732 69665659.84666
vector 39210  IntersectionExampleScenario.node[72].veinsmobility  speed  ETV
vector 39217  IntersectionExampleScenario.node[73].veinsmobility  speed  ETV
vector 39211  IntersectionExampleScenario.node[72].veinsmobility  acceleration  ETV
vector 39212  IntersectionExampleScenario.node[72].veinsmobility  co2emission  ETV
vector 39218  IntersectionExampleScenario.node[73].veinsmobility  acceleration  ETV
vector 39219  IntersectionExampleScenario.node[73].veinsmobility  co2emission  ETV
38939	1097021 7771 6627 20189 65.5 126.5 245 0.973 11.990504229548 640.35093053153 3199.346319668
38938	1104792 7870 6627 20189 65.5 126.5 245 -4.3986968994141 2.5 41.396924972534 393.66639220416
38937	1112662 8182 6588 20189 65.25 126.5 246 0 16.125 2273.1083194166 31776.908131381
38936	1120844 8387 6549 20189 65 126.5 247 238.65240478516 801.89219665527 129973.7260437 72732538.469397
38935	1129231 8427 6549 20189 65 126.5 247 483.14999389648 483.14999389648 119338.04849243 57658177.400737
vector 39222  IntersectionExampleScenario.node[74].veinsmobility  posx  ETV
vector 39223  IntersectionExampleScenario.node[74].veinsmobility  posy  ETV
vector 39229  IntersectionExampleScenario.node[75].veinsmobility  posx  ETV
vector 39230  IntersectionExampleScenario.node[75].veinsmobility  posy  ETV
vector 39224  IntersectionExampleScenario.node[74].veinsmobility  speed  ETV
vector 39225  IntersectionExampleScenario.node[74].veinsmobility  acceleration  ETV
vector 39226  IntersectionExampleScenario.node[74].veinsmobility  co2emission  ETV
vector 39231  IntersectionExampleScenario.node[75].veinsmobility  speed  ETV
vector 39236  IntersectionExampleScenario.node[76].veinsmobility  posx  ETV
vector 39237  IntersectionExampleScenario.node[76].veinsmobility  posy  ETV
vector 39232  IntersectionExampleScenario.node[75].veinsmobility  acceleration  ETV
vector 39233  IntersectionExampleScenario.node[75].veinsmobility  co2emission  ETV
vector 39238  IntersectionExampleScenario.node[76].veinsmobility  speed  ETV
vector 39239  IntersectionExampleScenario.node[76].veinsmobility  acceleration  ETV
vector 39240  IntersectionExampleScenario.node[76].veinsmobility  co2emission  ETV
38995	1138861 6714 8466 21230 76.5 130.25 216 0.973 11.648172402475 582.01563118906 2900.7092229459
38994	1145575 7081 8466 21230 76.5 130.25 216 -3.7682712078094 2.5000001192093 38.850629806519 359.6163480456
38993	1152656 7140 8417 21230 76.25 130.25 217 0 15.64999961853 2191.0568618253 28391.890781198
38992	1159796 7476 8368 21230 76 130.25 218 486.82928466797 785.82187652588 122413.19947052 70570307.763147
38991	1167272 7495 8368 21230 76 130.25 218 235.43341064453 483.14999389648 97093.586914062 44285881.887551
38932	1174767 8106 6475 21798 64.5 132.25 272 0.973 11.00486315618 677.41540970451 3334.5910410001
38931	1182873 7329 6475 21798 64.5 132.25 272 -38.459251403809 4 34.097539901733 1918.9193895169
38930	1190202 7752 6438 21798 64.25 132.25 273 0 14.75 2210.4868040085 28739.929964973
38929	1197954 9364 6401 21798 64 132.25 274 483.14999389648 483.14999389648 132383.09832764 63960893.148995
38928	1207318 9323 6401 21798 64 132.25 274 184.17810058594 732.90614318848 125190.83462524 61603755.317731
38946	1216641 7883 6964 22006 67.75 133 262 0.973 11.36141391502 614.32414636431 2738.5538308092
38945	1224524 7281 6964 22006 67.75 133 262 -4.5 2.5 36.98334312439 461.26114216764
38944	1231805 7520 6926 22006 67.5 133 263 0 15.25 2226.5195317967 29895.621210239
38943	1239325 9021 6887 22006 67.25 133 264 237.36529541016 483.14999389648 119229.48187256 54945726.386917
38942	1248346 9010 6887 22006 67.25 133 264 172.9296875 483.14999389648 110507.53234863 48508725.589418
39009	1257356 7231 8957 22810 79 136 229 0.973 10.756497587458 549.02624149925 2412.5448564571
39008	1264587 7474 8957 22810 79 136 229 -3.877224445343 2.5000009536743 33.079023361206 302.42314895899
39007	1272061 7745 8906 22810 78.75 136 230 0 14.39999961853 2214.8618205972 27545.896124271
39006	1279806 7975 8855 22810 78.5 136 231 483.14999389648 483.14999389648 111607.64859009 53923234.735102
39005	1287781 7926 8855 22810 78.5 136 231 184.17810058594 733.34016418457 104041.22993469 51296044.284241
vector 39243  IntersectionExampleScenario.node[77].veinsmobility  posx  ETV
vector 39244  IntersectionExampleScenario.node[77].veinsmobility  posy  ETV
vector 39245  IntersectionExampleScenario.node[77].veinsmobility  speed  ETV
vector 39246  IntersectionExampleScenario.node[77].veinsmobility  acceleration  ETV
vector 39247  IntersectionExampleScenario.node[77].veinsmobility  co2emission  ETV
39016	1296108 6955 9700 23210 82.75 137.5 220 0.973 11.600705721112 600.55807558848 2870.855244767
39015	1303063 7436 9700 23210 82.75 137.5 220 -4.5 2.5 39.125665664673 399.65886320237
39014	1310499 7452 9648 23210 82.5 137.5 221 0 15.583920478821 2255.6353925169 29411.555822392
39013	1317951 7692 9597 23210 82.25 137.5 222 483.14999389648 483.14999389648 107259.29864502 51822329.485682
39012	1325643 7643 9597 23210 82.25 137.5 222 176.21716308594 735.11233520508 98634.220825195 48287054.970494
38911	1333286 9396 5766 23731 59.5 139.5 321 0.973 11.648172402475 713.50352366027 3248.8868218789
38910	1342682 9417 5766 23731 59.5 139.5 321 -7.1213150024414 4 37.662351608276 565.85033668956
38909	1352099 9542 5730 23731 59.25 139.5 322 0 15.64999961853 2303.7259459496 29474.614560749
38908	1361641 11039 5693 23731 59 139.5 323 486.85000610352 486.85000610352 157252.55197144 76558405.887087
38907	1372680 11003 5693 23731 59 139.5 323 235.04968261719 807.09531402588 168957.12345123 93186061.337836
vector 39250  IntersectionExampleScenario.node[78].veinsmobility  posx  ETV
vector 39251  IntersectionExampleScenario.node[78].veinsmobility  posy  ETV
vector 39252  IntersectionExampleScenario.node[78].veinsmobility  speed  ETV
vector 39253  IntersectionExampleScenario.node[78].veinsmobility  acceleration  ETV
vector 39254  IntersectionExampleScenario.node[78].veinsmobility  co2emission  ETV
38925	1384084 9418 6366 23994 63.75 140.5 308 0.97223939240464 11.648172402475 683.76870234124 3082.9067488356
38924	1393502 9615 6366 23994 63.75 140.5 308 -4.0620441436768 2.5 38.680875778198 435.11671493717
38923	1403117 9747 6330 23994 63.5 140.5 309 0 15.64999961853 2264.6065785466 28488.446032992
38922	1412864 10601 6293 23994 63.25 140.5 310 237.39276123047 486.85000610352 142595.83892822 66752285.636574
38921	1423465 10593 6293 23994 63.25 140.5 310 483.13436889648 800.81954193115 170832.70969391 96486436.593372
vector 39257  IntersectionExampleScenario.node[79].veinsmobility  posx  ETV
vector 39258  IntersectionExampleScenario.node[79].veinsmobility  posy  ETV
vector 39259  IntersectionExampleScenario.node[79].veinsmobility  speed  ETV
vector 39260  IntersectionExampleScenario.node[79].veinsmobility  acceleration  ETV
vector 39261  IntersectionExampleScenario.node[79].veinsmobility  co2emission  ETV
38974	1434459 8783 7789 24840 73 143.75 284 0.973 11.36141391502 601.1678715184 2579.6702284381
38973	1443242 9480 7789 24840 73 143.75 284 -4.5 2.5 35.964826583862 327.1907141406
38972	1452722 9435 7744 24840 72.75 143.75 285 0 15.25 2061.8813311514 23853.522611554
38971	1462157 9847 7699 24840 72.5 143.75 286 486.85000610352 733.94239807129 147787.98339844 77518262.398712
38970	1472004 9823 7699 24840 72.5 143.75 286 486.85000610352 755.05781555176 156284.86533356 86942857.670512
vector 39264  IntersectionExampleScenario.node[80].veinsmobility  posx  ETV
vector 39265  IntersectionExampleScenario.node[80].veinsmobility  posy  ETV
vector 39266  IntersectionExampleScenario.node[80].veinsmobility  speed  ETV
vector 39271  IntersectionExampleScenario.node[81].veinsmobility  posx  ETV
vector 39272  IntersectionExampleScenario.node[81].veinsmobility  posy  ETV
vector 39267  IntersectionExampleScenario.node[80].veinsmobility  acceleration  ETV
vector 39268  IntersectionExampleScenario.node[80].veinsmobility  co2emission  ETV
vector 39273  IntersectionExampleScenario.node[81].veinsmobility  speed  ETV
38960	1482460 9468 7492 25300 71.25 145.5 298 0.973 11.36141391502 672.74627151543 2845.8075316414
38959	1491928 9809 7492 25300 71.25 145.5 298 -4.5 2.5 38.680875778198 425.01499737137
38958	1501737 9956 7451 25300 71 145.5 299 0 15.382987976074 2188.0532519817 25724.543175155
38957	1511693 10321 7410 25300 70.75 145.5 300 486.85000610352 733.89114379883 154244.31558228 80425506.493739
38956	1522014 10302 7410 25300 70.75 145.5 300 486.67321777344 785.82187652588 168277.64719391 96586460.505448
vector 39274  IntersectionExampleScenario.node[81].veinsmobility  acceleration  ETV
vector 39275  IntersectionExampleScenario.node[81].veinsmobility  co2emission  ETV
vector 39278  IntersectionExampleScenario.node[82].veinsmobility  posx  ETV
vector 39279  IntersectionExampleScenario.node[82].veinsmobility  posy  ETV
vector 39280  IntersectionExampleScenario.node[82].veinsmobility  speed  ETV
vector 39281  IntersectionExampleScenario.node[82].veinsmobility  acceleration  ETV
vector 39282  IntersectionExampleScenario.node[82].veinsmobility  co2emission  ETV
vector 39285  IntersectionExampleScenario.node[83].veinsmobility  posx  ETV
vector 39286  IntersectionExampleScenario.node[83].veinsmobility  posy  ETV
39037	1533040 7690 10279 26106 85.5 148.5 253 0.973 11.509385294631 625.58105715428 3078.869954321
39036	1540730 7147 10279 26106 85.5 148.5 253 -22.087211608887 4 36.98334312439 916.94020664573
39035	1547877 7307 10224 26106 85.25 148.5 254 0 15.456644058228 2198.2444086075 30790.73081108
39034	1555184 8825 10169 26106 85 148.5 255 184.17810058594 486.85000610352 108360.99536133 48162957.95052
39033	1564009 8862 10169 26106 85 148.5 255 237.87945556641 486.85000610352 115634.86264038 53566079.00437
vector 39287  IntersectionExampleScenario.node[83].veinsmobility  speed  ETV
39065	1572949 7364 11045 26173 89 148.75 240 0.973 11.54047740176 632.95403329616 3014.4469925863
39064	1580313 6717 11045 26173 89 148.75 240 -4.5 2.5 41.227170944214 501.79426655732
39063	1587030 6994 10986 26173 88.75 148.75 241 0 15.999305725098 2177.0398437381 31866.787834959
39062	1594024 8402 10927 26173 88.5 148.75 242 194.42419433594 733.92839050293 110655.96833801 54431691.383984
39061	1602426 8425 10927 26173 88.5 148.75 242 486.85000610352 486.85000610352 117817.70147705 57359548.683204
vector 39288  IntersectionExampleScenario.node[83].veinsmobility  acceleration  ETV
vector 39289  IntersectionExampleScenario.node[83].veinsmobility  co2emission  ETV
vector 39292  IntersectionExampleScenario.node[84].veinsmobility  posx  ETV
vector 39293  IntersectionExampleScenario.node[84].veinsmobility  posy  ETV
vector 39294  IntersectionExampleScenario.node[84].veinsmobility  speed  ETV
vector 39295  IntersectionExampleScenario.node[84].veinsmobility  acceleration  ETV
vector 39296  IntersectionExampleScenario.node[84].veinsmobility  co2emission  ETV
vector 39299  IntersectionExampleScenario.node[85].veinsmobility  posx  ETV
vector 39300  IntersectionExampleScenario.node[85].veinsmobility  posy  ETV
vector 39301  IntersectionExampleScenario.node[85].veinsmobility  speed  ETV
vector 39302  IntersectionExampleScenario.node[85].veinsmobility  acceleration  ETV
vector 39303  IntersectionExampleScenario.node[85].veinsmobility  co2emission  ETV
39086	1611822 7531 12497 27267 95 152.75 232 0.95139429404231 11.990504229548 617.23207608771 3057.5496502056
39085	1619353 7760 12497 27267 95 152.75 232 -4.5 2.5 41.227170944214 386.38829712818
39084	1627113 7916 12436 27267 94.75 152.75 233 0 16.125 2211.6385602131 30431.941171131
39083	1635029 8127 12375 27267 94.5 152.75 234 184.17810058594 731.84530639648 104322.23890686 50519766.161312
39082	1643156 8169 12375 27267 94.5 152.75 234 486.85000610352 486.85000610352 113922.90142822 55463365.25566
39051	1651325 8443 10870 27267 88.25 152.75 259 0.973 11.36141391502 618.65894159883 2754.4680996559
39050	1659768 8757 10870 27267 88.25 152.75 259 -4.3509712219238 2.5000009536743 35.964826583862 381.97224503103
39049	1668525 8672 10814 27267 88 152.75 260 0 15.25 2244.0731221763 28911.149766619
39048	1677197 9069 10757 27267 87.75 152.75 261 169.95465087891 483.14999389648 106943.4269104 46283355.714959
39047	1686266 9082 10757 27267 87.75 152.75 261 486.85000610352 734.14610290527 135631.63726807 71610682.594031
vector 39306  IntersectionExampleScenario.node[86].veinsmobility  posx  ETV
vector 39307  IntersectionExampleScenario.node[86].veinsmobility  posy  ETV
vector 39308  IntersectionExampleScenario.node[86].veinsmobility  speed  ETV
vector 39309  IntersectionExampleScenario.node[86].veinsmobility  acceleration  ETV
vector 39310  IntersectionExampleScenario.node[86].veinsmobility  co2emission  ETV
39002	1695749 9566 8806 28467 78.25 157.25 317 0.973 11.00486315618 689.67949473512 2891.1587022402
39001	1705315 9271 8806 28467 78.25 157.25 317 -6.9835834503174 4 34.267293930054 648.90219354259
39000	1714586 9505 8757 28467 78 157.25 318 0 14.75 2289.4808839932 28733.452963669
38999	1724091 11031 8708 28467 77.75 157.25 319 236.49285888672 805.05782318115 166002.65685272 91284935.714264
38998	1735122 11050 8708 28467 77.75 157.25 319 483.14999389648 483.14999389648 154124.84805298 74465419.396093
39128	1746172 6621 15506 28922 107.5 159 207 0.973 11.200708441096 545.47116957724 2529.0548519267
39127	1752793 7009 15506 28922 107.5 159 207 -3.7961366176605 2.5 35.964826583862 305.13096224364
39126	1759802 7157 15443 28922 107.25 159 208 0 15.02499961853 2213.0763569847 28667.304444441
39125	1766959 7289 15380 28922 107 159 209 237.05810546875 785.82187652588 108651.01082611 60750965.913922
39124	1774248 7313 15380 28922 107 159 209 483.14999389648 483.14999389648 100978.34872437 48787688.569854
vector 39313  IntersectionExampleScenario.node[87].veinsmobility  posx  ETV
vector 39314  IntersectionExampleScenario.node[87].veinsmobility  posy  ETV
vector 39315  IntersectionExampleScenario.node[87].veinsmobility  speed  ETV
vector 39316  IntersectionExampleScenario.node[87].veinsmobility  acceleration  ETV
vector 39317  IntersectionExampleScenario.node[87].veinsmobility  co2emission  ETV
vector 39320  IntersectionExampleScenario.node[88].veinsmobility  posx  ETV
vector 39321  IntersectionExampleScenario.node[88].veinsmobility  posy  ETV
vector 39322  IntersectionExampleScenario.node[88].veinsmobility  speed  ETV
vector 39323  IntersectionExampleScenario.node[88].veinsmobility  acceleration  ETV
vector 39324  IntersectionExampleScenario.node[88].veinsmobility  co2emission  ETV
vector 39327  IntersectionExampleScenario.node[89].veinsmobility  posx  ETV
vector 39328  IntersectionExampleScenario.node[89].veinsmobility  posy  ETV
vector 39334  IntersectionExampleScenario.node[90].veinsmobility  posx  ETV
vector 39335  IntersectionExampleScenario.node[90].veinsmobility  posy  ETV
vector 39329  IntersectionExampleScenario.node[89].veinsmobility  speed  ETV
vector 39336  IntersectionExampleScenario.node[90].veinsmobility  speed  ETV
vector 39330  IntersectionExampleScenario.node[89].veinsmobility  acceleration  ETV
vector 39331  IntersectionExampleScenario.node[89].veinsmobility  co2emission  ETV
vector 39337  IntersectionExampleScenario.node[90].veinsmobility  acceleration  ETV
vector 39338  IntersectionExampleScenario.node[90].veinsmobility  co2emission  ETV
39170	1783165 5687 18490 29840 120 162.5 171 0.973 11.200708441096 543.2664857492 3059.1558384418
39169	1788852 5330 18490 29840 120 162.5 171 -4.1841812133789 2.5 35.455564498901 343.46589279877
39168	1794182 5699 18428 29840 119.75 162.5 172 5.6500000953674 15.02499961853 2189.5665636063 29035.994142127
39167	1799881 6038 18367 29840 119.5 162.5 173 486.85000610352 785.82187652588 98866.343528748 58290601.496716
39166	1805919 6044 18367 29840 119.5 162.5 173 235.15179443359 483.14999389648 74895.964782715 33421576.551713
vector 39341  IntersectionExampleScenario.node[91].veinsmobility  posx  ETV
vector 39342  IntersectionExampleScenario.node[91].veinsmobility  posy  ETV
vector 39343  IntersectionExampleScenario.node[91].veinsmobility  speed  ETV
vector 39344  IntersectionExampleScenario.node[91].veinsmobility  acceleration  ETV
vector 39345  IntersectionExampleScenario.node[91].veinsmobility  co2emission  ETV
39114	1812364 7552 14273 30051 102.5 163.25 244 0.973 11.648172402475 624.48892195619 3113.5917813178
39113	1819916 6887 14273 30051 102.5 163.25 244 -6.7442770004272 4 38.850629806519 481.71425344118
39112	1826803 7231 14212 30051 102.25 163.25 245 0 15.64999961853 2219.8631315231 31697.560108217
39111	1834034 8609 14151 30051 102 163.25 246 483.14999389648 483.14999389648 118854.89849854 57424743.484134
39110	1842643 8579 14151 30051 102 163.25 246 184.17810058594 735.09378051758 112505.43878174 55637796.75246
vector 39348  IntersectionExampleScenario.node[92].veinsmobility  posx  ETV
vector 39349  IntersectionExampleScenario.node[92].veinsmobility  posy  ETV
vector 39350  IntersectionExampleScenario.node[92].veinsmobility  speed  ETV
vector 39351  IntersectionExampleScenario.node[92].veinsmobility  acceleration  ETV
vector 39352  IntersectionExampleScenario.node[92].veinsmobility  co2emission  ETV
vector 39355  IntersectionExampleScenario.node[93].veinsmobility  posx  ETV
vector 39356  IntersectionExampleScenario.node[93].veinsmobility  posy  ETV
vector 39357  IntersectionExampleScenario.node[93].veinsmobility  speed  ETV
vector 39358  IntersectionExampleScenario.node[93].veinsmobility  acceleration  ETV
vector 39359  IntersectionExampleScenario.node[93].veinsmobility  co2emission  ETV
39121	1852024 8234 14521 30773 103.5 165.75 250 0.973 11.091743532934 596.25518007746 2594.1159817897
39120	1860258 8252 14521 30773 103.5 165.75 250 -4.5 2.5 34.437047958374 398.33223629355
39119	1868510 8323 14458 30773 103.25 165.75 251 0 14.872102737427 2277.3694132399 29919.868910927
39118	1876833 8814 14395 30773 103 165.75 252 235.35046386719 483.14999389648 112939.71716309 51763109.496802
39117	1885647 8800 14395 30773 103 165.75 252 162.00311279297 483.14999389648 103755.37051392 45190394.212791
vector 39362  IntersectionExampleScenario.node[94].veinsmobility  posx  ETV
vector 39363  IntersectionExampleScenario.node[94].veinsmobility  posy  ETV
vector 39364  IntersectionExampleScenario.node[94].veinsmobility  speed  ETV
39142	1894679 6909 16815 31201 113 167.25 218 0.973 11.648172402475 588.83919192319 2924.8634831272
39141	1901588 7316 16815 31201 113 167.25 218 -3.7566432952881 2.5 39.699392318726 337.48663785959
39140	1908904 7330 16754 31201 112.75 167.25 219 0 15.64999961853 2185.5720916353 28774.688115204
39139	1916234 7699 16693 31201 112.5 167.25 220 236.82604980469 483.14999389648 98237.678283691 44885581.804138
39138	1923933 7662 16693 31201 112.5 167.25 220 184.17810058594 483.18521118164 90414.669311523 39014346.730981
vector 39365  IntersectionExampleScenario.node[94].veinsmobility  acceleration  ETV
vector 39366  IntersectionExampleScenario.node[94].veinsmobility  co2emission  ETV
39149	1931764 7069 17060 31420 114 168 217 0.973 11.648172402475 619.24885966845 3094.9628460417
39148	1938833 7155 17060 31420 114 168 217 -4.5 2.5000019073486 41.227170944214 469.77366111645
39147	1945988 7405 16999 31420 113.75 168 218 0 16.007879257202 2312.879388988 31789.423166705
39146	1953393 7664 16937 31420 113.5 168 219 483.14999389648 483.14999389648 105809.84866333 51122027.735876
39145	1961057 7606 16937 31420 113.5 168 219 162.00311279297 734.46743774414 95864.613815308 46512224.620163
vector 39369  IntersectionExampleScenario.node[95].veinsmobility  posx  ETV
vector 39370  IntersectionExampleScenario.node[95].veinsmobility  posy  ETV
vector 39371  IntersectionExampleScenario.node[95].veinsmobility  speed  ETV
vector 39372  IntersectionExampleScenario.node[95].veinsmobility  acceleration  ETV
vector 39373  IntersectionExampleScenario.node[95].veinsmobility  co2emission  ETV
38967	1969064 12085 7744 32428 72.75 171.5 396 0.973 11.36141391502 781.6287192958 2917.5623992657
38966	1981149 11905 7744 32428 72.75 171.5 396 -20.208545684814 4 37.662351608276 915.03432325194
38965	1993054 11987 7699 32428 72.5 171.5 397 0 15.25 2266.2289037332 26927.461445208
38964	2005041 13708 7656 32428 72.25 171.5 398 486.85000610352 734.74336242676 202144.1030426 103873334.97384
38963	2018749 13736 7656 32428 72.25 171.5 398 486.63604736328 806.11563110352 218970.99195099 123217063.55921
38988	2032485 12549 7979 33125 74 174 401 0.973 11.36141391502 815.0090511769 2955.107521638
38987	2045034 12972 7979 33125 74 174 401 -4.5 3.727641671896 37.322214126587 619.55868494026
38986	2058006 12971 7930 33125 73.75 174 402 0 15.25 2309.351513627 27288.286033038
38985	2070977 13947 7881 33125 73.5 174 403 486.85000610352 733.24925231934 204544.34954834 105011857.63043
38984	2084924 13905 7881 33125 73.5 174 403 486.85000610352 817.24219512939 223936.4023056 127352863.49935
vector 39376  IntersectionExampleScenario.node[96].veinsmobility  posx  ETV
vector 39377  IntersectionExampleScenario.node[96].veinsmobility  posy  ETV
vector 39378  IntersectionExampleScenario.node[96].veinsmobility  speed  ETV
vector 39379  IntersectionExampleScenario.node[96].veinsmobility  acceleration  ETV
vector 39380  IntersectionExampleScenario.node[96].veinsmobility  co2emission  ETV
39023	2099230 11855 9751 33534 83 175.5 371 0.973 11.535032279792 776.71612820419 3137.9100092718
39022	2111085 12430 9751 33534 83 175.5 371 -4.5 2.5 41.227170944214 567.88896929986
39021	2123515 12455 9700 33534 82.75 175.5 372 0 15.964367866516 2185.9037399935 27692.212810452
39020	2135970 12962 9648 33534 82.5 175.5 373 486.85000610352 733.47575378418 189469.21835327 97363928.272342
39019	2148932 12948 9648 33534 82.5 175.5 373 486.85000610352 785.82187652588 205449.46466064 115190399.40324
vector 39383  IntersectionExampleScenario.node[97].veinsmobility  posx  ETV
vector 39384  IntersectionExampleScenario.node[97].veinsmobility  posy  ETV
vector 39385  IntersectionExampleScenario.node[97].veinsmobility  speed  ETV
39030	2162112 12188 10010 34213 84.25 178 376 0.973 11.093806525473 757.9598261421 2890.2637189814
39029	2174300 12719 10010 34213 84.25 178 376 -4.5 2.5 35.964826583862 454.80669395677
39028	2187019 12909 9957 34213 84 178 377 0 14.875 2296.7640883606 27708.191587715
39027	2199928 13162 9904 34213 83.75 178 378 486.85000610352 486.85000610352 184029.30230713 89594666.951452
39026	2213090 13124 9904 34213 83.75 178 378 237.2197265625 807.09531402588 202773.0227356 113659301.06432
vector 39386  IntersectionExampleScenario.node[97].veinsmobility  acceleration  ETV
vector 39387  IntersectionExampleScenario.node[97].veinsmobility  co2emission  ETV
vector 39390  IntersectionExampleScenario.node[98].veinsmobility  posx  ETV
vector 39391  IntersectionExampleScenario.node[98].veinsmobility  posy  ETV
vector 39392  IntersectionExampleScenario.node[98].veinsmobility  speed  ETV
vector 39393  IntersectionExampleScenario.node[98].veinsmobility  acceleration  ETV
vector 39394  IntersectionExampleScenario.node[98].veinsmobility  co2emission  ETV
39107	2226784 9465 14032 34842 101.5 180.25 316 0.973 11.648172402475 692.2579923551 3189.1994095418
39106	2236249 9387 14032 34842 101.5 180.25 316 -8.064920425415 4 38.341367721558 563.25883930373
39105	2245636 9595 13971 34842 101.25 180.25 317 0 15.64999961853 2212.8902549706 28825.680124116
39104	2255231 11087 13910 34842 101 180.25 318 184.17810058594 733.41819763184 144200.59712219 69607633.20453
39103	2266318 11129 13910 34842 101 180.25 318 486.85000610352 486.85000610352 154818.30194092 75373291.244872
vector 39397  IntersectionExampleScenario.node[99].veinsmobility  posx  ETV
vector 39398  IntersectionExampleScenario.node[99].veinsmobility  posy  ETV
39156	2277601 7829 17719 35049 116.75 181 258 0.973 12.099024792222 670.90910842501 3392.8020929222
39155	2285430 7375 17719 35049 116.75 181 258 -4.5 2.5 41.396928787231 494.89757273548
39154	2292805 7597 17660 35049 116.5 181 259 0 16.27499961853 2199.4947011471 30062.894842989
39153	2300402 9071 17601 35049 116.25 181 260 184.17810058594 486.86581420898 109796.15084839 48376523.223847
39152	2309473 9085 17601 35049 116.25 181 260 238.84869384766 486.85000610352 118637.3374939 55197887.088069
vector 39399  IntersectionExampleScenario.node[99].veinsmobility  speed  ETV
vector 39400  IntersectionExampleScenario.node[99].veinsmobility  acceleration  ETV
vector 39401  IntersectionExampleScenario.node[99].veinsmobility  co2emission  ETV
vector 39404  IntersectionExampleScenario.node[100].veinsmobility  posx  ETV
vector 39405  IntersectionExampleScenario.node[100].veinsmobility  posy  ETV
vector 39406  IntersectionExampleScenario.node[100].veinsmobility  speed  ETV
vector 39407  IntersectionExampleScenario.node[100].veinsmobility  acceleration  ETV
vector 39408  IntersectionExampleScenario.node[100].veinsmobility  co2emission  ETV
39198	2319211 7919 19322 36105 123.25 184.75 247 0.973 11.200708441096 587.9917848464 2697.2039432945
39197	2327130 8211 19322 36105 123.25 184.75 247 -3.8281157016754 2.5 35.455564498901 325.74640324069
39196	2335341 8433 19255 36105 123 184.75 248 0 15.02499961853 2223.6364994179 28672.756035124
39195	2343774 8661 19188 36105 122.75 184.75 249 184.17810058594 735.41494750977 112384.17987061 55071260.625902
39194	2352435 8716 19188 36105 122.75 184.75 249 486.85000610352 486.85000610352 121225.65151978 59018709.182305
39219	2361151 7838 20120 36602 126.25 186.5 242 0.973 11.450879080643 616.39795713344 2933.6440085286
39218	2368989 8063 20120 36602 126.25 186.5 242 -4.4378051757812 2.5000019073486 38.680875778198 393.62520914177
39217	2377052 8218 20051 36602 126 186.5 243 0 15.375 2261.6242957227 29549.041893662
39216	2385270 8512 19982 36602 125.75 186.5 244 171.40313720703 486.85000610352 99726.95904541 42872473.029123
39215	2393782 8539 19982 36602 125.75 186.5 244 236.46551513672 486.85000610352 110398.7406311 51060970.972422
vector 39411  IntersectionExampleScenario.node[101].veinsmobility  posx  ETV
vector 39412  IntersectionExampleScenario.node[101].veinsmobility  posy  ETV
39191	2402477 8262 18993 37225 122 188.75 268 0.973 11.200708441096 642.07245437356 2953.9298399819
39190	2410739 7700 18993 37225 122 188.75 268 -8.4655809402466 4 35.795072555542 538.97851151118
39189	2418439 7914 18928 37225 121.75 188.75 269 0 15.02499961853 2277.9293997288 30708.10321845
39188	2426353 9431 18863 37225 121.5 188.75 270 238.29931640625 803.92188262939 140034.93253326 77352413.361805
39187	2435784 9451 18863 37225 121.5 188.75 270 483.14999389648 483.14999389648 130450.49835205 63027157.482586
vector 39413  IntersectionExampleScenario.node[101].veinsmobility  speed  ETV
vector 39414  IntersectionExampleScenario.node[101].veinsmobility  acceleration  ETV
vector 39415  IntersectionExampleScenario.node[101].veinsmobility  co2emission  ETV
39212	2445485 7902 20120 37570 126.25 190 256 0.973 12.089941347529 658.48698499433 3173.4359087932
39211	2453387 7671 20120 37570 126.25 190 256 -4.5 2.5 41.949819564819 480.95188860736
39210	2461058 7834 20051 37570 126 190 257 0 16.262454986572 2263.8910423191 32153.621626203
39209	2468892 9001 19982 37570 125.75 190 258 238.26470947266 799.23282623291 134010.61862946 74024252.736107
39208	2477893 9029 19982 37570 125.75 190 258 483.14999389648 483.14999389648 124652.69842529 60225950.48336
39247	2486922 7122 23009 38113 136.75 192 222 0.973 11.648172402475 589.6121296089 2942.0897100524
39246	2494044 7484 23009 38113 136.75 192 222 -3.9220151901245 2.5 39.699392318726 332.10149121748
39245	2501528 7646 22942 38113 136.5 192 223 0 15.64999961853 2216.9254438784 29939.380786993
39244	2509174 7802 22875 38113 136.25 192 224 236.81408691406 785.82187652588 116869.33708954 65071403.385517
39243	2516976 7840 22875 38113 136.25 192 224 483.14999389648 483.14999389648 108225.59863281 52289197.318887
vector 39418  IntersectionExampleScenario.node[102].veinsmobility  posx  ETV
vector 39419  IntersectionExampleScenario.node[102].veinsmobility  posy  ETV
vector 39420  IntersectionExampleScenario.node[102].veinsmobility  speed  ETV
39268	2525051 6430 25233 38902 145.25 195 200 0.973 11.90022389248 581.77203481278 3098.4731119734
39267	2531481 6020 25233 38902 145.25 195 200 -8.1522026062012 4 39.529638290405 496.24633385995
39266	2537501 6263 25167 38902 145 195 201 0 16 2214.9452383518 31924.027614019
39265	2543764 7069 25100 38902 144.75 195 202 483.14999389648 483.14999389648 97596.29876709 47153651.153639
39264	2550833 7044 25100 38902 144.75 195 202 184.17810058594 734.00186157227 91651.227005005 45704396.642288
vector 39421  IntersectionExampleScenario.node[102].veinsmobility  acceleration  ETV
vector 39422  IntersectionExampleScenario.node[102].veinsmobility  co2emission  ETV
39275	2558048 6991 25367 39563 145.75 197.5 208 0.973 11.54047740176 586.53115031933 2904.9264022362
39274	2565039 6833 25367 39563 145.75 197.5 208 -4.5 2.5000009536743 38.341367721558 439.18569959226
39273	2571872 7174 25300 39563 145.5 197.5 209 0 15.5 2310.5801818278 32273.085431564
39272	2579046 7351 25233 39563 145.25 197.5 210 483.14999389648 483.14999389648 101461.49871826 49021122.486456
39271	2586397 7316 25233 39563 145.25 197.5 210 160.43438720703 733.19219970703 92710.834777832 45708710.859073
vector 39425  IntersectionExampleScenario.node[103].veinsmobility  posx  ETV
vector 39426  IntersectionExampleScenario.node[103].veinsmobility  posy  ETV
vector 39427  IntersectionExampleScenario.node[103].veinsmobility  speed  ETV
vector 39428  IntersectionExampleScenario.node[103].veinsmobility  acceleration  ETV
vector 39429  IntersectionExampleScenario.node[103].veinsmobility  co2emission  ETV
vector 39432  IntersectionExampleScenario.node[104].veinsmobility  posx  ETV
vector 39433  IntersectionExampleScenario.node[104].veinsmobility  posy  ETV
vector 39434  IntersectionExampleScenario.node[104].veinsmobility  speed  ETV
vector 39435  IntersectionExampleScenario.node[104].veinsmobility  acceleration  ETV
vector 39436  IntersectionExampleScenario.node[104].veinsmobility  co2emission  ETV
39072	2594525 14144 11462 41061 90.75 203.25 451 0.973 11.450879080643 870.52239349559 3379.6208970597
39071	2608669 14009 11462 41061 90.75 203.25 451 -7.1178913116455 4 38.171613693237 885.58056613847
39070	2622678 14208 11401 41061 90.5 203.25 452 0 15.375 2104.2285802737 25509.036730699
39069	2636886 15817 11340 41061 90.25 203.25 453 486.85000610352 486.85000610352 220543.05276489 107371386.58468
39068	2652703 15772 11340 41061 90.25 203.25 453 237.14044189453 759.85135650635 237193.09677887 128067230.10211
39044	2668475 14490 10870 41329 88.25 204.25 465 0.973 11.810082123732 927.82334617562 3732.7714339767
39043	2682965 14506 10870 41329 88.25 204.25 465 -4.5 2.5 40.208654403687 773.33474198906
39042	2697471 14719 10814 41329 88 204.25 466 0 15.875 2244.8746387661 25578.20366623
39041	2712190 16287 10757 41329 87.75 204.25 467 486.85000610352 731.48774719238 235210.35412598 119609992.27157
39040	2728477 16255 10757 41329 87.75 204.25 467 486.85000610352 802.69332122803 260026.18284607 147476359.65384
vector 39439  IntersectionExampleScenario.node[105].veinsmobility  posx  ETV
vector 39440  IntersectionExampleScenario.node[105].veinsmobility  posy  ETV
vector 39441  IntersectionExampleScenario.node[105].veinsmobility  speed  ETV
vector 39442  IntersectionExampleScenario.node[105].veinsmobility  acceleration  ETV
vector 39443  IntersectionExampleScenario.node[105].veinsmobility  co2emission  ETV
39058	2745138 15240 10986 42036 88.75 207 474 0.973 11.54047740176 879.88064503652 3001.9957034962
39057	2760378 15809 10986 42036 88.75 207 474 -4.5 2.5000009536743 36.98334312439 698.33902416603
39056	2776187 15950 10927 42036 88.5 207 475 0 15.5 2343.187285604 26142.711535238
39055	2792137 16613 10870 42036 88.25 207 476 486.85000610352 486.85000610352 231740.60290527 112822913.93887
39054	2808750 16560 10870 42036 88.25 207 476 236.71368408203 818.00135040283 260267.23977661 147931796.44596
vector 39446  IntersectionExampleScenario.node[106].veinsmobility  posx  ETV
vector 39447  IntersectionExampleScenario.node[106].veinsmobility  posy  ETV
39079	2825466 15420 11588 42482 91.25 208.75 471 0.973 10.65035628006 870.4480454925 2801.5347302374
39078	2840886 16370 11588 42482 91.25 208.75 471 -4.5 2.5 37.662351608276 536.83768405377
39077	2857256 16406 11525 42482 91 208.75 472 0 15.096119880676 2339.4307649247 26095.558521395
39076	2873662 16519 11462 42482 90.75 208.75 473 486.85000610352 486.85000610352 230280.05288696 112111845.15354
[...]
42086	33990417 20276 306260 350093 1073.75 1210.5 548 486.85000610352 486.85000610352 266793.80334473 129888564.78676
42087	34010693 19884 306353 350093 1074 1210.5 547 0 11.89999961853 927.04733461421 4818.7818060357
42088	34030577 20349 306446 350093 1074.25 1210.5 546 -4.5 2.5 -22.60000038147 450.51317588904
42089	34050926 18553 306446 350093 1074.25 1210.5 546 0.973 9.0094788378334 709.02695463013 1357.9948030453
42148	34069479 14897 318120 350093 1109.75 1210.5 404 560.01663208008 785.82187652588 250326.04322052 156057978.76956
42149	34084376 14948 318120 350093 1109.75 1210.5 404 486.85000610352 486.85000610352 196687.40246582 95757263.09097
42150	34099324 14631 318199 350093 1110 1210.5 403 0 15.02499961853 902.43090588134 6140.9883269726
42151	34113955 14909 318278 350093 1110.25 1210.5 402 -4.5 2.5 -22.545860115439 419.49488784227
42152	34128864 13546 318278 350093 1110.25 1210.5 402 0.973 11.200708441096 575.50633734633 1603.729660701
42162	34142410 14267 319061 350093 1112.75 1210.5 392 568.4401550293 798.59687805176 246892.67688751 156619173.97237
42163	34156677 14504 319061 350093 1112.75 1210.5 392 486.85000610352 486.85000610352 190845.20239258 92912987.949654
42164	34171181 13549 319144 350093 1113 1210.5 391 0 11.27499961853 920.61295043491 5292.3622982553
42165	34184730 13606 319227 350093 1113.25 1210.5 390 -4.5 2.5 -18.410598278046 448.09382212021
42166	34198336 12764 319227 350093 1113.25 1210.5 390 0.973 8.5795037135332 532.19312317483 1116.6752952754
42190	34211100 13467 321228 350093 1119.5 1210.5 365 577.04434204102 785.82187652588 231232.38874054 147406334.1363
42191	34224567 13505 321228 350093 1119.5 1210.5 365 486.85000610352 486.85000610352 177700.25222778 86513368.881693
42192	34238072 13175 321309 350093 1119.75 1210.5 364 0 8.5673370361328 833.72481624493 4656.8572281352
42193	34251247 13449 321390 350093 1120 1210.5 363 -4.5 2.5 -18.588528633118 304.77693092606
42194	34264696 12135 321390 350093 1120 1210.5 363 0.973 5.6304533568076 472.94506971073 764.24650651132
42197	34276831 13295 321552 350093 1120.5 1210.5 361 585.05545043945 807.99687957764 231593.22985077 149609974.00394
42198	34290126 13357 321552 350093 1120.5 1210.5 361 486.85000610352 486.85000610352 175752.85220337 85565277.167921
42199	34303483 12274 321635 350093 1120.75 1210.5 360 0 9.411937713623 892.64711043332 5812.2886804361
42200	34315757 12593 321718 350093 1121 1210.5 359 -4.2751178741455 2.5 -13.255809783936 229.49941252161
42201	34328350 11729 321718 350093 1121 1210.5 359 0.973 6.231139007575 460.99744322116 724.82779839572
42225	34340079 11856 324559 350093 1129.75 1210.5 324 592.52456665039 785.82187652588 207594.14421082 133655003.85875
42226	34351935 11988 324559 350093 1129.75 1210.5 324 486.85000610352 486.85000610352 157739.40197754 76795428.81553
42227	34363923 10856 324641 350093 1130 1210.5 323 0 10.610851287842 772.95795440301 5596.2939196039
42228	34374779 11058 324722 350093 1130.25 1210.5 322 -4.5 4 -16.251895427704 311.26426276335
42229	34385837 10459 324722 350093 1130.25 1210.5 322 0.973 7.303684162087 423.63843694807 758.50120325451
42260	34396296 9113 330559 350093 1149 1210.5 247 601.60504150391 785.82187652588 159274.41249847 103247342.15638
42261	34405409 9138 330559 350093 1149 1210.5 247 486.85000610352 486.85000610352 120251.95150757 58544663.325419
42262	34414547 8729 330632 350093 1149.25 1210.5 246 0 15.02499961853 739.37235603761 5630.9643515614
42263	34423276 8837 330705 350093 1149.5 1210.5 245 -4.5 2.5000009536743 -11.641486167908 372.79825234556
42264	34432113 7985 330705 350093 1149.5 1210.5 245 0.973 11.200708441096 397.47818631453 1443.8080453274
42267	34440098 8807 331213 350093 1151.25 1210.5 238 486.85000610352 486.85000610352 115870.30145264 56411456.969432
42268	34448905 8764 331213 350093 1151.25 1210.5 238 184.17810058594 471.60000610352 96859.304626465 41169306.183698
42269	34457669 7736 331286 350093 1151.5 1210.5 237 0 15.02499961853 1148.5555824824 13186.837178656
42270	34465405 7628 331359 350093 1151.75 1210.5 236 -31.255870819092 2.5 -22.60000038147 1253.2116965164
42271	34473033 7322 331359 350093 1151.75 1210.5 236 0.973 11.200708441096 429.88447829774 1680.2870326512
42274	34480355 8621 331578 350093 1152.5 1210.5 233 483.14999389648 483.14999389648 112573.94857788 54390102.568306
42275	34488976 8605 331578 350093 1152.5 1210.5 233 266.63366699219 785.82187652588 121741.89125824 67262818.134377
42276	34497581 7343 331653 350093 1152.75 1210.5 232 0 15.375 2090.9917709827 29054.998719784
42277	34504924 7056 331727 350093 1153 1210.5 231 -8.4870567321777 4 37.15309715271 481.82449572734
42278	34511980 7632 331727 350093 1153 1210.5 231 0.973 11.450879080643 583.04110469075 2822.2420357886
42281	34519612 8546 331727 350093 1153 1210.5 231 486.85000610352 486.85000610352 112462.35140991 54752296.470331
42282	34528158 8449 331727 350093 1153 1210.5 231 164.94219970703 465.2018737793 91349.503051758 38026287.500158
42283	34536607 7749 331802 350093 1153.25 1210.5 230 0 15.726511955261 1198.6590356873 14564.963817854
42284	34544356 7662 331877 350093 1153.5 1210.5 229 -4.5 2.5 -22.60000038147 457.83209967545
42285	34552018 7314 331877 350093 1153.5 1210.5 229 0.973 11.200708441096 433.71014109291 1671.0527125561
42288	34559332 7853 333061 350093 1157.5 1210.5 213 611.4885559082 785.82187652588 138286.37306976 90258908.686418
42289	34567185 7881 333061 350093 1157.5 1210.5 213 486.85000610352 486.85000610352 103699.05130005 50485883.758357
42290	34575066 7692 333134 350093 1157.75 1210.5 212 0 12.52499961853 698.72472406365 6259.0636016373
42291	34582758 7791 333207 350093 1158 1210.5 211 -4.5 2.5 -12.642339706421 287.08899949144
42292	34590549 6985 333207 350093 1158 1210.5 211 0.973 9.442030466751 337.92101298657 1152.98828684
42295	34597534 7644 333499 350093 1159 1210.5 207 285.84259033203 483.14999389648 94790.731658936 43956433.449651
42296	34605178 7649 333499 350093 1159 1210.5 207 486.72567749023 785.82187652588 115976.37418365 66816366.151495
42297	34612827 7306 333574 350093 1159.25 1210.5 206 0 15.875 1988.9313071836 26671.75968376
42298	34620133 7255 333651 350093 1159.5 1210.5 205 -3.8738594055176 2.5 39.529653549194 358.6316320793
42299	34627388 6999 333651 350093 1159.5 1210.5 205 0.973 11.810082123732 557.39213095085 2882.7842982807
42302	34634387 7604 333574 350093 1159.25 1210.5 206 630.03080749512 805.05782318115 138149.55222321 93156704.204059
42303	34641991 7623 333574 350093 1159.25 1210.5 206 486.85000610352 486.85000610352 100291.10125732 48826723.259256
42304	34649614 7554 333651 350093 1159.5 1210.5 205 0 12.049890518188 699.75576319732 5401.2296656156
42305	34657168 7557 333727 350093 1159.75 1210.5 204 -4.5 2.5 -16.288247108459 320.03064236018
42306	34664725 6794 333727 350093 1159.75 1210.5 204 0.973 9.0094788378334 340.66405647134 1060.6063213741
42309	34671519 7478 333802 350093 1160 1210.5 203 184.17810058594 596.85928344727 84876.788909912 37767943.531769
42310	34678997 7510 333802 350093 1160 1210.5 203 483.14999389648 483.14999389648 98079.448760986 47387085.070241
42311	34686507 6291 333879 350093 1160.25 1210.5 202 0 15.02499961853 1664.6597268581 22355.75479369
42312	34692798 6098 333956 350093 1160.5 1210.5 201 -7.5492105484009 4 35.965402603149 468.45118032671
42313	34698896 6576 333956 350093 1160.5 1210.5 201 0.973 11.200708441096 512.01009513865 2563.2383385229
42316	34705472 7405 333956 350093 1160.5 1210.5 201 638.75685119629 816.71329498291 136836.25041199 93665018.34119
42317	34712877 7437 333956 350093 1160.5 1210.5 201 486.85000610352 486.85000610352 97856.851226807 47641608.617041
42318	34720314 7373 334035 350093 1160.75 1210.5 200 0 12.28262424469 711.48577592149 5567.5234694917
42319	34727687 7374 334114 350093 1161 1210.5 199 -4.5 2.5 -16.159700870514 272.23373274993
42320	34735061 6604 334114 350093 1161 1210.5 199 0.973 8.5795037135332 320.7894324935 898.26008331051
42323	34741665 7250 334351 350093 1161.75 1210.5 196 483.14999389648 649.29426574707 98477.107559204 49821188.953677
42324	34748915 7230 334351 350093 1161.75 1210.5 196 483.14999389648 800.04531860352 112383.14382172 66396960.245679
42325	34756145 6897 334431 350093 1162 1210.5 195 0 15.64999961853 1929.5279553421 24848.726165315
42326	34763042 6950 334510 350093 1162.25 1210.5 194 -4.5 2.5 38.511152267456 392.68924696685
42327	34769992 6577 334510 350093 1162.25 1210.5 194 0.973 11.648172402475 536.59691320629 2835.8119597748
42330	34776569 7156 334510 350093 1162.25 1210.5 194 620.45593261719 758.21485900879 126120.68997192 82245722.251978
42331	34783725 7179 334510 350093 1162.25 1210.5 194 486.85000610352 486.85000610352 94448.901184082 45982448.117941
42332	34790904 7091 334593 350093 1162.5 1210.5 193 0 11.565857887268 549.78699293733 4285.030142009
42333	34797995 7194 334676 350093 1162.75 1210.5 192 -4.5 2.5 -17.123520851135 228.05243038084
42334	34805189 6450 334676 350093 1162.75 1210.5 192 0.973 8.5795037135332 279.70798627437 720.34090835697
42337	34811639 7179 334510 350093 1162.25 1210.5 194 486.84994506836 486.85000610352 94448.901092529 45982448.028796
42338	34818818 7135 334510 350093 1162.25 1210.5 194 184.17810058594 458.55899047852 75218.267852783 30586643.461922
42339	34825953 7101 334593 350093 1162.5 1210.5 193 0 15.64999961853 1096.6097836997 12157.991774107
42340	34833054 7121 334676 350093 1162.75 1210.5 192 -4.5 2.5 -22.527023151517 230.90540650663
42341	34840175 6062 334676 350093 1162.75 1210.5 192 0.97223939240464 11.648172402475 350.29137166255 1531.6453187792
42344	34846237 6918 335088 350093 1164 1210.5 187 486.84994506836 486.85000610352 91040.950836182 44323287.32169
42345	34853155 6878 335088 350093 1164 1210.5 187 164.94219970703 450.08151245117 69723.630096436 27517158.458676
42346	34860033 6860 335171 350093 1164.25 1210.5 186 0 15.02499961853 1140.0005323179 13452.518166375
42347	34866893 6844 335254 350093 1164.5 1210.5 185 -4.5 2.5 -20.945920109749 282.54931265265
42348	34873737 6309 335254 350093 1164.5 1210.5 185 0.973 11.200708441096 348.75117981585 1386.5933382762
42351	34880046 6773 335337 350093 1164.75 1210.5 184 184.17810058594 569.93725585938 74966.43460083 32478883.87207
42352	34886819 6808 335337 350093 1164.75 1210.5 184 483.14999389648 483.14999389648 88899.598876953 42951840.6548
42353	34893627 6629 335422 350093 1165 1210.5 183 0 15.668654441833 1561.8623484382 21238.936154071
42354	34900256 6444 335507 350093 1165.25 1210.5 182 -4.5 2.5 40.074617385864 411.3041694166
42355	34906700 6336 335507 350093 1165.25 1210.5 182 0.973 11.200708441096 513.13158309451 2618.8692700114
42358	34913036 6544 335923 350093 1166.5 1210.5 177 348.34356689453 483.14999389648 83116.007659912 39206832.401514
42359	34919580 6538 335923 350093 1166.5 1210.5 177 486.85000610352 793.42692565918 102100.20236206 60600825.861939
42360	34926118 6156 336008 350093 1166.75 1210.5 176 0 16.684350967407 1771.6821854543 23634.41823873
42361	34932274 5937 336093 350093 1167 1210.5 175 -4.6721038818359 2.5 43.946157455444 474.54004106163
42362	34938211 5919 336093 350093 1167 1210.5 175 0.973 11.810082123732 557.16822448752 3205.859832128
42365	34944130 6422 336177 350093 1167.25 1210.5 174 655.07203674316 793.32452392578 119732.23081207 82676647.766626
42366	34950552 6439 336177 350093 1167.25 1210.5 174 486.85000610352 486.85000610352 84711.901062012 41241989.549081
42367	34956991 6311 336262 350093 1167.5 1210.5 173 0 10.013776779175 552.07736242376 3784.10982973
42368	34963302 6352 336347 350093 1167.75 1210.5 172 -4.5 2.5000000596046 -19.2047290802 282.48810415018
42369	34969654 5865 336347 350093 1167.75 1210.5 172 0.973 7.468464214805 252.46301696776 569.80595336311
42372	34975519 6228 336602 350093 1168.5 1210.5 169 646.43380737305 760.84664154053 113799.85610962 76795425.266178
42373	34981747 6253 336602 350093 1168.5 1210.5 169 486.85000610352 486.85000610352 82277.651031494 40056874.906866
42374	34988000 6106 336688 350093 1168.75 1210.5 168 0 9.4196376800537 455.00435612909 2767.600187695
42375	34994106 6294 336773 350093 1169 1210.5 167 -3.7590761184692 2.5 -22.60000038147 177.71890808934
42376	35000400 5528 336773 350093 1169 1210.5 167 0.973 6.4635356930995 222.93207271174 430.79552785908
42379	35005928 6090 336943 350093 1169.5 1210.5 165 662.44378662109 807.30187225342 114875.77364349 80277481.787576
42380	35012018 6105 336943 350093 1169.5 1210.5 165 486.85000610352 486.85000610352 80330.25100708 39108783.193094
42381	35018123 5972 337030 350093 1169.75 1210.5 164 0 10.905923843384 578.9482839033 4550.1501349067
42382	35024095 6003 337117 350093 1170 1210.5 163 -4.5 2.5000000298023 -18.637014627457 257.22897244552
42383	35030098 5487 337117 350093 1170 1210.5 163 0.973 7.4449750146205 244.20813661729 580.28448314296
42386	35035585 5920 337378 350093 1170.75 1210.5 160 486.85000610352 486.85012817383 77896.001861572 37923669.412613
42387	35041505 5892 337378 350093 1170.75 1210.5 160 184.17810058594 438.71124267578 58947.951416016 22832661.675244
42388	35047397 5686 337466 350093 1171 1210.5 159 0 15.961703300476 1016.6540668011 12176.527380843
42389	35053083 5659 337553 350093 1171.25 1210.5 158 -3.7535593509674 2.5 -21.529159903526 219.00751394289
42390	35058742 5090 337553 350093 1171.25 1210.5 158 0.973 11.581320661238 309.67584628885 1379.4276572832
42393	35063832 4402 340794 350093 1181 1210.5 119 483.14999389648 483.14999389648 57494.849273682 27778636.075658
42394	35068234 4395 340794 350093 1181 1210.5 119 498.39999389648 785.82187652588 72167.134742737 44994841.60705
42395	35072629 3941 340874 350093 1181.25 1210.5 118 0 15.793732643127 1146.2553749084 15917.874807878
42396	35076570 3771 340953 350093 1181.5 1210.5 117 -7.2747449874878 2.5 -22.60000038147 331.20970977177
42397	35080341 3771 340953 350093 1181.5 1210.5 117 0.973 11.751551273826 307.2306393309 1739.4763977341
42400	35084112 3700 342276 350093 1185.75 1210.5 100 483.14999389648 483.14999389648 48314.999389648 23343391.660217
42401	35087812 3686 342276 350093 1185.75 1210.5 100 508.39410400391 785.82187652588 63268.637809753 40903441.790336
42402	35091498 3640 342353 350093 1186 1210.5 99 1.5891503095627 15.02499961853 1111.1852996349 14483.194177047
42403	35095138 3659 342430 350093 1186.25 1210.5 98 -2.9674644470215 2.5 -16.243399143219 187.16816596676
42404	35098797 3239 342430 350093 1186.25 1210.5 98 0.973 11.200708441096 250.4174620811 1288.9300151534
42407	35102036 3584 342507 350093 1186.5 1210.5 97 670.39038085938 785.82187652588 68340.997077942 48278409.510391
42408	35105620 3589 342507 350093 1186.5 1210.5 97 486.85000610352 486.85000610352 47224.450592041 22991224.05897
42409	35109209 3460 342586 350093 1186.75 1210.5 96 0 13.14999961853 461.54801348597 3795.921063297
42410	35112669 3376 342665 350093 1187 1210.5 95 -3.5602288246155 2.5 -17.126787185669 206.01636916327
42411	35116045 2914 342665 350093 1187 1210.5 95 0.973 9.8772939209111 184.91218557654 830.25230395234
42414	35118959 3136 343440 350093 1189.5 1210.5 85 679.60491943359 798.59687805176 61976.937797546 45309000.525243
42415	35122095 3145 343440 350093 1189.5 1210.5 85 486.85000610352 486.85000610352 41382.250518799 20146948.917654
42416	35125240 3096 343519 350093 1189.75 1210.5 84 2.0077238082886 8.8499126434326 476.42327666283 3053.4680664997
42417	35128336 3019 343598 350093 1190 1210.5 83 -2.0932807922363 2.5 -14.504133224487 86.705340772116
42418	35131355 2625 343598 350093 1190 1210.5 83 0.973 6.9330230591763 138.44019464283 381.55958385884
42421	35133980 2620 344522 350093 1193 1210.5 71 692.34648132324 804.55017852783 52385.115371704 38749943.13609
42422	35136600 2626 344522 350093 1193 1210.5 71 486.85000610352 486.85000610352 34566.35043335 16828627.919452
42423	35139226 2576 344599 350093 1193.25 1210.5 70 0 9.429256439209 451.09789073095 3561.5406506415
42424	35141802 2540 344676 350093 1193.5 1210.5 69 -4.5 2.5000000149012 -10.406425476074 159.35996006638
42425	35144342 2309 344676 350093 1193.5 1210.5 69 0.973 6.4635356930995 122.1872511708 317.28105822411
42428	35146651 2507 344753 350093 1193.75 1210.5 68 702.76988220215 818.18447113037 51081.249031067 38478041.193765
42429	35149158 2516 344753 350093 1193.75 1210.5 68 486.85000610352 486.85000610352 33105.800415039 16117559.134124
42430	35151674 2430 344832 350093 1194 1210.5 67 0 10.346218109131 461.11371170357 3921.7482011223
42431	35154104 2323 344911 350093 1194.25 1210.5 66 -4.5 2.5 -17.60000038147 220.8461374336
42432	35156427 2284 344911 350093 1194.25 1210.5 66 0.973 5.4742331181134 133.96745363847 356.64658890459
42435	35158711 2303 345148 350093 1195 1210.5 63 184.17810058594 398.63064575195 17707.003387451 5258506.0192516
42436	35161014 2330 345148 350093 1195 1210.5 63 483.14999389648 483.14999389648 30438.449615479 14706336.745937
42437	35163344 2278 345229 350093 1195.25 1210.5 62 5.6500000953674 15.64999961853 878.57873725891 12899.726206878
42438	35165622 2172 345310 350093 1195.5 1210.5 61 -0.16003036499023 2.5 39.359884262085 100.05852631538
42439	35167794 2252 345310 350093 1195.5 1210.5 61 1.6123734813312 11.648172402475 230.93151177515 1397.2350337924
42442	35170046 2257 345310 350093 1195.5 1210.5 61 486.85000610352 486.85000610352 29697.850372314 14458398.635023
42443	35172303 2234 345310 350093 1195.5 1210.5 61 184.17810058594 377.93817138672 16755.973754883 4835606.4460015
42444	35174537 2209 345393 350093 1195.75 1210.5 60 5.6500000953674 15.02499961853 788.53613090515 10759.942077576
42445	35176746 2100 345476 350093 1196 1210.5 59 -2.0598373413086 2.5 17.351408004761 130.39911728574
42446	35178846 2065 345476 350093 1196 1210.5 59 0.973 11.200708441096 202.90496613299 1210.508887748
42449	35180911 2034 345803 350093 1197 1210.5 55 483.14999389648 483.14999389648 26573.249664307 12838865.413119
42450	35182945 2030 345803 350093 1197 1210.5 55 607.4716796875 785.82187652588 38820.962791443 27572555.125375
42451	35184975 1988 345886 350093 1197.25 1210.5 54 5.6500000953674 15.02499961853 732.81453418732 10315.505117533
42452	35186963 1930 345968 350093 1197.5 1210.5 53 -2.0000038146973 2.5 35.153093338013 97.767197884637
42453	35188893 1944 345968 350093 1197.5 1210.5 53 0.973 11.200708441096 201.4790591363 1218.3207480279
42456	35190837 1760 346373 350093 1198.75 1210.5 48 176.21716308594 332.85961914062 11755.879882812 2996009.1616756
42457	35192597 1776 346373 350093 1198.75 1210.5 48 483.14999389648 483.14999389648 23191.199707031 11204827.996904
42458	35194373 1721 346456 350093 1199 1210.5 47 5.6500000953674 15.64999961853 647.37493991852 9336.20281391
42459	35196094 1643 346539 350093 1199.25 1210.5 46 -0.11759185791016 2.5 39.529714584351 100.03159724121
42460	35197737 1698 346539 350093 1199.25 1210.5 46 1.7729555826186 11.648172402475 198.68867243962 1327.589846998
42463	35199435 777 348521 350093 1205.5 1210.5 21 483.14999389648 483.14999389648 10146.149871826 4902112.2486456
42464	35200212 776 348521 350093 1205.5 1210.5 21 734.47785949707 785.82187652588 16071.736671448 12305513.037225
42465	35200988 730 348598 350093 1205.75 1210.5 20 5.6500000953674 15.02499961853 225.33094501495 2740.565361335
42466	35201718 546 348675 350093 1206 1210.5 19 -0.086727142333984 2.5 37.262853622437 93.765461422652
42467	35202264 699 348675 350093 1206 1210.5 19 1.8321577376031 11.200708441096 130.31970526464 1068.0807081924
42470	35202963 629 348829 350093 1206.5 1210.5 17 486.85000610352 486.85000610352 8276.4501037598 4029389.7835309
42471	35203592 612 348829 350093 1206.5 1210.5 17 184.17810058594 220.59997558594 3378.6529541016 673752.85246629
42472	35204204 583 348908 350093 1206.75 1210.5 16 5.6500000953674 15.02499961853 165.39999580383 1842.6348989391
42473	35204787 386 348987 350093 1207 1210.5 15 2.4999980926514 2.5 37.499998092651 93.74999046326
42474	35205173 551 348987 350093 1207 1210.5 15 5.2162187258585 11.200708441096 122.60236467337 1053.1736850581
