file 47843857 1591469321                                        
version 2
run nodebug-19-20200606-14:39:20-18812
attr configname nodebug
attr datetime 20200606-14:39:20
attr experiment nodebug
attr inifile omnetpp.ini
attr iterationvars ""
attr iterationvars2 $repetition=19
attr measurement ""
attr network "\"org.car2x.veins.modules.application.ExtTraCIScenarioManagerLaunchd.IntersectionExampleScenario\""
attr processid 18812
attr repetition 19
attr replication #19
attr resultdir results
attr runnumber 19
attr seedset 19
param **.coreDebug false
param **.debug false
param *.**.nic.mac1609_4.bitrate 18Mbps
param *.**.nic.mac1609_4.txPower 20mW
param *.**.nic.mac1609_4.useServiceChannel false
param *.**.nic.phy80211p.analogueModels "xmldoc(\"config.xml\")"
param *.**.nic.phy80211p.decider "xmldoc(\"config.xml\")"
param *.**.nic.phy80211p.sensitivity -89dBm
param *.**.nic.phy80211p.thermalNoise -110dBm
param *.**.nic.phy80211p.usePropagationDelay true
param *.**.nic.phy80211p.useThermalNoise true
param *.annotations.draw false
param *.connectionManager.alpha 2.0
param *.connectionManager.carrierFrequency "5.890e9 Hz"
param *.connectionManager.pMax 20mW
param *.connectionManager.sat -89dBm
param *.connectionManager.sendDirect true
param *.manager.autoShutdown true
param *.manager.host "\"localhost\""
param *.manager.launchConfig "xmldoc(\"paramics.launchd.xml\")"
param *.manager.margin 25
param *.manager.moduleDisplayString "\"\""
param *.manager.moduleName "\"node\""
param *.manager.moduleType "\"org.car2x.veins.nodes.Car\""
param *.manager.port 9999
param *.manager.updateInterval 250ms
param *.node[*0].veinsmobility.accidentCount 0
param *.node[*0].veinsmobility.accidentDuration 30s
param *.node[*0].veinsmobility.accidentStart 75s
param *.node[*].appl.LiderSelectZoneRadio 55.0
param *.node[*].appl.ShareDataZoneRadio 110.0
param *.node[*].appl.TiempoSemaforo 30.0
param *.node[*].appl.beaconInterval 1s
param *.node[*].appl.beaconPriority 3
param *.node[*].appl.dataOnSch false
param *.node[*].appl.dataPriority 2
param *.node[*].appl.debug false
param *.node[*].appl.headerLength "256 bit"
param *.node[*].appl.maxOffset 0.005s
param *.node[*].appl.sendBeacons false
param *.node[*].appl.sendData true
param *.node[*].applType "\"Dummy\""
param *.node[*].mobilityType "\"TraCIMobility\""
param *.node[*].mobilityType.debug true
param *.node[*].veinsmobility.x 0
param *.node[*].veinsmobility.y 0
param *.node[*].veinsmobility.z 1.895
param *.node[*].veinsmobilityType "\"org.car2x.veins.modules.mobility.traci.TraCIMobility\""
param *.node[*].veinsmobilityType.debug true
param *.playgroundSizeX 8500m
param *.playgroundSizeY 8500m
param *.playgroundSizeZ 50m
param *.world.use2D false
param *.world.useTorus false

vector 21969  IntersectionExampleScenario.manager  vehiclesinsim  ETV
attr type  int
vector 21970  IntersectionExampleScenario.manager  realtime  ETV
attr type  int
attr unit  s
vector 21973  IntersectionExampleScenario.node[0].veinsmobility  posx  ETV
vector 21974  IntersectionExampleScenario.node[0].veinsmobility  posy  ETV
vector 21980  IntersectionExampleScenario.node[1].veinsmobility  posx  ETV
vector 21981  IntersectionExampleScenario.node[1].veinsmobility  posy  ETV
vector 21975  IntersectionExampleScenario.node[0].veinsmobility  speed  ETV
vector 21976  IntersectionExampleScenario.node[0].veinsmobility  acceleration  ETV
vector 21977  IntersectionExampleScenario.node[0].veinsmobility  co2emission  ETV
vector 21982  IntersectionExampleScenario.node[1].veinsmobility  speed  ETV
vector 21983  IntersectionExampleScenario.node[1].veinsmobility  acceleration  ETV
vector 21984  IntersectionExampleScenario.node[1].veinsmobility  co2emission  ETV
vector 21987  IntersectionExampleScenario.node[2].veinsmobility  posx  ETV
vector 21988  IntersectionExampleScenario.node[2].veinsmobility  posy  ETV
vector 21989  IntersectionExampleScenario.node[2].veinsmobility  speed  ETV
vector 21990  IntersectionExampleScenario.node[2].veinsmobility  acceleration  ETV
vector 21991  IntersectionExampleScenario.node[2].veinsmobility  co2emission  ETV
vector 21994  IntersectionExampleScenario.node[3].veinsmobility  posx  ETV
vector 21995  IntersectionExampleScenario.node[3].veinsmobility  posy  ETV
vector 21996  IntersectionExampleScenario.node[3].veinsmobility  speed  ETV
vector 22001  IntersectionExampleScenario.node[4].veinsmobility  posx  ETV
vector 22002  IntersectionExampleScenario.node[4].veinsmobility  posy  ETV
vector 21997  IntersectionExampleScenario.node[3].veinsmobility  acceleration  ETV
vector 21998  IntersectionExampleScenario.node[3].veinsmobility  co2emission  ETV
vector 22003  IntersectionExampleScenario.node[4].veinsmobility  speed  ETV
vector 22004  IntersectionExampleScenario.node[4].veinsmobility  acceleration  ETV
vector 22005  IntersectionExampleScenario.node[4].veinsmobility  co2emission  ETV
vector 22008  IntersectionExampleScenario.node[5].veinsmobility  posx  ETV
vector 22009  IntersectionExampleScenario.node[5].veinsmobility  posy  ETV
vector 22010  IntersectionExampleScenario.node[5].veinsmobility  speed  ETV
vector 22011  IntersectionExampleScenario.node[5].veinsmobility  acceleration  ETV
vector 22012  IntersectionExampleScenario.node[5].veinsmobility  co2emission  ETV
vector 22015  IntersectionExampleScenario.node[6].veinsmobility  posx  ETV
vector 22016  IntersectionExampleScenario.node[6].veinsmobility  posy  ETV
vector 22017  IntersectionExampleScenario.node[6].veinsmobility  speed  ETV
vector 22018  IntersectionExampleScenario.node[6].veinsmobility  acceleration  ETV
vector 22019  IntersectionExampleScenario.node[6].veinsmobility  co2emission  ETV
vector 22022  IntersectionExampleScenario.node[7].veinsmobility  posx  ETV
vector 22023  IntersectionExampleScenario.node[7].veinsmobility  posy  ETV
vector 22024  IntersectionExampleScenario.node[7].veinsmobility  speed  ETV
vector 22025  IntersectionExampleScenario.node[7].veinsmobility  acceleration  ETV
vector 22026  IntersectionExampleScenario.node[7].veinsmobility  co2emission  ETV
vector 22029  IntersectionExampleScenario.node[8].veinsmobility  posx  ETV
vector 22030  IntersectionExampleScenario.node[8].veinsmobility  posy  ETV
vector 22031  IntersectionExampleScenario.node[8].veinsmobility  speed  ETV
vector 22032  IntersectionExampleScenario.node[8].veinsmobility  acceleration  ETV
vector 22033  IntersectionExampleScenario.node[8].veinsmobility  co2emission  ETV
vector 22036  IntersectionExampleScenario.node[9].veinsmobility  posx  ETV
vector 22037  IntersectionExampleScenario.node[9].veinsmobility  posy  ETV
vector 22038  IntersectionExampleScenario.node[9].veinsmobility  speed  ETV
vector 22039  IntersectionExampleScenario.node[9].veinsmobility  acceleration  ETV
vector 22040  IntersectionExampleScenario.node[9].veinsmobility  co2emission  ETV
vector 22043  IntersectionExampleScenario.node[10].veinsmobility  posx  ETV
vector 22044  IntersectionExampleScenario.node[10].veinsmobility  posy  ETV
vector 22050  IntersectionExampleScenario.node[11].veinsmobility  posx  ETV
vector 22051  IntersectionExampleScenario.node[11].veinsmobility  posy  ETV
vector 22045  IntersectionExampleScenario.node[10].veinsmobility  speed  ETV
vector 22046  IntersectionExampleScenario.node[10].veinsmobility  acceleration  ETV
vector 22047  IntersectionExampleScenario.node[10].veinsmobility  co2emission  ETV
vector 22052  IntersectionExampleScenario.node[11].veinsmobility  speed  ETV
vector 22053  IntersectionExampleScenario.node[11].veinsmobility  acceleration  ETV
vector 22054  IntersectionExampleScenario.node[11].veinsmobility  co2emission  ETV
vector 22057  IntersectionExampleScenario.node[12].veinsmobility  posx  ETV
vector 22058  IntersectionExampleScenario.node[12].veinsmobility  posy  ETV
vector 22064  IntersectionExampleScenario.node[13].veinsmobility  posx  ETV
vector 22065  IntersectionExampleScenario.node[13].veinsmobility  posy  ETV
vector 22059  IntersectionExampleScenario.node[12].veinsmobility  speed  ETV
vector 22060  IntersectionExampleScenario.node[12].veinsmobility  acceleration  ETV
vector 22061  IntersectionExampleScenario.node[12].veinsmobility  co2emission  ETV
vector 22066  IntersectionExampleScenario.node[13].veinsmobility  speed  ETV
vector 22067  IntersectionExampleScenario.node[13].veinsmobility  acceleration  ETV
vector 22068  IntersectionExampleScenario.node[13].veinsmobility  co2emission  ETV
vector 22071  IntersectionExampleScenario.node[14].veinsmobility  posx  ETV
vector 22072  IntersectionExampleScenario.node[14].veinsmobility  posy  ETV
vector 22073  IntersectionExampleScenario.node[14].veinsmobility  speed  ETV
vector 22074  IntersectionExampleScenario.node[14].veinsmobility  acceleration  ETV
vector 22075  IntersectionExampleScenario.node[14].veinsmobility  co2emission  ETV
21977	8901 5107 20 2426 3.25 44.25 165 0.973 11.36141391502 495.51752359085 2592.2940786685
21976	14008 4729 20 2426 3.25 44.25 165 -3.4837322235107 2.5 35.964826583862 267.37121569727
21975	18737 5007 15 2426 3 44.25 166 5.6500000953674 15.25 2183.5541234016 29920.179896114
21974	23744 5358 12 2426 2.75 44.25 167 486.85000610352 733.42066955566 89814.489501953 49266306.117913
21973	29102 5357 12 2426 2.75 44.25 167 486.81900024414 785.82187652588 95506.821128845 56400003.484585
vector 22078  IntersectionExampleScenario.node[15].veinsmobility  posx  ETV
vector 22079  IntersectionExampleScenario.node[15].veinsmobility  posy  ETV
vector 22080  IntersectionExampleScenario.node[15].veinsmobility  speed  ETV
vector 22081  IntersectionExampleScenario.node[15].veinsmobility  acceleration  ETV
vector 22082  IntersectionExampleScenario.node[15].veinsmobility  co2emission  ETV
vector 22085  IntersectionExampleScenario.node[16].veinsmobility  posx  ETV
vector 22086  IntersectionExampleScenario.node[16].veinsmobility  posy  ETV
vector 22087  IntersectionExampleScenario.node[16].veinsmobility  speed  ETV
vector 22088  IntersectionExampleScenario.node[16].veinsmobility  acceleration  ETV
vector 22089  IntersectionExampleScenario.node[16].veinsmobility  co2emission  ETV
21984	35261 5831 25 3263 3.5 52.25 196 0.973 11.648172402475 567.26616147086 2931.0916009088
21983	41092 5369 25 3263 3.5 52.25 196 -7.092942237854 4 38.341367721558 478.53537292727
21982	46461 5665 20 3263 3.25 52.25 197 0 15.64999961853 2200.3473823071 31113.224980687
21981	52126 6361 15 3263 3 52.25 198 184.17810058594 486.85000610352 81640.856262207 35601803.320042
21980	58487 6386 15 3263 3 52.25 198 237.29504394531 486.85000610352 88021.352478027 40168432.340766
21998	64873 5664 299 4006 15 60.75 184 0.973 11.450879080643 541.90084127904 2769.089479781
21997	70537 5329 299 4006 15 60.75 184 -7.0903778076172 4 36.474081039429 461.16872759568
21996	75866 5573 290 4006 14.75 60.75 185 0 15.375 2205.201284647 30385.744960013
21995	81439 6079 281 4006 14.5 60.75 186 483.14999389648 785.82187652588 104667.82686615 60808779.870391
21994	87518 6081 281 4006 14.5 60.75 186 483.14999389648 734.18954467773 98586.417221069 53305867.708359
vector 22092  IntersectionExampleScenario.node[17].veinsmobility  posx  ETV
vector 22093  IntersectionExampleScenario.node[17].veinsmobility  posy  ETV
vector 22094  IntersectionExampleScenario.node[17].veinsmobility  speed  ETV
vector 22095  IntersectionExampleScenario.node[17].veinsmobility  acceleration  ETV
vector 22096  IntersectionExampleScenario.node[17].veinsmobility  co2emission  ETV
vector 22099  IntersectionExampleScenario.node[18].veinsmobility  posx  ETV
vector 22100  IntersectionExampleScenario.node[18].veinsmobility  posy  ETV
vector 22101  IntersectionExampleScenario.node[18].veinsmobility  speed  ETV
vector 22102  IntersectionExampleScenario.node[18].veinsmobility  acceleration  ETV
vector 22103  IntersectionExampleScenario.node[18].veinsmobility  co2emission  ETV
vector 22106  IntersectionExampleScenario.node[19].veinsmobility  posx  ETV
vector 22107  IntersectionExampleScenario.node[19].veinsmobility  posy  ETV
vector 22108  IntersectionExampleScenario.node[19].veinsmobility  speed  ETV
vector 22109  IntersectionExampleScenario.node[19].veinsmobility  acceleration  ETV
vector 22110  IntersectionExampleScenario.node[19].veinsmobility  co2emission  ETV
22019	94802 5110 696 4266 22.75 64 166 0.973 11.810082123732 554.25973944903 3375.2819875871
22018	99912 5008 696 4266 22.75 64 166 -3.704906463623 2.5 38.511121749878 367.77958885124
22017	104920 5144 681 4266 22.5 64 167 5.6500000953674 15.875 2189.3588256836 30219.828850055
22016	110064 5509 666 4266 22.25 64 168 486.78167724609 785.82187652588 95996.502754211 56600502.540824
22015	115573 5514 666 4266 22.25 64 168 235.1962890625 483.14999389648 72901.545013428 32590562.786766
vector 22113  IntersectionExampleScenario.node[20].veinsmobility  posx  ETV
vector 22114  IntersectionExampleScenario.node[20].veinsmobility  posy  ETV
vector 22115  IntersectionExampleScenario.node[20].veinsmobility  speed  ETV
vector 22116  IntersectionExampleScenario.node[20].veinsmobility  acceleration  ETV
vector 22117  IntersectionExampleScenario.node[20].veinsmobility  co2emission  ETV
vector 22120  IntersectionExampleScenario.node[21].veinsmobility  posx  ETV
vector 22121  IntersectionExampleScenario.node[21].veinsmobility  posy  ETV
vector 22122  IntersectionExampleScenario.node[21].veinsmobility  speed  ETV
vector 22123  IntersectionExampleScenario.node[21].veinsmobility  acceleration  ETV
vector 22124  IntersectionExampleScenario.node[21].veinsmobility  co2emission  ETV
21991	121889 6643 169 4569 10.5 67.25 228 0.97223939240464 11.648172402475 601.59276922157 2993.331759937
21990	128532 5983 169 4569 10.5 67.25 228 -7.1630792617798 4 38.680875778198 475.21272919869
21989	134515 6371 162 4569 10.25 67.25 229 0 15.64999961853 2217.0011966228 31576.668141371
21988	140886 7517 155 4569 10 67.25 230 483.14999389648 483.14999389648 111124.49859619 53689800.8185
21987	148403 7483 155 4569 10 67.25 230 184.17810058594 734.53523254395 104926.37251282 52044333.496705
22005	155886 6599 321 4762 15.5 69.25 216 0.97223939240464 11.648172402475 581.00264481342 2890.2584219344
22004	162485 6836 321 4762 15.5 69.25 216 -3.6927523612976 2.5 38.680875778198 356.0110006187
22003	169321 6974 310 4762 15.25 69.25 217 0 15.64999961853 2218.7735601254 30659.306498266
22002	176295 7141 299 4762 15 69.25 218 483.14999389648 483.14999389648 105326.69866943 50888593.819274
22001	183436 7098 299 4762 15 69.25 218 184.17810058594 734.09519958496 98622.94203186 48770917.623714
22047	190534 4967 1406 5107 34 73 157 0.973 11.54047740176 478.97957740487 2628.1905611083
22046	195501 4808 1406 5107 34 73 157 -2.8203620910645 2.5 37.15309715271 201.13651760546
22045	200309 4975 1383 5107 33.75 73 158 5.6500000953674 15.5 2216.8181591034 31674.356571983
22044	205284 5246 1362 5107 33.5 73 159 483.14999389648 483.14999389648 76820.849029541 37115992.739745
22043	210530 5220 1362 5107 33.5 73 159 184.17810058594 733.10940551758 71327.715820312 36197536.296761
vector 22127  IntersectionExampleScenario.node[22].veinsmobility  posx  ETV
vector 22128  IntersectionExampleScenario.node[22].veinsmobility  posy  ETV
vector 22129  IntersectionExampleScenario.node[22].veinsmobility  speed  ETV
vector 22130  IntersectionExampleScenario.node[22].veinsmobility  acceleration  ETV
vector 22131  IntersectionExampleScenario.node[22].veinsmobility  co2emission  ETV
22012	216151 7033 380 5446 16.75 76.5 240 0.973 10.756497587458 568.52643699312 2435.5255173349
22011	223184 6195 380 5446 16.75 76.5 240 -8.9238815307617 4 33.248777389526 448.29518104282
22010	229379 6741 367 5446 16.5 76.5 241 0 14.39999961853 2178.8043556213 28428.562855763
22009	236120 7882 354 5446 16.25 76.5 242 486.85000610352 733.55894470215 126738.68336487 67511736.036844
22008	244002 7933 354 5446 16.25 76.5 242 486.63604736328 785.82187652588 133275.79699707 75487490.898558
22033	251935 5639 1167 5469 30.75 76.75 185 0.97223939240464 11.648172402475 541.69338469327 2868.077397276
22032	257574 5586 1167 5469 30.75 76.75 185 -2.1208915710449 2.5000019073486 38.680875778198 296.88668756457
22031	263160 5866 1150 5469 30.5 76.75 186 2.4387016296387 15.64999961853 2205.543037653 29592.062230684
22030	269026 6172 1133 5469 30.25 76.75 187 237.19696044922 486.85000610352 82705.408630371 37593991.714009
22029	275198 6168 1133 5469 30.25 76.75 187 483.14999389648 785.82187652588 105688.67819977 61560283.203025
22054	281366 5447 1429 5561 34.25 77.75 175 0.973 11.990504229548 584.03588191997 3405.8376603872
22053	286813 5302 1429 5561 34.25 77.75 175 -4.3228874206543 2.5 41.396924972534 395.64237105436
22052	292115 5565 1406 5561 34 77.75 176 4.2369151115417 16.125 2252.1970639229 31725.303817176
22051	297680 5842 1383 5561 33.75 77.75 177 486.85000610352 486.85000610352 86172.451080322 41953058.33441
22050	303522 5828 1383 5561 33.75 77.75 177 237.81213378906 795.46562957764 93942.55847168 54066120.311504
vector 22134  IntersectionExampleScenario.node[23].veinsmobility  posx  ETV
vector 22135  IntersectionExampleScenario.node[23].veinsmobility  posy  ETV
vector 22136  IntersectionExampleScenario.node[23].veinsmobility  speed  ETV
vector 22141  IntersectionExampleScenario.node[24].veinsmobility  posx  ETV
vector 22142  IntersectionExampleScenario.node[24].veinsmobility  posy  ETV
vector 22137  IntersectionExampleScenario.node[23].veinsmobility  acceleration  ETV
vector 22138  IntersectionExampleScenario.node[23].veinsmobility  co2emission  ETV
vector 22143  IntersectionExampleScenario.node[24].veinsmobility  speed  ETV
vector 22144  IntersectionExampleScenario.node[24].veinsmobility  acceleration  ETV
vector 22145  IntersectionExampleScenario.node[24].veinsmobility  co2emission  ETV
vector 22148  IntersectionExampleScenario.node[25].veinsmobility  posx  ETV
vector 22149  IntersectionExampleScenario.node[25].veinsmobility  posy  ETV
vector 22155  IntersectionExampleScenario.node[26].veinsmobility  posx  ETV
vector 22156  IntersectionExampleScenario.node[26].veinsmobility  posy  ETV
vector 22150  IntersectionExampleScenario.node[25].veinsmobility  speed  ETV
vector 22151  IntersectionExampleScenario.node[25].veinsmobility  acceleration  ETV
vector 22152  IntersectionExampleScenario.node[25].veinsmobility  co2emission  ETV
vector 22157  IntersectionExampleScenario.node[26].veinsmobility  speed  ETV
vector 22158  IntersectionExampleScenario.node[26].veinsmobility  acceleration  ETV
vector 22159  IntersectionExampleScenario.node[26].veinsmobility  co2emission  ETV
vector 22162  IntersectionExampleScenario.node[27].veinsmobility  posx  ETV
vector 22163  IntersectionExampleScenario.node[27].veinsmobility  posy  ETV
vector 22164  IntersectionExampleScenario.node[27].veinsmobility  speed  ETV
vector 22165  IntersectionExampleScenario.node[27].veinsmobility  acceleration  ETV
vector 22166  IntersectionExampleScenario.node[27].veinsmobility  co2emission  ETV
vector 22169  IntersectionExampleScenario.node[28].veinsmobility  posx  ETV
vector 22170  IntersectionExampleScenario.node[28].veinsmobility  posy  ETV
vector 22171  IntersectionExampleScenario.node[28].veinsmobility  speed  ETV
vector 22172  IntersectionExampleScenario.node[28].veinsmobility  acceleration  ETV
vector 22173  IntersectionExampleScenario.node[28].veinsmobility  co2emission  ETV
vector 22176  IntersectionExampleScenario.node[29].veinsmobility  posx  ETV
vector 22177  IntersectionExampleScenario.node[29].veinsmobility  posy  ETV
vector 22183  IntersectionExampleScenario.node[30].veinsmobility  posx  ETV
vector 22184  IntersectionExampleScenario.node[30].veinsmobility  posy  ETV
22026	312064 6574 1073 6306 29.25 84.5 222 0.973 11.450879080643 584.22011919249 2833.345992872
22025	318638 6075 1073 6306 29.25 84.5 222 -7.2065024375916 4 37.32285118103 468.59005811302
22024	324713 6330 1058 6306 29 84.5 223 0 15.375 2201.6955641508 30687.940850335
22023	331043 7361 1043 6306 28.75 84.5 224 184.17810058594 486.85000610352 93763.256835938 41280286.448963
22022	338404 7386 1043 6306 28.75 84.5 224 236.78112792969 486.85000610352 100513.4074707 46200842.833323
vector 22190  IntersectionExampleScenario.node[31].veinsmobility  posx  ETV
vector 22191  IntersectionExampleScenario.node[31].veinsmobility  posy  ETV
vector 22178  IntersectionExampleScenario.node[29].veinsmobility  speed  ETV
vector 22185  IntersectionExampleScenario.node[30].veinsmobility  speed  ETV
vector 22179  IntersectionExampleScenario.node[29].veinsmobility  acceleration  ETV
vector 22180  IntersectionExampleScenario.node[29].veinsmobility  co2emission  ETV
vector 22186  IntersectionExampleScenario.node[30].veinsmobility  acceleration  ETV
vector 22187  IntersectionExampleScenario.node[30].veinsmobility  co2emission  ETV
vector 22192  IntersectionExampleScenario.node[31].veinsmobility  speed  ETV
vector 22193  IntersectionExampleScenario.node[31].veinsmobility  acceleration  ETV
vector 22194  IntersectionExampleScenario.node[31].veinsmobility  co2emission  ETV
vector 22197  IntersectionExampleScenario.node[32].veinsmobility  posx  ETV
vector 22198  IntersectionExampleScenario.node[32].veinsmobility  posy  ETV
vector 22199  IntersectionExampleScenario.node[32].veinsmobility  speed  ETV
vector 22200  IntersectionExampleScenario.node[32].veinsmobility  acceleration  ETV
vector 22201  IntersectionExampleScenario.node[32].veinsmobility  co2emission  ETV
vector 22204  IntersectionExampleScenario.node[33].veinsmobility  posx  ETV
vector 22205  IntersectionExampleScenario.node[33].veinsmobility  posy  ETV
vector 22206  IntersectionExampleScenario.node[33].veinsmobility  speed  ETV
vector 22207  IntersectionExampleScenario.node[33].veinsmobility  acceleration  ETV
vector 22208  IntersectionExampleScenario.node[33].veinsmobility  co2emission  ETV
22040	347487 6876 1324 7405 33 92 237 0.973 11.810082123732 613.95680138711 3084.4239014695
22039	354363 6273 1324 7405 33 92 237 -8.013355255127 4 39.529638290405 489.37670057805
22038	360636 6514 1305 7405 32.75 92 238 0 15.875 2178.4170484543 31098.377513482
22037	367150 7878 1286 7405 32.5 92 239 486.63604736328 785.82187652588 130990.27390289 73810174.95366
22036	375028 7816 1286 7405 32.5 92 239 236.61950683594 483.14999389648 107421.89089966 49329576.62289
vector 22211  IntersectionExampleScenario.node[34].veinsmobility  posx  ETV
vector 22212  IntersectionExampleScenario.node[34].veinsmobility  posy  ETV
vector 22213  IntersectionExampleScenario.node[34].veinsmobility  speed  ETV
vector 22214  IntersectionExampleScenario.node[34].veinsmobility  acceleration  ETV
vector 22215  IntersectionExampleScenario.node[34].veinsmobility  co2emission  ETV
vector 22218  IntersectionExampleScenario.node[35].veinsmobility  posx  ETV
vector 22219  IntersectionExampleScenario.node[35].veinsmobility  posy  ETV
vector 22225  IntersectionExampleScenario.node[36].veinsmobility  posx  ETV
vector 22226  IntersectionExampleScenario.node[36].veinsmobility  posy  ETV
vector 22220  IntersectionExampleScenario.node[35].veinsmobility  speed  ETV
vector 22221  IntersectionExampleScenario.node[35].veinsmobility  acceleration  ETV
vector 22222  IntersectionExampleScenario.node[35].veinsmobility  co2emission  ETV
vector 22227  IntersectionExampleScenario.node[36].veinsmobility  speed  ETV
vector 22228  IntersectionExampleScenario.node[36].veinsmobility  acceleration  ETV
vector 22229  IntersectionExampleScenario.node[36].veinsmobility  co2emission  ETV
22068	384047 7033 1813 8455 38.5 99.25 244 0.973 11.36141391502 616.92276576753 2954.6617952597
22067	391080 5962 1813 8455 38.5 99.25 244 -8.9205741882324 4 38.341367721558 566.4465649857
22066	397042 6578 1788 8455 38.25 99.25 245 0 15.25 2082.5061016083 29286.496892735
22065	403620 8052 1763 8455 38 99.25 246 236.95220947266 483.14999389648 110673.15081787 50857111.3202
22064	411672 8110 1763 8455 38 99.25 246 207.58673095703 483.36395263672 105895.63079834 47242951.455263
22061	419782 7832 1788 8767 38.25 101.25 253 0.973 11.00486315618 612.14216215029 2689.0182974819
22060	427614 7714 1788 8767 38.25 101.25 253 -4.5 2.5 39.105512619019 429.69394043659
22059	435328 7802 1763 8767 38 101.25 254 0 15.019067764282 2223.3682312099 29525.762836838
22058	443130 8408 1740 8767 37.75 101.25 255 483.14999389648 733.39237976074 131996.59037781 69490550.700206
22057	451538 8398 1740 8767 37.75 101.25 255 179.81719970703 486.86566162109 106308.77941895 46625019.954788
22075	459936 7864 1967 9040 40 103 253 0.973 11.36141391502 668.1967757807 3124.5666731644
22074	467800 7929 1967 9040 40 103 253 -4.5 2.5 40.887662887573 491.79009669589
22073	475729 8008 1940 9040 39.75 103 254 0 15.909086227417 2275.7525035497 31409.255539277
22072	483737 8411 1913 9040 39.5 103 255 236.49981689453 483.14999389648 115285.61895752 53169020.002581
22071	492148 8398 1913 9040 39.5 103 255 161.61535644531 483.19100952148 104666.45956421 45376477.93876
vector 22232  IntersectionExampleScenario.node[37].veinsmobility  posx  ETV
vector 22233  IntersectionExampleScenario.node[37].veinsmobility  posy  ETV
vector 22234  IntersectionExampleScenario.node[37].veinsmobility  speed  ETV
vector 22235  IntersectionExampleScenario.node[37].veinsmobility  acceleration  ETV
vector 22236  IntersectionExampleScenario.node[37].veinsmobility  co2emission  ETV
22082	500947 7537 2531 9558 45.25 106.25 245 0.973 11.648172402475 614.84172322664 2985.8850696754
22081	508484 7621 2531 9558 45.25 106.25 245 -3.6815476417542 2.5 38.171613693237 370.13323610851
22080	516105 7806 2504 9558 45 106.25 246 0 15.64999961853 2226.3394128978 29539.896177033
22079	523911 8151 2477 9558 44.75 106.25 247 237.47357177734 483.14999389648 111171.51626587 51100408.707842
22078	532062 8160 2477 9558 44.75 106.25 247 173.08374023438 483.14999389648 101587.12576294 43863324.520292
vector 22239  IntersectionExampleScenario.node[38].veinsmobility  posx  ETV
vector 22240  IntersectionExampleScenario.node[38].veinsmobility  posy  ETV
vector 22246  IntersectionExampleScenario.node[39].veinsmobility  posx  ETV
vector 22247  IntersectionExampleScenario.node[39].veinsmobility  posy  ETV
vector 22241  IntersectionExampleScenario.node[38].veinsmobility  speed  ETV
vector 22242  IntersectionExampleScenario.node[38].veinsmobility  acceleration  ETV
vector 22243  IntersectionExampleScenario.node[38].veinsmobility  co2emission  ETV
vector 22248  IntersectionExampleScenario.node[39].veinsmobility  speed  ETV
vector 22249  IntersectionExampleScenario.node[39].veinsmobility  acceleration  ETV
vector 22250  IntersectionExampleScenario.node[39].veinsmobility  co2emission  ETV
22096	541024 5843 4061 9841 61.5 108 187 0.973 11.200708441096 537.06512624929 2636.218341924
22095	546867 5256 4061 9841 61.5 108 187 -8.6476802825928 4 35.795072555542 472.97505521195
22094	552123 5719 4042 9841 61.25 108 188 0 15.02499961853 2185.8129124641 29680.115937667
22093	557842 6208 4023 9841 61 108 189 486.85000610352 735.56745910645 100704.12911987 54696174.743159
22092	564050 6261 4023 9841 61 108 189 486.63604736328 785.82187652588 106491.82532501 61888665.93067
vector 22253  IntersectionExampleScenario.node[40].veinsmobility  posx  ETV
vector 22254  IntersectionExampleScenario.node[40].veinsmobility  posy  ETV
22103	570465 5934 4122 10008 62.25 109 188 0.973 11.200708441096 581.02252644938 2867.0282087482
22102	576399 5931 4122 10008 62.25 109 188 -4.5 2.5 41.755727767944 466.44933862327
22101	582330 5991 4101 10008 62 109 189 0 16.158699035645 2270.37268853 32534.350746813
22100	588321 6303 4080 10008 61.75 109 190 486.85000610352 731.32414245605 100266.25845337 53849314.992837
22099	594624 6292 4080 10008 61.75 109 190 486.6706237793 808.82032012939 108582.50717163 64254063.617322
vector 22255  IntersectionExampleScenario.node[40].veinsmobility  speed  ETV
vector 22256  IntersectionExampleScenario.node[40].veinsmobility  acceleration  ETV
vector 22257  IntersectionExampleScenario.node[40].veinsmobility  co2emission  ETV
vector 22260  IntersectionExampleScenario.node[41].veinsmobility  posx  ETV
vector 22261  IntersectionExampleScenario.node[41].veinsmobility  posy  ETV
vector 22262  IntersectionExampleScenario.node[41].veinsmobility  speed  ETV
vector 22263  IntersectionExampleScenario.node[41].veinsmobility  acceleration  ETV
vector 22264  IntersectionExampleScenario.node[41].veinsmobility  co2emission  ETV
vector 22267  IntersectionExampleScenario.node[42].veinsmobility  posx  ETV
vector 22268  IntersectionExampleScenario.node[42].veinsmobility  posy  ETV
vector 22274  IntersectionExampleScenario.node[43].veinsmobility  posx  ETV
vector 22275  IntersectionExampleScenario.node[43].veinsmobility  posy  ETV
vector 22269  IntersectionExampleScenario.node[42].veinsmobility  speed  ETV
vector 22270  IntersectionExampleScenario.node[42].veinsmobility  acceleration  ETV
vector 22271  IntersectionExampleScenario.node[42].veinsmobility  co2emission  ETV
vector 22276  IntersectionExampleScenario.node[43].veinsmobility  speed  ETV
vector 22277  IntersectionExampleScenario.node[43].veinsmobility  acceleration  ETV
vector 22278  IntersectionExampleScenario.node[43].veinsmobility  co2emission  ETV
vector 22281  IntersectionExampleScenario.node[44].veinsmobility  posx  ETV
vector 22282  IntersectionExampleScenario.node[44].veinsmobility  posy  ETV
vector 22283  IntersectionExampleScenario.node[44].veinsmobility  speed  ETV
vector 22284  IntersectionExampleScenario.node[44].veinsmobility  acceleration  ETV
vector 22285  IntersectionExampleScenario.node[44].veinsmobility  co2emission  ETV
vector 22288  IntersectionExampleScenario.node[45].veinsmobility  posx  ETV
vector 22289  IntersectionExampleScenario.node[45].veinsmobility  posy  ETV
vector 22290  IntersectionExampleScenario.node[45].veinsmobility  speed  ETV
vector 22291  IntersectionExampleScenario.node[45].veinsmobility  acceleration  ETV
vector 22292  IntersectionExampleScenario.node[45].veinsmobility  co2emission  ETV
vector 22295  IntersectionExampleScenario.node[46].veinsmobility  posx  ETV
vector 22296  IntersectionExampleScenario.node[46].veinsmobility  posy  ETV
22152	603322 5155 6021 12021 82.25 121.25 157 0.973 11.810082123732 515.43055861261 2886.8724378541
22151	608477 4656 6021 12021 82.25 121.25 157 -3.4797992706299 2.5 39.869146347046 288.3537892539
22150	613133 5037 5990 12021 82 121.25 158 5.6500000953674 15.875 2188.3650727272 31769.767524
22149	618170 5360 5961 12021 81.75 121.25 159 184.17810058594 483.14999389648 63186.488616943 26835570.35997
22148	623530 5343 5961 12021 81.75 121.25 159 486.85000610352 734.2177734375 85471.097869873 46861497.058817
vector 22297  IntersectionExampleScenario.node[46].veinsmobility  speed  ETV
vector 22298  IntersectionExampleScenario.node[46].veinsmobility  acceleration  ETV
vector 22299  IntersectionExampleScenario.node[46].veinsmobility  co2emission  ETV
22124	629120 7015 4469 12566 66.25 124.5 234 0.973 11.450879080643 594.13403746452 2830.8252094928
22123	636135 6349 4469 12566 66.25 124.5 234 -8.4870567321777 4 37.15309715271 478.32449572734
22122	642484 6716 4444 12566 66 124.5 235 0 15.375 2198.746417284 30558.207844133
22121	649200 7938 4419 12566 65.75 124.5 236 483.14999389648 785.82187652588 129522.38799286 73150135.733574
22120	657138 7943 4419 12566 65.75 124.5 236 483.14999389648 732.66976928711 122549.84127808 64748166.567385
vector 22302  IntersectionExampleScenario.node[47].veinsmobility  posx  ETV
vector 22303  IntersectionExampleScenario.node[47].veinsmobility  posy  ETV
vector 22309  IntersectionExampleScenario.node[48].veinsmobility  posx  ETV
vector 22310  IntersectionExampleScenario.node[48].veinsmobility  posy  ETV
vector 22304  IntersectionExampleScenario.node[47].veinsmobility  speed  ETV
vector 22305  IntersectionExampleScenario.node[47].veinsmobility  acceleration  ETV
vector 22306  IntersectionExampleScenario.node[47].veinsmobility  co2emission  ETV
vector 22311  IntersectionExampleScenario.node[48].veinsmobility  speed  ETV
vector 22312  IntersectionExampleScenario.node[48].veinsmobility  acceleration  ETV
vector 22313  IntersectionExampleScenario.node[48].veinsmobility  co2emission  ETV
22159	665883 5778 6052 12975 82.5 127 179 0.973 10.756497587458 504.6731189613 2441.7898309905
22158	671661 5552 6052 12975 82.5 127 179 -3.3767623901367 2.5 33.927785873413 255.65782532355
22157	677213 5915 6021 12975 82.25 127 180 4.7364630699158 14.39999961853 2213.2817473412 28644.38221299
22156	683128 6145 5990 12975 82 127 181 237.54272460938 785.82187652588 94370.876464844 53566576.713829
22155	689273 6153 5990 12975 82 127 181 483.14999389648 483.14999389648 87450.148895264 42251538.904993
22173	695426 5917 6241 13265 84 128.75 180 0.973 10.756497587458 540.17654854489 2521.4188494899
22172	701343 5687 6241 13265 84 128.75 180 -4.5 2.5 36.98334312439 347.08820813302
22171	707030 5945 6208 13265 83.75 128.75 181 3.6481511592865 14.955625534058 2291.4292461872 30933.548983435
22170	712975 6187 6175 13265 83.5 128.75 182 237.93249511719 806.11563110352 96967.206726074 56328558.137334
22169	719162 6203 6175 13265 83.5 128.75 182 483.14999389648 483.14999389648 87933.29888916 42484972.821595
22089	725365 9550 3027 13623 50 131 325 0.973 11.648172402475 731.37079970661 3318.6828244165
22088	734915 9258 3027 13623 50 131 325 -8.3232564926147 4 39.699392318726 651.1518731285
22087	744173 9513 3000 13623 49.75 131 326 0 15.64999961853 2239.5471310429 30541.566832251
22086	753686 11004 2973 13623 49.5 131 327 483.14999389648 483.14999389648 157990.04800415 76332890.728911
22085	764690 10988 2973 13623 49.5 131 327 178.13629150391 734.10723876953 147878.65617371 71161983.872912
22110	775678 8351 4224 13813 63.5 132.25 276 0.973 12.099024792222 676.76491311601 3280.742646432
22109	784029 8444 4224 13813 63.5 132.25 276 -4.5 2.5 40.887662887573 465.0102472556
22108	792473 8503 4203 13813 63.25 132.25 277 0 16.27499961853 2182.0911261532 28565.409268936
22107	800976 9393 4182 13813 63 132.25 278 237.26336669922 483.14999389648 126452.59344482 58578689.717035
22106	810369 9358 4182 13813 63 132.25 278 184.17810058594 483.14999389648 117148.00634766 51349411.710568
vector 22316  IntersectionExampleScenario.node[49].veinsmobility  posx  ETV
vector 22317  IntersectionExampleScenario.node[49].veinsmobility  posy  ETV
vector 22318  IntersectionExampleScenario.node[49].veinsmobility  speed  ETV
vector 22319  IntersectionExampleScenario.node[49].veinsmobility  acceleration  ETV
vector 22320  IntersectionExampleScenario.node[49].veinsmobility  co2emission  ETV
22117	820128 8914 4396 14377 65.5 136 283 0.973 10.756497587458 622.95302164117 2532.5158840843
22116	829042 9129 4396 14377 65.5 136 283 -4.5 2.5 34.097539901733 381.8295974283
22115	838171 9376 4373 14377 65.25 136 284 0 14.39999961853 2286.1674553137 28368.696242164
22114	847547 9657 4350 14377 65 136 285 483.14999389648 483.14999389648 137697.7482605 66528666.231619
22113	857204 9577 4350 14377 65 136 285 166.078125 733.3578338623 126625.92153931 61091850.860957
22131	866781 7864 5203 14599 74 137.5 255 0.973 11.810082123732 625.4126955185 3071.3889610438
22130	874645 8273 5203 14599 74 137.5 255 -3.9696025848389 2.5 39.869146347046 381.05403418792
22129	882918 8385 5178 14599 73.75 137.5 256 0 15.875 2176.5947061405 27990.609124032
22128	891303 8739 5153 14599 73.5 137.5 257 238.85760498047 483.14999389648 116295.30975342 53660385.090068
22127	900042 8719 5153 14599 73.5 137.5 257 184.17810058594 483.16470336914 106224.79537964 45794160.969375
22145	908761 7155 5826 14858 80.5 139.25 236 0.973 11.648172402475 601.33855260613 2937.6484838475
22144	915916 6623 5826 14858 80.5 139.25 236 -8.4908542633057 4 38.001859664917 488.16021245119
22143	922539 6814 5799 14858 80.25 139.25 237 0 15.64999961853 2172.5753586292 30408.735714519
22142	929353 8069 5772 14858 80 139.25 238 486.85000610352 732.01240539551 124026.13070679 65681612.80148
22141	937422 8126 5772 14858 80 139.25 238 486.63604736328 785.82187652588 130646.70938873 73742982.007532
vector 22323  IntersectionExampleScenario.node[50].veinsmobility  posx  ETV
vector 22324  IntersectionExampleScenario.node[50].veinsmobility  posy  ETV
vector 22325  IntersectionExampleScenario.node[50].veinsmobility  speed  ETV
vector 22330  IntersectionExampleScenario.node[51].veinsmobility  posx  ETV
vector 22331  IntersectionExampleScenario.node[51].veinsmobility  posy  ETV
vector 22326  IntersectionExampleScenario.node[50].veinsmobility  acceleration  ETV
vector 22327  IntersectionExampleScenario.node[50].veinsmobility  co2emission  ETV
vector 22332  IntersectionExampleScenario.node[51].veinsmobility  speed  ETV
vector 22333  IntersectionExampleScenario.node[51].veinsmobility  acceleration  ETV
vector 22334  IntersectionExampleScenario.node[51].veinsmobility  co2emission  ETV
22180	946350 7367 6378 15276 85 142 229 0.973 11.36141391502 582.8854671204 2767.2548057598
22179	953717 7508 6378 15276 85 142 229 -3.6812286376953 2.5 37.32285118103 353.76367723894
22178	961225 7603 6341 15276 84.75 142 230 0 15.25 2188.2469880152 29440.271596301
22177	968828 7917 6306 15276 84.5 142 231 486.85000610352 734.36947631836 120862.55799866 64313747.199663
22176	976745 7907 6306 15276 84.5 142 231 486.83767700195 785.82187652588 127867.04311371 72741246.600556
22194	984652 7489 6415 15471 85.25 143.25 233 0.973 11.54047740176 614.05065391735 2913.7199888046
22193	992141 7368 6415 15471 85.25 143.25 233 -4.5 2.5 38.511121749878 418.92353799582
22192	999509 7861 6378 15471 85 143.25 234 0 15.5 2317.9126465991 31149.467561411
22191	1007370 8067 6341 15471 84.75 143.25 235 486.85000610352 486.85000610352 114409.75143433 55700388.184103
22190	1015437 8039 6341 15471 84.75 143.25 235 235.33319091797 810.23281097412 124604.08522797 70894936.866241
vector 22337  IntersectionExampleScenario.node[52].veinsmobility  posx  ETV
vector 22338  IntersectionExampleScenario.node[52].veinsmobility  posy  ETV
vector 22339  IntersectionExampleScenario.node[52].veinsmobility  speed  ETV
vector 22340  IntersectionExampleScenario.node[52].veinsmobility  acceleration  ETV
vector 22341  IntersectionExampleScenario.node[52].veinsmobility  co2emission  ETV
22229	1023877 6313 8143 15979 97.25 146.5 198 0.973 11.36141391502 557.58591042964 2847.4796455713
22228	1030190 6377 8143 15979 97.25 146.5 198 -2.5198040008545 2.5 37.32285118103 336.83040055022
22227	1036567 6571 8104 15979 97 146.5 199 2.640172958374 15.25 2191.4130403996 27960.419865913
22226	1043138 6934 8065 15979 96.75 146.5 200 486.85000610352 734.78634643555 105800.50305176 57002542.768231
22225	1050072 6928 8065 15979 96.75 146.5 200 486.8479309082 785.82187652588 113181.03046417 65864305.028434
22208	1057000 7158 7083 16202 89.75 148 234 0.973 11.810082123732 616.94452219073 3129.8393179572
22207	1064158 6710 7083 16202 89.75 148 234 -7.3183994293213 4 39.869146347046 484.51519877326
22206	1070868 6808 7045 16202 89.5 148 235 0 15.875 2182.5789160728 31269.785566133
22205	1077676 8119 7006 16202 89.25 148 236 184.17810058594 483.36395263672 99458.678497314 43923071.97394
22204	1085795 8068 7006 16202 89.25 148 236 486.85000610352 734.37205505371 122971.36177063 65127218.654574
vector 22344  IntersectionExampleScenario.node[53].veinsmobility  posx  ETV
vector 22345  IntersectionExampleScenario.node[53].veinsmobility  posy  ETV
vector 22351  IntersectionExampleScenario.node[54].veinsmobility  posx  ETV
vector 22352  IntersectionExampleScenario.node[54].veinsmobility  posy  ETV
vector 22346  IntersectionExampleScenario.node[53].veinsmobility  speed  ETV
vector 22353  IntersectionExampleScenario.node[54].veinsmobility  speed  ETV
vector 22347  IntersectionExampleScenario.node[53].veinsmobility  acceleration  ETV
vector 22348  IntersectionExampleScenario.node[53].veinsmobility  co2emission  ETV
vector 22354  IntersectionExampleScenario.node[54].veinsmobility  acceleration  ETV
vector 22355  IntersectionExampleScenario.node[54].veinsmobility  co2emission  ETV
22215	1094665 7402 7713 16603 94.25 150.75 227 0.973 11.810082123732 600.49531269126 3050.7122123696
22214	1102067 7584 7713 16603 94.25 150.75 227 -4.5 2.5 39.529638290405 404.39993481499
22213	1109651 7584 7678 16603 94 150.75 228 0 15.875 2184.392744448 30468.708557259
22212	1117235 7905 7643 16603 93.75 150.75 229 184.17810058594 483.14999389648 95546.821990967 41803635.217652
22211	1125140 7923 7643 16603 93.75 150.75 229 486.85000610352 733.26972961426 119529.77311707 63424628.869927
22236	1133063 6597 9200 17315 104 155.75 208 0.973 12.099024792222 600.30731669189 3234.698151795
22235	1139660 6193 9200 17315 104 155.75 208 -9.4888134002686 4 40.887662887573 531.85535781686
22234	1145853 6359 9159 17315 103.75 155.75 209 0 16.27499961853 2204.408318758 32227.446894396
22233	1152212 7321 9118 17315 103.5 155.75 210 483.14999389648 785.82187652588 116120.73474884 66167230.218984
22232	1159533 7328 9118 17315 103.5 155.75 210 483.14999389648 733.30445861816 109557.33924866 58192067.496418
vector 22358  IntersectionExampleScenario.node[55].veinsmobility  posx  ETV
vector 22359  IntersectionExampleScenario.node[55].veinsmobility  posy  ETV
vector 22360  IntersectionExampleScenario.node[55].veinsmobility  speed  ETV
vector 22361  IntersectionExampleScenario.node[55].veinsmobility  acceleration  ETV
vector 22362  IntersectionExampleScenario.node[55].veinsmobility  co2emission  ETV
22299	1167262 5124 12108 17786 121.75 159.5 152 0.96333723109819 12.099024792222 521.06223171721 3270.1297702079
22298	1172386 4905 12108 17786 121.75 159.5 152 -3.3065414428711 2.5 40.208654403687 264.78491743183
22297	1177291 5115 12065 17786 121.5 159.5 153 5.6500000953674 16.27499961853 2215.1728458405 32821.667788143
22296	1182406 5375 12021 17786 121.25 159.5 154 237.51928710938 785.82187652588 80536.229026794 46155192.471999
22295	1187781 5391 12021 17786 121.25 159.5 154 483.14999389648 483.14999389648 74405.099060059 35948823.156735
vector 22365  IntersectionExampleScenario.node[56].veinsmobility  posx  ETV
vector 22366  IntersectionExampleScenario.node[56].veinsmobility  posy  ETV
vector 22367  IntersectionExampleScenario.node[56].veinsmobility  speed  ETV
vector 22368  IntersectionExampleScenario.node[56].veinsmobility  acceleration  ETV
vector 22369  IntersectionExampleScenario.node[56].veinsmobility  co2emission  ETV
22138	1193573 9961 5772 18269 80 163.5 335 0.973 11.36141391502 705.05630665385 3015.3064916216
22137	1203534 9995 5772 18269 80 163.5 335 -6.4406085014343 4 37.32285118103 537.41260108484
22136	1213529 10044 5747 18269 79.75 163.5 336 0 15.25 2180.6939787194 27651.846995382
22135	1223573 11530 5722 18269 79.5 163.5 337 236.31317138672 483.14999389648 154470.7204895 71968554.537442
22134	1235103 11556 5722 18269 79.5 163.5 337 184.17810058594 483.36395263672 143938.31521606 63583678.585335
22166	1246659 9675 6144 18331 83.25 164 324 0.973 11.990504229548 727.70317507693 3261.3529556778
22165	1256334 9603 6144 18331 83.25 164 324 -4.5 2.5 40.038900375366 552.89804199403
22164	1265937 9710 6113 18331 83 164 325 0 16.125 2268.150947093 30245.906454414
22163	1275647 11235 6082 18331 82.75 164 326 483.14999389648 483.14999389648 157506.89801025 76099456.812308
22162	1286882 11187 6082 18331 82.75 164 326 172.9296875 734.63209533691 145582.26589966 69428249.107754
vector 22372  IntersectionExampleScenario.node[57].veinsmobility  posx  ETV
vector 22373  IntersectionExampleScenario.node[57].veinsmobility  posy  ETV
vector 22374  IntersectionExampleScenario.node[57].veinsmobility  speed  ETV
vector 22375  IntersectionExampleScenario.node[57].veinsmobility  acceleration  ETV
vector 22376  IntersectionExampleScenario.node[57].veinsmobility  co2emission  ETV
22187	1298470 10393 6378 18750 85 167.5 331 0.973 11.36141391502 691.0077105569 2914.9646344138
22186	1308863 11052 6378 18750 85 167.5 331 -3.9460070133209 2.5 36.304327011108 441.20708104868
22185	1319915 10942 6341 18750 84.75 167.5 332 0 15.25 2288.0855137371 27808.645660685
22184	1330857 11471 6306 18750 84.5 167.5 333 235.21801757812 483.14999389648 152329.17138672 70874231.245372
22183	1342328 11464 6306 18750 84.5 167.5 333 159.31793212891 483.14999389648 137614.94577026 59344829.493878
22201	1353792 10609 6747 18843 87.5 168.25 324 0.973 11.90022389248 742.0842158397 3281.2450819884
22200	1364401 10585 6747 18843 87.5 168.25 324 -4.5 2.5 41.057416915894 607.03234240781
22199	1374986 10947 6710 18843 87.25 168.25 325 0 16 2321.4171290882 30394.934370573
22198	1385933 11256 6673 18843 87 168.25 326 483.14999389648 733.21328735352 165582.68617249 85246520.859493
22197	1397189 11243 6673 18843 87 168.25 326 156.154296875 486.85000610352 133544.2623291 57121844.505487
vector 22379  IntersectionExampleScenario.node[58].veinsmobility  posx  ETV
vector 22380  IntersectionExampleScenario.node[58].veinsmobility  posy  ETV
vector 22381  IntersectionExampleScenario.node[58].veinsmobility  speed  ETV
vector 22382  IntersectionExampleScenario.node[58].veinsmobility  acceleration  ETV
vector 22383  IntersectionExampleScenario.node[58].veinsmobility  co2emission  ETV
vector 22386  IntersectionExampleScenario.node[59].veinsmobility  posx  ETV
vector 22387  IntersectionExampleScenario.node[59].veinsmobility  posy  ETV
22243	1408987 7741 9798 19221 107.75 171.25 255 0.97223939240464 11.648172402475 680.15373107989 3607.0408496732
22242	1416728 6931 9798 19221 107.75 171.25 255 -26.403568267822 4 38.680875778198 1164.6008762027
22241	1423659 7449 9755 19221 107.5 171.25 256 0 15.64999961853 2203.2324209213 30412.703392754
22240	1431108 8989 9714 19221 107.25 171.25 257 236.71856689453 486.85000610352 116743.82537842 54153604.049638
22239	1440097 8984 9714 19221 107.25 171.25 257 483.14999389648 785.82187652588 140231.79279327 78613590.856429
vector 22388  IntersectionExampleScenario.node[59].veinsmobility  speed  ETV
vector 22389  IntersectionExampleScenario.node[59].veinsmobility  acceleration  ETV
vector 22390  IntersectionExampleScenario.node[59].veinsmobility  co2emission  ETV
22271	1449328 7158 11275 19389 116.75 172.5 224 0.96333723109819 12.099024792222 594.79499462313 3164.493485201
22270	1456486 7423 11275 19389 116.75 172.5 224 -3.9989230632782 2.5000009536743 40.208654403687 360.90841166991
22269	1463909 7551 11234 19389 116.5 172.5 225 0 16.27499961853 2182.9191772155 29501.389356787
22268	1471460 7906 11195 19389 116.25 172.5 226 486.85000610352 732.67601013184 117964.2983551 62588783.764108
22267	1479366 7889 11195 19389 116.25 172.5 226 486.74822998047 785.82187652588 125460.29904938 71538729.021184
vector 22393  IntersectionExampleScenario.node[60].veinsmobility  posx  ETV
vector 22394  IntersectionExampleScenario.node[60].veinsmobility  posy  ETV
vector 22395  IntersectionExampleScenario.node[60].veinsmobility  speed  ETV
vector 22396  IntersectionExampleScenario.node[60].veinsmobility  acceleration  ETV
vector 22397  IntersectionExampleScenario.node[60].veinsmobility  co2emission  ETV
22278	1487656 7433 11316 19593 117 174 229 0.973 12.406051773758 657.21948467907 3470.2997487009
22277	1495089 7453 11316 19593 117 174 229 -4.5 2.5000038146973 43.773473739624 530.38215160342
22276	1502542 7717 11275 19593 116.75 174 230 0 16.697860717773 2284.2874400169 31875.106960294
22275	1510259 8078 11234 19593 116.5 174 231 486.85000610352 733.59284973145 120071.91539001 63403455.764751
22274	1518337 8063 11234 19593 116.5 174 231 486.85000610352 810.23281097412 130646.60929871 76170825.656417
22285	1526400 7442 11727 19895 119.5 176.25 228 0.973 11.990504229548 612.10764744186 3123.5709589014
22284	1533842 7526 11727 19895 119.5 176.25 228 -4.5 2.5 39.529638290405 462.54044559059
22283	1541368 7729 11686 19895 119.25 176.25 229 0 16.125 2333.237496743 31811.588155682
22282	1549097 8049 11644 19895 119 176.25 230 486.85000610352 486.85000610352 111975.50140381 54515273.541888
22281	1557146 8017 11644 19895 119 176.25 230 235.90863037109 813.62110137939 122592.31469727 70094744.877562
vector 22400  IntersectionExampleScenario.node[61].veinsmobility  posx  ETV
vector 22401  IntersectionExampleScenario.node[61].veinsmobility  posy  ETV
vector 22402  IntersectionExampleScenario.node[61].veinsmobility  speed  ETV
vector 22403  IntersectionExampleScenario.node[61].veinsmobility  acceleration  ETV
vector 22404  IntersectionExampleScenario.node[61].veinsmobility  co2emission  ETV
22313	1565564 6876 12932 20446 126.75 180.5 216 0.973 11.450879080643 577.77064826173 2837.0550516787
22312	1572440 6277 12932 20446 126.75 180.5 216 -8.487024307251 4 37.15309715271 481.82413438468
22311	1578717 6680 12889 20446 126.5 180.5 217 0 15.375 2210.497877121 30840.213827553
22310	1585397 7605 12846 20446 126.25 180.5 218 184.17810058594 733.24285888672 99182.68536377 49347664.828399
22309	1593002 7631 12846 20446 126.25 180.5 218 486.85000610352 486.85000610352 106133.30133057 51670998.400572
vector 22407  IntersectionExampleScenario.node[62].veinsmobility  posx  ETV
vector 22408  IntersectionExampleScenario.node[62].veinsmobility  posy  ETV
vector 22409  IntersectionExampleScenario.node[62].veinsmobility  speed  ETV
vector 22414  IntersectionExampleScenario.node[63].veinsmobility  posx  ETV
vector 22415  IntersectionExampleScenario.node[63].veinsmobility  posy  ETV
vector 22410  IntersectionExampleScenario.node[62].veinsmobility  acceleration  ETV
vector 22411  IntersectionExampleScenario.node[62].veinsmobility  co2emission  ETV
vector 22416  IntersectionExampleScenario.node[63].veinsmobility  speed  ETV
vector 22417  IntersectionExampleScenario.node[63].veinsmobility  acceleration  ETV
vector 22418  IntersectionExampleScenario.node[63].veinsmobility  co2emission  ETV
22320	1601435 6871 14039 21345 133.75 188 218 0.973 11.810082123732 590.57190450783 3047.8161285813
22319	1608306 6423 14039 21345 133.75 188 218 -6.8117866516113 4 38.850629806519 475.00774497838
22318	1614729 6598 14000 21345 133.5 188 219 0 15.875 2171.3403301239 30734.834029248
22317	1621327 7693 13961 21345 133.25 188 220 486.63604736328 785.82187652588 121592.2692337 69173575.048154
22316	1629020 7626 13961 21345 133.25 188 220 238.59930419922 483.14999389648 98289.487487793 44922519.354288
vector 22421  IntersectionExampleScenario.node[64].veinsmobility  posx  ETV
vector 22422  IntersectionExampleScenario.node[64].veinsmobility  posy  ETV
vector 22428  IntersectionExampleScenario.node[65].veinsmobility  posx  ETV
vector 22429  IntersectionExampleScenario.node[65].veinsmobility  posy  ETV
vector 22423  IntersectionExampleScenario.node[64].veinsmobility  speed  ETV
vector 22430  IntersectionExampleScenario.node[65].veinsmobility  speed  ETV
vector 22424  IntersectionExampleScenario.node[64].veinsmobility  acceleration  ETV
vector 22425  IntersectionExampleScenario.node[64].veinsmobility  co2emission  ETV
vector 22431  IntersectionExampleScenario.node[65].veinsmobility  acceleration  ETV
vector 22432  IntersectionExampleScenario.node[65].veinsmobility  co2emission  ETV
vector 22435  IntersectionExampleScenario.node[66].veinsmobility  posx  ETV
vector 22436  IntersectionExampleScenario.node[66].veinsmobility  posy  ETV
vector 22437  IntersectionExampleScenario.node[66].veinsmobility  speed  ETV
vector 22438  IntersectionExampleScenario.node[66].veinsmobility  acceleration  ETV
vector 22439  IntersectionExampleScenario.node[66].veinsmobility  co2emission  ETV
22327	1637849 6571 15081 21780 140.75 191.75 205 0.973 11.200708441096 537.09105993107 2584.2253189277
22326	1644420 6812 15081 21780 140.75 191.75 205 -4.3136701583862 2.5 35.625318527222 315.33633171346
22325	1651232 6933 15044 21780 140.5 191.75 206 0 15.02499961853 2178.803496629 27798.407957385
22324	1658165 7228 15006 21780 140.25 191.75 207 486.83251953125 785.82187652588 116309.29730988 67234436.596078
22323	1665393 7243 15006 21780 140.25 191.75 207 237.94360351562 483.14999389648 91535.230773926 41512024.082745
22348	1672636 5655 16528 21954 150.25 193.25 173 0.973 12.099024792222 559.13962530832 3121.5787094677
22347	1678291 5634 16528 21954 150.25 193.25 173 -3.8239212036133 2.5 40.887670516968 318.25916422993
22346	1683925 5780 16489 21954 150 193.25 174 5.6500000953674 16.27499961853 2176.3434586525 29414.114482289
22345	1689705 6109 16450 21954 149.75 193.25 175 486.79595947266 785.82187652588 99825.555595398 58674999.648337
22344	1695814 6117 16450 21954 149.75 193.25 175 238.70751953125 483.14999389648 76735.544799805 34561474.599298
22222	1701931 11775 8104 22041 97 194 389 0.91233081776591 12.353032912318 848.57827148901 4013.9486354925
22221	1713706 11449 8104 22041 97 194 389 -20.277126312256 4 43.773473739624 1093.0492000331
22220	1725155 11861 8065 22041 96.75 194 390 0 16.625 2208.1663960926 29187.849709904
22219	1737016 13620 8028 22041 96.5 194 391 483.14999389648 483.14999389648 188911.64761353 91272661.39145
22218	1750636 13571 8028 22041 96.5 194 391 184.17810058594 731.30090332031 174296.80381775 81740641.497607
vector 22442  IntersectionExampleScenario.node[67].veinsmobility  posx  ETV
vector 22443  IntersectionExampleScenario.node[67].veinsmobility  posy  ETV
vector 22444  IntersectionExampleScenario.node[67].veinsmobility  speed  ETV
vector 22445  IntersectionExampleScenario.node[67].veinsmobility  acceleration  ETV
vector 22446  IntersectionExampleScenario.node[67].veinsmobility  co2emission  ETV
vector 22449  IntersectionExampleScenario.node[68].veinsmobility  posx  ETV
vector 22450  IntersectionExampleScenario.node[68].veinsmobility  posy  ETV
vector 22451  IntersectionExampleScenario.node[68].veinsmobility  speed  ETV
22250	1764840 11252 9841 22446 108 197.5 359 0.973 11.00486315618 727.72839417526 2907.3081665736
22249	1776092 11852 9841 22446 108 197.5 359 -3.9460980892181 2.5 34.437047958374 498.79594306434
22248	1787944 11792 9798 22446 107.75 197.5 360 0 14.75 2203.770399563 25971.543403664
22247	1799736 12622 9755 22446 107.5 197.5 361 483.14999389648 732.9683380127 183350.72293091 94392040.295183
22246	1812358 12570 9755 22446 107.5 197.5 361 184.17810058594 486.86560058594 152842.88522339 66853348.533764
vector 22452  IntersectionExampleScenario.node[68].veinsmobility  acceleration  ETV
vector 22453  IntersectionExampleScenario.node[68].veinsmobility  co2emission  ETV
vector 22456  IntersectionExampleScenario.node[69].veinsmobility  posx  ETV
vector 22457  IntersectionExampleScenario.node[69].veinsmobility  posy  ETV
vector 22458  IntersectionExampleScenario.node[69].veinsmobility  speed  ETV
vector 22459  IntersectionExampleScenario.node[69].veinsmobility  acceleration  ETV
vector 22460  IntersectionExampleScenario.node[69].veinsmobility  co2emission  ETV
22257	1825498 11453 10094 22695 109.5 199.5 361 0.973 11.36141391502 725.05847470406 2873.3745705413
22256	1836951 12048 10094 22695 109.5 199.5 361 -4.5 2.5 37.15309715271 520.90799262309
22255	1848999 11989 10051 22695 109.25 199.5 362 0 15.25 2265.3259367198 27646.559913706
22254	1860988 12701 10008 22695 109 199.5 363 236.89862060547 483.14999389648 167052.21911621 78050837.453131
22253	1873689 12636 10008 22695 109 199.5 363 163.88433837891 483.14999389648 150703.39923096 64940842.806218
22264	1886325 11238 10752 22881 113.5 201 351 0.973 11.54047740176 717.58660390825 2972.2199317762
22263	1897563 11971 10752 22881 113.5 201 351 -4.5 2.5 37.15309715271 433.95543324236
22262	1909534 12072 10711 22881 113.25 201 352 0 15.5 2279.3156888019 28607.572173297
22261	1921606 12353 10670 22881 113 201 353 483.14999389648 483.14999389648 170551.94784546 82402172.560567
22260	1933959 12304 10670 22881 113 201 353 167.83123779297 732.83041381836 154097.36709595 71902141.762627
22306	1946263 9432 12889 23191 126.5 203.5 309 0.973 11.200708441096 701.18413419902 3092.2443726605
22305	1955695 8866 12889 23191 126.5 203.5 309 -27.104663848877 4 36.98334312439 1260.9541977265
22304	1964561 9214 12846 23191 126.25 203.5 310 0 15.02499961853 2173.293657206 27702.990149948
22303	1973775 10815 12805 23191 126 203.5 311 486.85000610352 732.18632507324 159711.34033203 83150643.246483
22302	1984590 10869 12805 23191 126 203.5 311 486.63604736328 785.82187652588 169117.75777435 94080325.491297
22334	1995459 8336 15159 23454 141.25 205.75 259 0.973 11.648172402475 670.66224052948 3417.1301148802
22333	2003795 8239 15159 23454 141.25 205.75 259 -4.5 2.5 39.699392318726 472.01831826432
22332	2012034 8454 15120 23454 141 205.75 260 0 15.814069747925 2190.3624589499 29694.179753631
22331	2020488 9128 15081 23454 140.75 205.75 261 486.85000610352 734.57846069336 135190.46350098 71106840.20193
22330	2029616 9126 15081 23454 140.75 205.75 261 486.78814697266 785.82187652588 143079.13471222 80439878.658853
vector 22463  IntersectionExampleScenario.node[70].veinsmobility  posx  ETV
vector 22464  IntersectionExampleScenario.node[70].veinsmobility  posy  ETV
22369	2038896 5819 18176 23589 162.75 207 178 0.973 11.90022389248 555.55695175778 3120.1095894785
22368	2044715 5760 18176 23589 162.75 207 178 -4.5438537597656 2.5 39.359884262085 349.50177264514
22367	2050475 5953 18145 23589 162.5 207 179 3.9048204421997 16 2204.2700977325 29808.436519629
22366	2056428 6297 18114 23589 162.25 207 180 238.26965332031 486.85000610352 79453.069854736 36053776.492304
22365	2062725 6283 18114 23589 162.25 207 180 483.12829589844 785.82187652588 102202.87172699 59822370.946441
vector 22465  IntersectionExampleScenario.node[70].veinsmobility  speed  ETV
vector 22466  IntersectionExampleScenario.node[70].veinsmobility  acceleration  ETV
vector 22467  IntersectionExampleScenario.node[70].veinsmobility  co2emission  ETV
vector 22470  IntersectionExampleScenario.node[71].veinsmobility  posx  ETV
vector 22471  IntersectionExampleScenario.node[71].veinsmobility  posy  ETV
vector 22472  IntersectionExampleScenario.node[71].veinsmobility  speed  ETV
vector 22473  IntersectionExampleScenario.node[71].veinsmobility  acceleration  ETV
vector 22474  IntersectionExampleScenario.node[71].veinsmobility  co2emission  ETV
22355	2069656 7553 16528 24093 150.25 211.5 246 0.973 12.26218747632 641.31789699514 3380.6069252886
22354	2077209 6938 16528 24093 150.25 211.5 246 -10.052801132202 4 41.396924972534 590.01531149368
22353	2084147 7077 16489 24093 150 211.5 247 0 16.5 2170.5626692772 31981.6365319
22352	2091224 8651 16450 24093 149.75 211.5 248 184.17810058594 483.36395263672 105322.63534546 46751150.826276
22351	2099875 8607 16450 24093 149.75 211.5 248 486.85000610352 731.48248291016 128449.77206421 67541804.087693
vector 22477  IntersectionExampleScenario.node[72].veinsmobility  posx  ETV
vector 22478  IntersectionExampleScenario.node[72].veinsmobility  posy  ETV
vector 22479  IntersectionExampleScenario.node[72].veinsmobility  speed  ETV
vector 22480  IntersectionExampleScenario.node[72].veinsmobility  acceleration  ETV
vector 22481  IntersectionExampleScenario.node[72].veinsmobility  co2emission  ETV
vector 22484  IntersectionExampleScenario.node[73].veinsmobility  posx  ETV
vector 22485  IntersectionExampleScenario.node[73].veinsmobility  posy  ETV
vector 22486  IntersectionExampleScenario.node[73].veinsmobility  speed  ETV
22362	2109115 7269 17693 24506 158.75 215.25 227 0.973 11.648172402475 582.95787506708 2888.6379948882
22361	2116384 7563 17693 24506 158.75 215.25 227 -3.8020079135895 2.5 38.171613693237 333.39074197984
22360	2123947 7699 17662 24506 158.5 215.25 228 0 15.64999961853 2185.9592704866 28738.774523111
22359	2131646 7987 17630 24506 158.25 215.25 229 184.17810058594 483.14999389648 94937.466766357 41278524.666631
22358	2139633 8011 17630 24506 158.25 215.25 229 486.85000610352 733.54200744629 119729.59043884 63652659.007338
vector 22487  IntersectionExampleScenario.node[73].veinsmobility  acceleration  ETV
vector 22488  IntersectionExampleScenario.node[73].veinsmobility  co2emission  ETV
vector 22491  IntersectionExampleScenario.node[74].veinsmobility  posx  ETV
vector 22492  IntersectionExampleScenario.node[74].veinsmobility  posy  ETV
vector 22493  IntersectionExampleScenario.node[74].veinsmobility  speed  ETV
vector 22498  IntersectionExampleScenario.node[75].veinsmobility  posx  ETV
vector 22499  IntersectionExampleScenario.node[75].veinsmobility  posy  ETV
vector 22494  IntersectionExampleScenario.node[74].veinsmobility  acceleration  ETV
vector 22495  IntersectionExampleScenario.node[74].veinsmobility  co2emission  ETV
vector 22500  IntersectionExampleScenario.node[75].veinsmobility  speed  ETV
vector 22505  IntersectionExampleScenario.node[76].veinsmobility  posx  ETV
vector 22506  IntersectionExampleScenario.node[76].veinsmobility  posy  ETV
vector 22501  IntersectionExampleScenario.node[75].veinsmobility  acceleration  ETV
vector 22502  IntersectionExampleScenario.node[75].veinsmobility  co2emission  ETV
vector 22512  IntersectionExampleScenario.node[77].veinsmobility  posx  ETV
vector 22513  IntersectionExampleScenario.node[77].veinsmobility  posy  ETV
vector 22507  IntersectionExampleScenario.node[76].veinsmobility  speed  ETV
vector 22519  IntersectionExampleScenario.node[78].veinsmobility  posx  ETV
vector 22520  IntersectionExampleScenario.node[78].veinsmobility  posy  ETV
vector 22508  IntersectionExampleScenario.node[76].veinsmobility  acceleration  ETV
vector 22509  IntersectionExampleScenario.node[76].veinsmobility  co2emission  ETV
vector 22514  IntersectionExampleScenario.node[77].veinsmobility  speed  ETV
vector 22515  IntersectionExampleScenario.node[77].veinsmobility  acceleration  ETV
vector 22516  IntersectionExampleScenario.node[77].veinsmobility  co2emission  ETV
vector 22521  IntersectionExampleScenario.node[78].veinsmobility  speed  ETV
vector 22522  IntersectionExampleScenario.node[78].veinsmobility  acceleration  ETV
vector 22523  IntersectionExampleScenario.node[78].veinsmobility  co2emission  ETV
22376	2149818 6759 18657 25091 166.75 220 214 0.973 11.90022389248 597.88025650143 3158.3997307141
22375	2156577 6543 18657 25091 166.75 220 214 -7.4670295715332 4 39.529638290405 494.04974692597
22374	2163120 6554 18626 25091 166.5 220 215 0 16 2214.9248008728 31936.698267874
22373	2169674 7548 18595 25091 166.25 220 216 235.99810791016 785.82187652588 111264.3077774 61438497.390246
22372	2177222 7560 18595 25091 166.25 220 216 483.14999389648 483.14999389648 104360.39868164 50421725.986069
22383	2184782 6646 19188 25321 171 221.75 204 0.973 11.810082123732 568.37566114316 3000.2768779187
22382	2191428 6851 19188 25321 171 221.75 204 -3.7665710449219 2.5000004768372 38.511121749878 381.45049879273
22381	2198279 6863 19155 25321 170.75 221.75 205 0 15.875 2205.3500572201 30267.327283282
22380	2205142 7185 19122 25321 170.5 221.75 206 486.85000610352 790.18281555176 115462.31388855 66668073.376789
22379	2212327 7204 19122 25321 170.5 221.75 206 235.88928222656 483.14999389648 91312.779327393 41499428.848513
22411	2219531 5643 20566 25569 181.5 223.75 170 0.973 11.200708441096 509.49313502466 2662.2639816532
22410	2225174 5337 20566 25569 181.5 223.75 170 -2.0181655883789 2.5 36.813589096069 243.94992749838
22409	2230511 5771 20535 25569 181.25 223.75 171 5.6500000953674 15.02499961853 2223.9660167694 30105.33011524
22408	2236282 6007 20504 25569 181 223.75 172 234.94763183594 785.82187652588 89771.254707336 51124201.293144
22407	2242289 6020 20504 25569 181 223.75 172 483.14999389648 483.14999389648 83101.798950195 40150633.655574
vector 22526  IntersectionExampleScenario.node[79].veinsmobility  posx  ETV
vector 22527  IntersectionExampleScenario.node[79].veinsmobility  posy  ETV
vector 22533  IntersectionExampleScenario.node[80].veinsmobility  posx  ETV
vector 22534  IntersectionExampleScenario.node[80].veinsmobility  posy  ETV
vector 22528  IntersectionExampleScenario.node[79].veinsmobility  speed  ETV
vector 22535  IntersectionExampleScenario.node[80].veinsmobility  speed  ETV
vector 22540  IntersectionExampleScenario.node[81].veinsmobility  posx  ETV
vector 22541  IntersectionExampleScenario.node[81].veinsmobility  posy  ETV
vector 22529  IntersectionExampleScenario.node[79].veinsmobility  acceleration  ETV
vector 22530  IntersectionExampleScenario.node[79].veinsmobility  co2emission  ETV
vector 22536  IntersectionExampleScenario.node[80].veinsmobility  acceleration  ETV
vector 22537  IntersectionExampleScenario.node[80].veinsmobility  co2emission  ETV
vector 22542  IntersectionExampleScenario.node[81].veinsmobility  speed  ETV
vector 22543  IntersectionExampleScenario.node[81].veinsmobility  acceleration  ETV
vector 22544  IntersectionExampleScenario.node[81].veinsmobility  co2emission  ETV
22292	2249512 12966 11978 25997 121 226.75 424 0.973 11.36141391502 842.13053269608 3353.5835075997
22291	2262478 13233 11978 25997 121 226.75 424 -7.5332536697388 4 41.396924972534 687.35557833991
22290	2275711 13290 11935 25997 120.75 226.75 425 0 16.01141166687 2182.5620514601 27119.081286013
22289	2289001 14847 11892 25997 120.5 226.75 426 235.9951171875 483.14999389648 197930.97979736 93110109.028658
22288	2303848 14875 11892 25997 120.5 226.75 426 184.17810058594 483.36395263672 181141.94699097 79148696.820508
vector 22547  IntersectionExampleScenario.node[82].veinsmobility  posx  ETV
vector 22548  IntersectionExampleScenario.node[82].veinsmobility  posy  ETV
vector 22549  IntersectionExampleScenario.node[82].veinsmobility  speed  ETV
vector 22550  IntersectionExampleScenario.node[82].veinsmobility  acceleration  ETV
vector 22551  IntersectionExampleScenario.node[82].veinsmobility  co2emission  ETV
vector 22554  IntersectionExampleScenario.node[83].veinsmobility  posx  ETV
vector 22555  IntersectionExampleScenario.node[83].veinsmobility  posy  ETV
vector 22556  IntersectionExampleScenario.node[83].veinsmobility  speed  ETV
vector 22557  IntersectionExampleScenario.node[83].veinsmobility  acceleration  ETV
vector 22558  IntersectionExampleScenario.node[83].veinsmobility  co2emission  ETV
22341	2319525 10766 15667 26462 144.5 229.75 342 0.973 11.810082123732 757.02770866395 3554.7517413298
22340	2330291 11020 15667 26462 144.5 229.75 342 -4.5 2.5 38.511121749878 544.25996595017
22339	2341311 11053 15628 26462 144.25 229.75 343 0 15.875 2190.5552489134 28005.921072121
22338	2352364 12027 15588 26462 144 229.75 344 235.38909912109 483.14999389648 157950.08331299 73685410.655089
22337	2364391 12003 15588 26462 144 229.75 344 184.17810058594 483.14999389648 146106.52655029 64091421.037832
22390	2376394 7510 19290 26500 171.75 230 234 0.973 12.553400930962 642.00615329133 3656.4635957816
22389	2383904 7851 19290 26500 171.75 230 234 -3.7683250904083 2.5 42.924703598022 390.63978051297
22388	2391755 8018 19256 26500 171.5 230 235 0 16.89999961853 2216.3335484602 31460.331311857
22387	2399773 8260 19221 26500 171.25 230 236 483.14999389648 483.14999389648 114023.39855957 55090404.318113
22386	2408033 8214 19221 26500 171.25 230 236 184.17810058594 732.98513793945 105934.69245911 51495358.935834
vector 22561  IntersectionExampleScenario.node[84].veinsmobility  posx  ETV
vector 22562  IntersectionExampleScenario.node[84].veinsmobility  posy  ETV
vector 22563  IntersectionExampleScenario.node[84].veinsmobility  speed  ETV
vector 22564  IntersectionExampleScenario.node[84].veinsmobility  acceleration  ETV
vector 22565  IntersectionExampleScenario.node[84].veinsmobility  co2emission  ETV
vector 22568  IntersectionExampleScenario.node[85].veinsmobility  posx  ETV
vector 22569  IntersectionExampleScenario.node[85].veinsmobility  posy  ETV
vector 22575  IntersectionExampleScenario.node[86].veinsmobility  posx  ETV
vector 22576  IntersectionExampleScenario.node[86].veinsmobility  posy  ETV
vector 22570  IntersectionExampleScenario.node[85].veinsmobility  speed  ETV
vector 22571  IntersectionExampleScenario.node[85].veinsmobility  acceleration  ETV
vector 22572  IntersectionExampleScenario.node[85].veinsmobility  co2emission  ETV
vector 22577  IntersectionExampleScenario.node[86].veinsmobility  speed  ETV
22397	2417281 7833 19558 27128 173.75 234 242 0.973 11.450879080643 605.44200063746 2881.4729632538
22396	2425114 8083 19558 27128 173.75 234 242 -4.5 2.5000019073486 37.32285118103 370.62355207505
22395	2433197 8222 19523 27128 173.5 234 243 0 15.375 2289.7642176114 29639.702990768
22394	2441419 8531 19488 27128 173.25 234 244 483.14999389648 735.16209411621 126557.58091736 66792119.785604
22393	2449950 8487 19488 27128 173.25 234 244 166.078125 486.85000610352 99346.517150879 42682980.219623
vector 22582  IntersectionExampleScenario.node[87].veinsmobility  posx  ETV
vector 22583  IntersectionExampleScenario.node[87].veinsmobility  posy  ETV
vector 22578  IntersectionExampleScenario.node[86].veinsmobility  acceleration  ETV
vector 22579  IntersectionExampleScenario.node[86].veinsmobility  co2emission  ETV
vector 22589  IntersectionExampleScenario.node[88].veinsmobility  posx  ETV
vector 22590  IntersectionExampleScenario.node[88].veinsmobility  posy  ETV
vector 22584  IntersectionExampleScenario.node[87].veinsmobility  speed  ETV
vector 22596  IntersectionExampleScenario.node[89].veinsmobility  posx  ETV
vector 22597  IntersectionExampleScenario.node[89].veinsmobility  posy  ETV
vector 22585  IntersectionExampleScenario.node[87].veinsmobility  acceleration  ETV
vector 22586  IntersectionExampleScenario.node[87].veinsmobility  co2emission  ETV
vector 22591  IntersectionExampleScenario.node[88].veinsmobility  speed  ETV
vector 22592  IntersectionExampleScenario.node[88].veinsmobility  acceleration  ETV
vector 22593  IntersectionExampleScenario.node[88].veinsmobility  co2emission  ETV
vector 22598  IntersectionExampleScenario.node[89].veinsmobility  speed  ETV
22404	2459640 7184 20092 27312 177.75 235 230 0.973 11.90022389248 612.49140992329 3132.8384726542
22403	2466824 6599 20092 27312 177.75 235 230 -7.2641291618347 4 39.699392318726 488.74806203163
22402	2473423 6903 20059 27312 177.5 235 231 0 16 2217.2994669676 32035.832177997
22401	2480326 8120 20026 27312 177.25 235 232 486.85000610352 486.85000610352 112949.20141602 54989319.398774
22400	2488446 8109 20026 27312 177.25 235 232 235.46020507812 785.82187652588 119205.40271759 65382171.045038
vector 22599  IntersectionExampleScenario.node[89].veinsmobility  acceleration  ETV
vector 22600  IntersectionExampleScenario.node[89].veinsmobility  co2emission  ETV
vector 22603  IntersectionExampleScenario.node[90].veinsmobility  posx  ETV
vector 22604  IntersectionExampleScenario.node[90].veinsmobility  posy  ETV
vector 22605  IntersectionExampleScenario.node[90].veinsmobility  speed  ETV
vector 22606  IntersectionExampleScenario.node[90].veinsmobility  acceleration  ETV
vector 22607  IntersectionExampleScenario.node[90].veinsmobility  co2emission  ETV
22425	2497125 6195 21539 27800 189.75 237.5 192 0.973 11.648172402475 548.33356679706 2858.9417402658
22424	2503320 6503 21539 27800 189.75 237.5 192 -2.1501121520996 2.5 38.341367721558 293.02975430968
22423	2509823 6609 21510 27800 189.5 237.5 193 2.0317351818085 15.64999961853 2217.7132041454 29642.399427506
22422	2516432 6791 21480 27800 189.25 237.5 194 486.85000610352 486.85000610352 94448.901184082 45982448.117941
22421	2523223 6774 21480 27800 189.25 237.5 194 236.24932861328 785.82187652588 101111.85305023 56862662.461941
vector 22610  IntersectionExampleScenario.node[91].veinsmobility  posx  ETV
vector 22611  IntersectionExampleScenario.node[91].veinsmobility  posy  ETV
vector 22612  IntersectionExampleScenario.node[91].veinsmobility  speed  ETV
vector 22613  IntersectionExampleScenario.node[91].veinsmobility  acceleration  ETV
vector 22614  IntersectionExampleScenario.node[91].veinsmobility  co2emission  ETV
vector 22617  IntersectionExampleScenario.node[92].veinsmobility  posx  ETV
vector 22618  IntersectionExampleScenario.node[92].veinsmobility  posy  ETV
vector 22624  IntersectionExampleScenario.node[93].veinsmobility  posx  ETV
vector 22625  IntersectionExampleScenario.node[93].veinsmobility  posy  ETV
vector 22619  IntersectionExampleScenario.node[92].veinsmobility  speed  ETV
vector 22631  IntersectionExampleScenario.node[94].veinsmobility  posx  ETV
vector 22632  IntersectionExampleScenario.node[94].veinsmobility  posy  ETV
vector 22620  IntersectionExampleScenario.node[92].veinsmobility  acceleration  ETV
vector 22621  IntersectionExampleScenario.node[92].veinsmobility  co2emission  ETV
vector 22626  IntersectionExampleScenario.node[93].veinsmobility  speed  ETV
vector 22627  IntersectionExampleScenario.node[93].veinsmobility  acceleration  ETV
vector 22628  IntersectionExampleScenario.node[93].veinsmobility  co2emission  ETV
vector 22633  IntersectionExampleScenario.node[94].veinsmobility  speed  ETV
vector 22634  IntersectionExampleScenario.node[94].veinsmobility  acceleration  ETV
vector 22635  IntersectionExampleScenario.node[94].veinsmobility  co2emission  ETV
vector 22638  IntersectionExampleScenario.node[95].veinsmobility  posx  ETV
vector 22639  IntersectionExampleScenario.node[95].veinsmobility  posy  ETV
vector 22645  IntersectionExampleScenario.node[96].veinsmobility  posx  ETV
vector 22646  IntersectionExampleScenario.node[96].veinsmobility  posy  ETV
vector 22640  IntersectionExampleScenario.node[95].veinsmobility  speed  ETV
vector 22641  IntersectionExampleScenario.node[95].veinsmobility  acceleration  ETV
vector 22642  IntersectionExampleScenario.node[95].veinsmobility  co2emission  ETV
vector 22647  IntersectionExampleScenario.node[96].veinsmobility  speed  ETV
vector 22648  IntersectionExampleScenario.node[96].veinsmobility  acceleration  ETV
vector 22649  IntersectionExampleScenario.node[96].veinsmobility  co2emission  ETV
22432	2532403 6801 21539 29032 189.75 243.5 216 0.973 12.099024792222 609.95964310478 3270.7324530884
22431	2539204 6260 21539 29032 189.75 243.5 216 -6.9979004859924 4 41.227170944214 492.65892816269
22430	2545464 6558 21510 29032 189.5 243.5 217 0 16.27499961853 2205.6508940458 32465.666131508
22429	2552022 7602 21480 29032 189.25 243.5 218 184.17810058594 731.40208435059 99016.43661499 48971150.354771
22428	2559624 7631 21480 29032 189.25 243.5 218 486.85000610352 486.85000610352 106133.30133057 51670998.400572
22453	2567255 5941 22477 29257 197.75 244.5 188 0.973 12.553400930962 583.20604784639 3370.6830960408
22452	2573196 6409 22477 29257 197.75 244.5 188 -2.3620338439941 2.5 44.282735824585 325.97869738678
22451	2579605 6458 22446 29257 197.5 244.5 189 1.2463028430939 16.89999961853 2207.7178174257 31619.495241819
22450	2586063 6609 22415 29257 197.25 244.5 190 184.17810058594 730.90135192871 84792.792068481 41695313.136445
22449	2592672 6651 22415 29257 197.25 244.5 190 486.85000610352 486.85000610352 92501.501159668 45034356.404169
vector 22652  IntersectionExampleScenario.node[97].veinsmobility  posx  ETV
vector 22653  IntersectionExampleScenario.node[97].veinsmobility  posy  ETV
vector 22654  IntersectionExampleScenario.node[97].veinsmobility  speed  ETV
vector 22655  IntersectionExampleScenario.node[97].veinsmobility  acceleration  ETV
vector 22656  IntersectionExampleScenario.node[97].veinsmobility  co2emission  ETV
vector 22659  IntersectionExampleScenario.node[98].veinsmobility  posx  ETV
vector 22660  IntersectionExampleScenario.node[98].veinsmobility  posy  ETV
vector 22661  IntersectionExampleScenario.node[98].veinsmobility  speed  ETV
vector 22662  IntersectionExampleScenario.node[98].veinsmobility  acceleration  ETV
vector 22663  IntersectionExampleScenario.node[98].veinsmobility  co2emission  ETV
vector 22666  IntersectionExampleScenario.node[99].veinsmobility  posx  ETV
vector 22667  IntersectionExampleScenario.node[99].veinsmobility  posy  ETV
vector 22668  IntersectionExampleScenario.node[99].veinsmobility  speed  ETV
vector 22669  IntersectionExampleScenario.node[99].veinsmobility  acceleration  ETV
vector 22670  IntersectionExampleScenario.node[99].veinsmobility  co2emission  ETV
22439	2600526 7702 21630 31014 190.5 252.5 249 0.973 11.36141391502 604.88540770487 2816.6328900374
22438	2608228 7010 21630 31014 190.5 252.5 249 -6.7711477279663 4 36.98334312439 450.59403005823
22437	2615238 7326 21599 31014 190.25 252.5 250 0 15.25 2175.7520129681 29985.058215833
22436	2622564 8777 21568 31014 190 252.5 251 486.63604736328 785.82187652588 137274.13507843 77147639.516883
22435	2631341 8722 21568 31014 190 252.5 251 237.36993408203 483.14999389648 112946.80007935 51909327.774033
22446	2640063 7388 22328 31124 196.5 253 227 0.973 11.990504229548 602.46373445352 3011.8394081888
22445	2647451 7688 22328 31124 196.5 253 227 -3.8887252807617 2.5000002384186 39.869146347046 368.07365060986
22444	2655139 7792 22299 31124 196.25 253 228 0 16.125 2218.860645039 31004.766783256
22443	2662931 7972 22270 31124 196 253 229 236.05731201172 785.82187652588 118557.54825592 65485077.750259
22442	2670903 8013 22270 31124 196 253 229 483.14999389648 483.14999389648 110641.34860229 53456366.901897
vector 22673  IntersectionExampleScenario.node[100].veinsmobility  posx  ETV
vector 22674  IntersectionExampleScenario.node[100].veinsmobility  posy  ETV
vector 22675  IntersectionExampleScenario.node[100].veinsmobility  speed  ETV
vector 22676  IntersectionExampleScenario.node[100].veinsmobility  acceleration  ETV
vector 22677  IntersectionExampleScenario.node[100].veinsmobility  co2emission  ETV
vector 22680  IntersectionExampleScenario.node[101].veinsmobility  posx  ETV
vector 22681  IntersectionExampleScenario.node[101].veinsmobility  posy  ETV
vector 22687  IntersectionExampleScenario.node[102].veinsmobility  posx  ETV
vector 22688  IntersectionExampleScenario.node[102].veinsmobility  posy  ETV
vector 22682  IntersectionExampleScenario.node[101].veinsmobility  speed  ETV
vector 22689  IntersectionExampleScenario.node[102].veinsmobility  speed  ETV
vector 22683  IntersectionExampleScenario.node[101].veinsmobility  acceleration  ETV
vector 22684  IntersectionExampleScenario.node[101].veinsmobility  co2emission  ETV
vector 22690  IntersectionExampleScenario.node[102].veinsmobility  acceleration  ETV
vector 22691  IntersectionExampleScenario.node[102].veinsmobility  co2emission  ETV
vector 22694  IntersectionExampleScenario.node[103].veinsmobility  posx  ETV
vector 22695  IntersectionExampleScenario.node[103].veinsmobility  posy  ETV
vector 22696  IntersectionExampleScenario.node[103].veinsmobility  speed  ETV
vector 22697  IntersectionExampleScenario.node[103].veinsmobility  acceleration  ETV
vector 22698  IntersectionExampleScenario.node[103].veinsmobility  co2emission  ETV
22418	2680540 9109 20632 32523 182 259.25 310 0.973 11.450879080643 668.12719635345 2985.2065472863
22417	2689649 9346 20632 32523 182 259.25 310 -8.0257024765015 4 37.492597579956 487.85864199618
22416	2698995 9394 20599 32523 181.75 259.25 311 0 15.375 2190.4750318527 27196.427515943
22415	2708389 10917 20566 32523 181.5 259.25 312 483.14999389648 734.81900024414 159365.05168152 82610747.435262
22414	2719306 10889 20566 32523 181.5 259.25 312 184.17810058594 486.85000610352 132714.4576416 58589648.961838
22460	2730195 8004 22633 32868 199 260.75 248 0.97223939240464 11.810082123732 660.48210111443 3600.2914367124
22459	2738199 7933 22633 32868 199 260.75 248 -4.5 2.5 38.680875778198 488.37684738092
22458	2746132 8032 22602 32868 198.75 260.75 249 0 15.875 2191.123454202 30034.231439534
22457	2754164 8746 22570 32868 198.5 260.75 250 235.25170898438 483.14999389648 112549.39572144 51756099.708083
22456	2762910 8692 22570 32868 198.5 260.75 250 184.17810058594 483.14999389648 105118.46472168 46193575.58193
22467	2771602 6903 23646 33148 207.5 262 219 0.973 12.553400930962 614.78762472189 3426.6384052748
22466	2778505 7203 23646 33148 207.5 262 219 -3.7793109416962 2.5000009536743 42.754949569702 364.9894318638
22465	2785708 7350 23618 33148 207.25 262 220 0 16.89999961853 2176.9878813718 29703.603951365
22464	2793058 7729 23589 33148 207 262 221 238.85522460938 483.14999389648 99216.064849854 45506459.488468
22463	2800787 7702 23589 33148 207 262 221 184.17810058594 483.14999389648 91045.88381958 39331302.928553
22474	2808489 7342 23839 33907 209.25 265.5 226 0.973 11.810082123732 607.89312803903 3082.1382196783
22473	2815831 7458 23839 33907 209.25 265.5 226 -4.5 2.5 39.529638290405 445.93260933735
[...]
26926	46491451 18720 428195 464009 1661.25 1800 556 0.973 9.442030466751 806.90106049568 1945.9516444403
26925	46510171 20137 428195 464009 1661.25 1800 556 -20.072143554688 2.5000019073486 -22.60000038147 1205.9397762605
26924	46530308 19960 428134 464009 1661 1800 557 0 13.183227539062 1146.664973069 7202.9874311876
26923	46550268 20645 428073 464009 1660.75 1800 558 486.85000610352 486.85000610352 271662.30340576 132258794.07119
26922	46570913 20582 428073 464009 1660.75 1800 558 498.39999389648 785.82187652588 327756.06109619 194511836.53422
26940	46591495 16211 432616 464009 1680.5 1800 479 0.97223939240464 11.648172402475 767.52729410518 2616.6221775408
26939	46607706 17309 432616 464009 1680.5 1800 479 -4.5 2.5 -22.274203419685 878.96390467596
26938	46625015 17210 432557 464009 1680.25 1800 480 0 15.64999961853 1121.7739171777 9102.0814764721
26937	46642225 17795 432498 464009 1680 1800 481 486.85000610352 486.85000610352 234174.85293579 114008028.58108
26936	46660020 17736 432498 464009 1680 1800 481 505.15625 785.82187652588 281995.63770294 166890004.06147
26961	46677756 14355 434869 464009 1690 1800 441 0.973 11.200708441096 642.85098226169 1754.422655581
26960	46692111 15352 434869 464009 1690 1800 441 -4.5 4 -15.658065319061 688.31335173949
26959	46707463 15199 434810 464009 1689.75 1800 442 0 15.02499961853 1065.7555677108 7354.310503745
26958	46722662 16390 434751 464009 1689.5 1800 443 486.85000610352 486.85000610352 215674.55270386 105001157.30025
26957	46739052 16220 434751 464009 1689.5 1800 443 519.1598815918 785.82187652588 262363.17481232 156799330.11307
26968	46755272 14882 435109 464009 1691 1800 437 0.973 11.200708441096 675.42133275787 1926.6781112814
26967	46770154 16215 435109 464009 1691 1800 437 -4.5 2.5 -15.273869514465 741.76807916567
26966	46786369 16209 435048 464009 1690.75 1800 438 0 15.25574016571 1110.2006072901 7965.3549034253
26965	46802578 16242 434987 464009 1690.5 1800 439 486.85000610352 486.85000610352 213727.15267944 104053065.58647
26964	46818820 16197 434987 464009 1690.5 1800 439 530.34283447266 807.99687957764 264734.34492493 161312175.30439
26989	46835017 13995 436341 464009 1696.25 1800 416 0.973 7.8543735608295 578.58532157936 1168.3263033972
26988	46849012 14974 436341 464009 1696.25 1800 416 -4.5 2.5 -11.580745697021 428.51898359786
26987	46863986 14798 436280 464009 1696 1800 417 0 10.305444717407 1017.1427299902 6592.6545686389
26986	46878784 15465 436219 464009 1695.75 1800 418 486.85000610352 486.85000610352 203503.30255127 99075584.089172
26985	46894249 15416 436219 464009 1695.75 1800 418 539.75842285156 793.69462585449 254110.74337006 155939315.58346
26996	46909665 13158 437918 464009 1703 1800 389 0.973 9.6473139466733 551.62186227423 1199.5731782659
26995	46922823 13875 437918 464009 1703 1800 389 -4.5 2.5000001192093 -10.993118286133 539.39196011056
26994	46936698 13617 437859 464009 1702.75 1800 390 0 12.868175506592 945.4788422063 7301.7963607925
26993	46950315 14466 437800 464009 1702.5 1800 391 486.85000610352 486.85000610352 190358.35238647 92675965.021211
26992	46964781 14427 437800 464009 1702.5 1800 391 549.98236083984 785.82187652588 238155.20887756 146126757.33217
27010	46979208 13017 438341 464009 1704.75 1800 382 0.973 11.810082123732 746.1786555413 3184.4915271129
27009	46992225 13945 438341 464009 1704.75 1800 382 -4.5 2.5000004768372 38.511121749878 423.09718998019
27008	47006170 13733 438278 464009 1704.5 1800 383 0 15.875 2164.2900154125 26209.873437415
27007	47019903 14196 438215 464009 1704.25 1800 384 242.25604248047 483.14999389648 177714.12246704 83337149.539859
27006	47034099 14154 438215 464009 1704.25 1800 384 184.17810058594 483.16357421875 161957.25384521 70303219.243001
27017	47048253 12643 438471 464009 1705.25 1800 380 0.973 9.726504188889 551.54735966492 1294.6077210666
27016	47060896 13353 438471 464009 1705.25 1800 380 -4.5 4 -14.375881195068 473.28940335074
27015	47074249 13226 438406 464009 1705 1800 381 0 13.762529373169 968.87306825072 8328.6564040274
27014	47087475 14133 438341 464009 1704.75 1800 382 486.85000610352 486.85000610352 185976.70233154 90542758.665224
27013	47101608 13865 438341 464009 1704.75 1800 382 560.36865234375 802.70781707764 235706.81377411 146577668.58696
27059	47115473 10516 441749 464009 1717.75 1800 330 0.973 11.200708441096 522.45763133273 1697.0204842659
27058	47125989 11265 441749 464009 1717.75 1800 330 -9.0712614059448 2.5000009536743 -22.60000038147 540.53614396132
27057	47137254 11137 441679 464009 1717.5 1800 331 0 15.02499961853 1146.8759479169 12249.476547476
27056	47148391 12284 441608 464009 1717.25 1800 332 483.14999389648 483.14999389648 160405.79797363 77500060.311921
27055	47160675 12234 441608 464009 1717.25 1800 332 184.17810058594 471.60000610352 137284.83880615 58568463.979301
27066	47172909 10774 442777 464009 1721.5 1800 315 0.973 11.200708441096 508.41194399686 1622.116322738
27065	47183683 11789 442777 464009 1721.5 1800 315 -4.5 2.5 -22.60000038147 525.348851015
27064	47195472 11594 442708 464009 1721.25 1800 316 0 15.02499961853 1153.6599111361 12999.696026311
27063	47207066 11727 442639 464009 1721 1800 317 483.14999389648 483.14999389648 153158.54806519 73998551.562889
27062	47218793 11694 442639 464009 1721 1800 317 176.21716308594 465.18585205078 128610.0300293 53966073.330658
27073	47230487 9601 443801 464009 1725.25 1800 300 0.973 11.200708441096 466.65099640229 1537.3082590411
27072	47240088 10146 443801 464009 1725.25 1800 300 -4.2611236572266 2.5 -16.908683300018 374.21508632285
27071	47250234 10197 443732 464009 1725 1800 301 0 15.02499961853 866.35686135571 6981.2148126955
27070	47260431 11173 443663 464009 1724.75 1800 302 486.85000610352 486.85000610352 147028.70184326 71580924.389784
27069	47271604 11120 443663 464009 1724.75 1800 302 569.10375976562 785.82187652588 186583.70153046 116126265.85887
27101	47282724 8352 447181 464009 1738 1800 249 0.973 11.648172402475 438.41734391614 1717.6438791434
27100	47291076 8889 447181 464009 1738 1800 249 -4.5 2.5 -21.062115550041 332.82395845731
27099	47299965 8987 447112 464009 1737.75 1800 250 0 15.64999961853 1092.1401796043 11674.941640213
27098	47308952 9286 447045 464009 1737.5 1800 251 483.14999389648 483.14999389648 121270.64846802 58591913.067145
27097	47318238 9225 447045 464009 1737.5 1800 251 184.17810058594 457.09558105469 99179.052581787 40648519.459531
27115	47327463 7597 447667 464009 1739.75 1800 242 0.973 11.582711701013 449.89264131302 1795.3477545591
27114	47335060 7653 447667 464009 1739.75 1800 242 -8.6479949951172 2.5 -22.60000038147 517.36205696463
27113	47342713 7727 447597 464009 1739.5 1800 243 0 15.558856964111 1272.3980935067 15609.62274131
27112	47350440 9003 447526 464009 1739.25 1800 244 498.39999389648 817.28360748291 139265.43340302 81815689.384666
27111	47359443 9028 447526 464009 1739.25 1800 244 483.14999389648 483.14999389648 117888.59851074 56957875.65093
27122	47368471 7292 448154 464009 1741.5 1800 235 0.973 11.200708441096 388.43646094771 1427.0035935241
27121	47375763 7769 448154 464009 1741.5 1800 235 -4.5 2.5 -21.410719156265 309.10408344671
27120	47383532 7765 448084 464009 1741.25 1800 236 0 15.02499961853 1093.4264372177 12680.267353913
27119	47391297 8767 448013 464009 1741 1800 237 483.14999389648 483.14999389648 114506.54855347 55323838.234715
27118	47400064 8731 448013 464009 1741 1800 237 174.53436279297 448.07522583008 91607.675262451 36897694.717123
27129	47408795 7430 448503 464009 1742.75 1800 230 0.973 11.648172402475 374.80664461051 1469.4522337403
27128	47416225 8588 448503 464009 1742.75 1800 230 -3.7478947639465 2.500000089407 -22.60000038147 289.36634474915
27127	47424813 8423 448432 464009 1742.5 1800 231 0 15.64999961853 835.51556532271 7510.4119019703
27126	47433236 8584 448361 464009 1742.25 1800 232 486.85000610352 486.85000610352 112949.20141602 54989319.398774
27125	47441820 8562 448361 464009 1742.25 1800 232 576.60162353516 785.82187652588 144778.50273895 91086772.573676
27143	47450382 7239 449005 464009 1744.5 1800 223 0.97223939240464 11.648172402475 404.47715258427 1645.3104568053
27142	47457621 7836 449005 464009 1744.5 1800 223 -4.5 2.5 -22.60000038147 363.74208804672
27141	47465457 7791 448932 464009 1744.25 1800 224 0 15.64999961853 1189.1640077299 14658.457568546
27140	47473248 8293 448859 464009 1744 1800 225 504.79895019531 802.19622039795 128996.73381805 75851398.053159
27139	47481541 8323 448859 464009 1744 1800 225 483.14999389648 483.14999389648 108708.74862671 52522631.235489
27150	47489864 6990 449588 464009 1746.5 1800 215 0.973 10.315404520939 357.4695992868 1220.2463964898
27149	47496854 8017 449588 464009 1746.5 1800 215 -4.5 2.5 -15.833742141724 293.02874921753
27148	47504871 7916 449515 464009 1746.25 1800 216 0 14.309489250183 833.4854163155 6513.8954445136
27147	47512787 8027 449442 464009 1746 1800 217 486.85000610352 486.85000610352 105646.45132446 51433975.472129
27146	47520814 7999 449442 464009 1746 1800 217 585.46197509766 793.78281402588 138288.23752594 88907071.795178
27157	47528813 6462 450582 464009 1750 1800 201 0.973 11.200708441096 354.33575583619 1380.3031892858
27156	47535275 7589 450582 464009 1750 1800 201 -3.8409502506256 2.5 -22.525316104293 249.00520912231
27155	47542864 7424 450511 464009 1749.75 1800 202 0 15.02499961853 1094.9720023721 12503.047851192
27154	47550288 7486 450440 464009 1749.5 1800 203 511.46188354492 785.82187652588 117718.42298126 69727113.102036
27153	47557774 7510 450440 464009 1749.5 1800 203 483.14999389648 483.14999389648 98079.448760986 47387085.070241
27164	47565284 5937 451634 464009 1753.75 1800 186 0.96333723109819 12.099024792222 352.20082025271 1629.6404705853
27163	47571221 6685 451634 464009 1753.75 1800 186 -4.5 2.5 -19.337993383408 287.85034563193
27162	47577906 6769 451563 464009 1753.5 1800 187 0 16.27499961853 1011.59632333 11711.530120521
27161	47584675 6956 451492 464009 1753.25 1800 188 483.14999389648 483.14999389648 90832.198852539 43885576.321208
27160	47591631 6918 451492 464009 1753.25 1800 188 184.17810058594 437.34811401367 70402.299377441 27492824.467043
27171	47598549 5204 453466 464009 1760.5 1800 159 0.973 12.099024792222 482.48729365522 2812.9401078732
27170	47603753 4983 453466 464009 1760.5 1800 159 -7.308970451355 4 38.377244949341 497.37634677743
27169	47608736 5039 453399 464009 1760.25 1800 160 0 16.27499961853 1451.286036253 20075.754299944
27168	47613775 5930 453332 464009 1760 1800 161 184.17810058594 486.85000610352 63675.150939941 26835408.658393
27167	47619705 5955 453332 464009 1760 1800 161 424.37063598633 486.85000610352 77758.515319824 37577559.284209
27178	47625660 4902 453604 464009 1761 1800 157 0.973 11.648172402475 306.4382160311 1441.0136230833
27177	47630562 5502 453604 464009 1761 1800 157 -3.8036248683929 2.5 -18.881070375443 228.06391433482
27176	47636064 5540 453535 464009 1760.75 1800 158 0 16.114028930664 979.93550281785 11881.786560068
27175	47641604 5882 453466 464009 1760.5 1800 159 483.14999389648 483.14999389648 76820.849029541 37115992.739745
27174	47647486 5842 453466 464009 1760.5 1800 159 184.17810058594 429.12158203125 57750.425262451 21970438.177367
27185	47653328 5075 453810 464009 1761.75 1800 154 0.973 11.648172402475 333.73975791559 1680.3268324929
27184	47658403 5615 453810 464009 1761.75 1800 154 -3.9525501728058 2.5 -21.622530698776 255.65035116755
27183	47664018 5714 453741 464009 1761.5 1800 155 0 15.64999961853 1065.2133590989 12678.109373791
27182	47669732 5753 453672 464009 1761.25 1800 156 519.39547729492 785.82187652588 93111.543403625 56805127.376308
27181	47675485 5772 453672 464009 1761.25 1800 156 483.14999389648 483.14999389648 75371.399047852 36415690.989939
27192	47681257 4385 454901 464009 1765.75 1800 138 0.973 12.099024792222 298.94630596442 1558.3943241744
27191	47685642 5030 454901 464009 1765.75 1800 138 -4.5 2.5 -22.231530159712 261.61685988111
27190	47690672 5139 454832 464009 1765.5 1800 139 0 16.27499961853 947.79297881573 10726.499416226
27189	47695811 5180 454763 464009 1765.25 1800 140 483.14999389648 483.14999389648 67640.999145508 32680748.324304
27188	47700991 5154 454763 464009 1765.25 1800 140 184.17810058594 421.75479125977 48901.101135254 17920480.076465
27199	47706145 3660 455854 464009 1769.25 1800 124 0.973 12.099024792222 255.49483204852 1448.7238508796
27198	47709805 4377 455854 464009 1769.25 1800 124 -3.6417894363403 2.5 -21.523034572601 225.87322517863
27197	47714182 4404 455785 464009 1769 1800 125 0 16.27499961853 767.13311961293 8279.5469873002
27196	47718586 4661 455716 464009 1768.75 1800 126 486.85000610352 486.85000610352 61343.100769043 29864888.983817
27195	47723247 4638 455716 464009 1768.75 1800 126 593.6828918457 785.82187652588 81826.269371033 53635642.15732
27206	47727885 3708 456882 464009 1773 1800 109 0.973 11.648172402475 352.0706980529 2022.4472409175
27205	47731593 3585 456882 464009 1773 1800 109 -3.7556667327881 2.5 15.89999961853 287.32977990633
27204	47735178 3840 456813 464009 1772.75 1800 110 5.6500000953674 15.64999961853 1263.1978554726 15928.727196818
27203	47739018 4076 456744 464009 1772.5 1800 111 184.17810058594 483.18127441406 39271.83996582 14976620.677289
27202	47743094 4106 456744 464009 1772.5 1800 111 486.85000610352 504.85635375977 54141.62399292 26409338.848633
27213	47747200 3318 457157 464009 1774 1800 105 0.973 11.648172402475 267.12153972305 1511.960376465
27212	47750518 3480 457157 464009 1774 1800 105 -4.5 2.5 -22.60000038147 283.44900634526
27211	47753998 3800 457088 464009 1773.75 1800 106 0 15.64999961853 926.65563361347 10335.235121245
27210	47757798 3958 457019 464009 1773.5 1800 107 483.14999389648 483.14999389648 51697.049346924 24977429.076432
27209	47761756 3927 457019 464009 1773.5 1800 107 184.17810058594 416.32647705078 34841.337005615 11980232.438065
27220	47765683 2798 458568 464009 1779.25 1800 84 0.973 9.8772939209111 239.01764206675 1224.3512948431
27219	47768481 2902 458568 464009 1779.25 1800 84 -3.9650115966797 2.5 -18.117513656616 271.5234147507
27218	47771383 3119 458501 464009 1779 1800 85 1.1206216812134 14.688440322876 896.24255180359 10707.977430239
27217	47774502 3181 458434 464009 1778.75 1800 86 483.14999389648 483.14999389648 41550.899475098 20075316.827787
27216	47777683 3162 458434 464009 1778.75 1800 86 184.17810058594 408.57925415039 26347.039276123 8550142.4002379
27227	47780845 2399 459411 464009 1782.5 1800 71 0.973 11.648172402475 227.36848200448 1365.8042956513
27226	47783244 2532 459411 464009 1782.5 1800 71 -2.0694198608398 2.5 3.7452793121338 161.3249180723
27225	47785776 2650 459346 464009 1782.25 1800 72 5.6500000953674 15.64999961853 916.96168613434 12431.020299497
27224	47788426 2691 459281 464009 1782 1800 73 558.63824462891 785.82187652588 49103.816642761 33432769.745606
27223	47791117 2699 459281 464009 1782 1800 73 483.14999389648 483.14999389648 35269.949554443 17040675.911959
27234	47793816 1911 460496 464009 1786.75 1800 54 0.973 11.200708441096 195.64473946739 1199.1415173324
27233	47795727 1951 460496 464009 1786.75 1800 54 -0.86547088623047 2.5 32.372468948364 96.927649711801
27232	47797678 2019 460432 464009 1786.5 1800 55 5.6500000953674 15.03115940094 745.94841766357 10488.386568004
27231	47799697 2063 460367 464009 1786.25 1800 56 608.24838256836 790.18281555176 39658.266578674 28267926.951525
27230	47801760 2072 460367 464009 1786.25 1800 56 483.14999389648 483.14999389648 27056.399658203 13072299.329722
27241	47803832 1732 460689 464009 1787.5 1800 51 0.97223939240464 11.648172402475 188.90135314941 1294.3725890114
27240	47805564 1668 460689 464009 1787.5 1800 51 -1.7178993225098 2.5 15.75096321106 139.53155299511
27239	47807232 1910 460624 464009 1787.25 1800 52 5.6500000953674 15.64999961853 653.03486061096 8588.8746299718
27238	47809142 1959 460559 464009 1787 1800 53 483.14999389648 483.14999389648 25606.949676514 12371997.579915
27237	47811101 1928 460559 464009 1787 1800 53 184.17810058594 344.40167236328 13767.699645996 3719313.4178533
27248	47813029 1249 461640 464009 1791.25 1800 36 0.973 11.200708441096 154.23499113093 1105.217011292
27247	47814278 1190 461640 464009 1791.25 1800 36 -1.9292678833008 2.5 25.220739364624 112.97830669798
27246	47815468 1355 461577 464009 1791 1800 37 5.6500000953674 15.02499961853 461.316157341 6032.1387320554
27245	47816823 1405 461514 464009 1790.75 1800 38 486.85000610352 486.85000610352 18500.300231934 9006871.2808337
27244	47818228 1405 461514 464009 1790.75 1800 38 674.37101745605 785.82187652588 28004.15120697 20686172.697706
27255	47819633 1251 461770 464009 1791.75 1800 34 1.3359818273867 11.200708441096 162.04855387661 1135.7519941523
27254	47820884 1175 461770 464009 1791.75 1800 34 -0.22282791137695 2.5 37.126268386841 93.808770233696
27253	47822059 1282 461705 464009 1791.5 1800 35 5.6500000953674 15.02499961853 450.6825094223 6126.1235111278
27252	47823341 1332 461640 464009 1791.25 1800 36 483.14999389648 483.14999389648 17393.399780273 8403620.9976782
27251	47824673 1308 461640 464009 1791.25 1800 36 179.81719970703 287.50952148438 8125.1838989258 1875743.4999062
27262	47825981 993 462228 464009 1793.5 1800 27 1.6778656626784 11.200708441096 146.4475660316 1100.7712570394
27261	47826974 868 462228 464009 1793.5 1800 27 -0.12916564941406 2.5 36.999700546265 93.788086598452
27260	47827842 1026 462161 464009 1793.25 1800 28 5.6500000953674 15.02499961853 344.52522373199 4516.4652020877
27259	47828868 1068 462095 464009 1793 1800 29 704.6570892334 785.82187652588 21813.374153137 16426897.657628
27258	47829936 1071 462095 464009 1793 1800 29 483.14999389648 483.14999389648 14011.349822998 6769583.581463
27269	47831007 957 462295 464009 1793.75 1800 26 2.0611090671637 11.200708441096 155.27770347998 1152.0228198056
27268	47831964 807 462295 464009 1793.75 1800 26 -0.040576934814453 2.5 39.815462112427 94.377304343088
27267	47832771 988 462228 464009 1793.5 1800 27 5.6500000953674 15.614009857178 334.93932914734 4456.0448420224
27266	47833759 1036 462161 464009 1793.25 1800 28 486.85000610352 486.85000610352 13631.800170898 6636641.9964038
27265	47834795 1032 462161 464009 1793.25 1800 28 722.88003540039 801.41563415527 21540.876121521 16588955.276686
27276	47835827 736 462701 464009 1795.25 1800 20 1.8853453884123 10.756497587458 123.22758005505 951.04131661352
27275	47836563 602 462701 464009 1795.25 1800 20 -0.055862426757812 2.5 34.816316604614 87.50689736188
27274	47837165 767 462632 464009 1795 1800 21 5.6500000953674 14.39999961853 236.57757949829 2855.3659025222
27273	47837932 811 462563 464009 1794.75 1800 22 750.66851806641 805.05782318115 17227.614929199 13496997.281906
27272	47838743 813 462563 464009 1794.75 1800 22 483.14999389648 483.14999389648 10629.299865723 5135546.1652478
27283	47839556 321 463451 464009 1798 1800 9 0.973 6.6104630744618 35.595794103651 178.62671564423
27282	47839877 255 463451 464009 1798 1800 9 -2.1224098205566 2.5000019073486 11.079084396362 34.545232133958
27281	47840132 368 463382 464009 1797.75 1800 10 5.6500000953674 8.419771194458 67.555555343628 467.00522892983
27280	47840500 406 463313 464009 1797.5 1800 11 486.85000610352 486.85000610352 5355.3500671387 2607252.2128729
27279	47840906 405 463313 464009 1797.5 1800 11 783.61380767822 797.97970581055 8710.2922973633 6897445.6015285
27290	47841311 220 463662 464009 1798.75 1800 6 5.2162187258585 7.303684162087 37.542735715336 237.95938883636
27289	47841531 161 463662 464009 1798.75 1800 6 2.4999980926514 2.5 14.999998092651 37.49999046326
27288	47841692 258 463591 464009 1798.5 1800 7 5.6500000953674 9.3999996185303 52.674999237061 407.31685994148
27287	47841950 296 463520 464009 1798.25 1800 8 486.85000610352 486.85000610352 3894.8000488281 1896183.4275439
27286	47842246 295 463520 464009 1798.25 1800 8 761.03283691406 771.38283538818 6137.5720672607 4708827.7192633
21969	47842541 647 0 464008 0 1800 31 0 53 1164 47620
21970	47843188 669 0 464008 0 1800 31 0 561 7794 2922202
